#    Name: 1x7e_244_1_INTS_M
#    Modification time : Mon Apr  7 15:06:23 2014

@<TRIPOS>MOLECULE
1x7e_244_1_INTS_M
   56     0     9     0     0
SMALL
NO_CHARGES


@<TRIPOS>ATOM
      1 CA         22.1950   19.6875   27.4260 C.3       3 GLC5        0.0000 
      2 CA         23.7510   19.5780   26.0370 C.3       9 GLL5        0.0000 
      3 CA         20.6390   19.7970   28.8150 C.3       6 GLP5        0.0000 
      4 CA         25.6895   22.7735   26.5145 C.3       3 GLC5        0.0000 
      5 CA         25.8530   20.9610   25.9920 C.3       9 GLL5        0.0000 
      6 CA         25.5260   24.5860   27.0370 C.3       6 GLP5        0.0000 
      7 CA         24.6730   18.8210   27.2695 C.3       3 GLC5        0.0000 
      8 CA         24.5880   20.6100   26.6130 C.3       9 GLL5        0.0000 
      9 CA         24.7580   17.0320   27.9260 C.3       6 GLP5        0.0000 
     10 CA         23.5635   22.2625   27.2620 C.3       3 GLC5        0.0000 
     11 CA         22.5390   23.9150   27.9110 C.3       6 GLP5        0.0000 
     12 CA         28.8965   21.7125   22.9645 C.3       3 GLC5        0.0000 
     13 CA         27.4370   20.3890   23.9720 C.3       9 GLL5        0.0000 
     14 CA         30.3560   23.0360   21.9570 C.3       6 GLP5        0.0000 
     15 O          23.0855   20.5955   28.2395 O.2       1 ALC1        0.0000 
     16 O          24.1640   21.2530   27.7500 O.2       7 ALL1        0.0000 
     17 O          22.0070   19.9380   28.7290 O.2       4 ALP1        0.0000 
     18 CA         24.6425   14.7050   25.0595 C.3       3 GLC5        0.0000 
     19 CA         23.9710   16.5070   23.9890 C.3       9 GLL5        0.0000 
     20 CA         25.3140   12.9030   26.1300 C.3       6 GLP5        0.0000 
     21 CA         23.6170   15.2700   22.5775 C.3       3 GLC5        0.0000 
     22 CA         23.2630   14.0330   21.1660 C.3       6 GLP5        0.0000 
     23 CA         31.0075   21.0695   20.9185 C.3       3 GLC5        0.0000 
     24 CA         30.3120   19.2210   20.5820 C.3       9 GLL5        0.0000 
     25 CA         31.7030   22.9180   21.2550 C.3       6 GLP5        0.0000 
     26 CA         29.9315   21.2920   21.8420 C.3       3 GLC5        0.0000 
     27 CA         29.5070   19.5480   21.7270 C.3       9 GLL5        0.0000 
     28 N          31.0240   16.6850   17.8605 N.am      2 SEC2        0.0000 
     29 N          30.4990   18.1240   18.4110 N.am      8 SEL2        0.0000 
     30 N          31.5490   15.2460   17.3100 N.am      5 SEP2        0.0000 
     31 O          31.5065   18.9940   18.5175 O.2       1 ALC1        0.0000 
     32 O          30.4990   18.1240   18.4110 O.2       7 ALL1        0.0000 
     33 O          32.5140   19.8640   18.6240 O.2       4 ALP1        0.0000 
     34 O          31.6010   18.7710   17.4480 O.2       1 ALC1        0.0000 
     35 O          32.7030   19.4180   16.4850 O.2       4 ALP1        0.0000 
     36 CA         24.7291   18.1352   26.3776 C.3       3 GLC5        0.0000 
     37 CA         24.1800   18.8920   24.8340 C.3       9 GLL5        0.0000 
     38 CA         25.9548   21.0767   28.1077 C.3       3 GLC5        0.0000 
     39 CA         26.6890   21.3680   29.9130 C.3       6 GLP5        0.0000 
     40 CA         28.5407   19.2509   24.9043 C.3       3 GLC5        0.0000 
     41 CA         26.2970   20.2860   24.7920 C.3       9 GLL5        0.0000 
     42 CA         30.0440   18.6290   26.1360 C.3       6 GLP5        0.0000 
     43 CA         23.6925   16.3930   25.7578 C.3       3 GLC5        0.0000 
     44 CA         23.7610   15.6320   27.4070 C.3       6 GLP5        0.0000 
     45 CA         22.0090   16.4315   23.7463 C.3       3 GLC5        0.0000 
     46 CA         20.3940   15.7090   23.3840 C.3       6 GLP5        0.0000 
     47 CA         27.4853   16.2395   19.9750 C.3       3 GLC5        0.0000 
     48 CA         28.3860   17.9570   19.5580 C.3       9 GLL5        0.0000 
     49 CA         26.9890   14.3590   19.8200 C.3       6 GLP5        0.0000 
     50 CA         31.8218   18.1677   20.7175 C.3       3 GLC5        0.0000 
     51 CA         29.7410   18.4300   19.5040 C.3       9 GLL5        0.0000 
     52 CA         33.6170   17.5100   21.3920 C.3       6 GLP5        0.0000 
     53 CA         28.0826   19.6590   18.5015 C.3       3 GLC5        0.0000 
     54 CA         27.3040   21.0430   17.1860 C.3       6 GLP5        0.0000 
     55 CA         29.0018   21.0307   20.0237 C.3       3 GLC5        0.0000 
     56 CA         28.0940   22.6770   18.8930 C.3       6 GLP5        0.0000 
@<TRIPOS>BOND
@<TRIPOS>SUBSTRUCTURE
     1 ALC1       15 GROUP        1 X    ALC  0     ROOT ALC X 1
     2 SEC2       28 GROUP        1 X    SEC  0     **** SEC X 2
     3 GLC5        1 GROUP        1 X    GLC  0     **** GLC X 6
     4 ALP1       17 GROUP        1 Y    ALP  0     ROOT ALP Y 8
     5 SEP2       30 GROUP        1 Y    SEP  0     **** SEP Y 9
     6 GLP5        3 GROUP        1 Y    GLP  0     **** GLP Y 13
     7 ALL1       16 GROUP        1 Z    ALL  0     ROOT ALL Z 15
     8 SEL2       29 GROUP        1 Z    SEL  0     **** SEL Z 16
     9 GLL5        2 GROUP        1 Z    GLL  0     **** GLL Z 20
@<TRIPOS>SET

