#    Name: 1x7e_244_1_ligand
#    Modification time : Mon Apr  7 15:06:23 2014

@<TRIPOS>MOLECULE
1x7e_244_1_ligand
   31    33     1     0     0
SMALL
NO_CHARGES


@<TRIPOS>ATOM
      1 C1         23.7510   19.5780   26.0370 C.ar      1 244201      0.0000 
      2 C2         24.1800   18.8920   24.8340 C.ar      1 244201      0.0000 
      3 C3         25.4350   19.2420   24.2230 C.ar      1 244201      0.0000 
      4 C4         26.2970   20.2860   24.7920 C.ar      1 244201      0.0000 
      5 C5         25.8530   20.9610   25.9920 C.ar      1 244201      0.0000 
      6 C6         24.5880   20.6100   26.6130 C.ar      1 244201      0.0000 
      7 O9         26.0430   18.7450   23.1120 O.3       1 244201      0.0000 
      8 C10        27.2080   19.4080   22.9630 C.2       1 244201      0.0000 
      9 C11        27.4370   20.3890   23.9720 C.2       1 244201      0.0000 
     10 O12        24.1640   21.2530   27.7500 O.3       1 244201      0.0000 
     11 C13        23.2770   17.8010   24.2280 C.3       1 244201      0.0000 
     12 C14        23.9710   16.5070   23.9890 C.1       1 244201      0.0000 
     13 N17        24.5630   15.5320   23.8230 N.1       1 244201      0.0000 
     14 C18        28.1190   19.0820   21.7990 C.ar      1 244201      0.0000 
     15 C19        27.5770   18.2830   20.7020 C.ar      1 244201      0.0000 
     16 C20        28.3860   17.9570   19.5580 C.ar      1 244201      0.0000 
     17 C21        29.7410   18.4300   19.5040 C.ar      1 244201      0.0000 
     18 C22        30.3120   19.2210   20.5820 C.ar      1 244201      0.0000 
     19 C23        29.5070   19.5480   21.7270 C.ar      1 244201      0.0000 
     20 O28        30.4990   18.1240   18.4110 O.3       1 244201      0.0000 
     21 H          22.8743   19.3373   26.4699 H         1 244201      0.0000 
     22 H          26.4281   21.6857   26.4049 H         1 244201      0.0000 
     23 H          28.1504   20.9419   24.0558 H         1 244201      0.0000 
     24 H          22.8620   18.1894   23.2799 H         1 244201      0.0000 
     25 H          22.4192   17.6510   24.9090 H         1 244201      0.0000 
     26 H          26.6173   17.9589   20.7571 H         1 244201      0.0000 
     27 H          28.0070   17.4054   18.8070 H         1 244201      0.0000 
     28 H          31.2672   19.5347   20.5199 H         1 244201      0.0000 
     29 H          29.8836   20.0947   22.4837 H         1 244201      0.0000 
     30 H          23.2002   21.0035   27.8442 H         1 244201      0.0000 
     31 H          31.2719   18.7575   18.4466 H         1 244201      0.0000 
@<TRIPOS>BOND
     1    2    1 ar   
     2    6    1 ar   
     3   21    1 1    
     4    3    2 ar   
     5   11    2 1    
     6    4    3 ar   
     7    7    3 1    
     8    5    4 ar   
     9    9    4 1    
    10    6    5 ar   
    11   22    5 1    
    12   10    6 1    
    13    8    7 1    
    14    9    8 2    
    15   14    8 1    
    16   23    9 1    
    17   30   10 1    
    18   12   11 1    
    19   24   11 1    
    20   25   11 1    
    21   13   12 3    
    22   15   14 ar   
    23   19   14 ar   
    24   16   15 ar   
    25   26   15 1    
    26   17   16 ar   
    27   27   16 1    
    28   18   17 ar   
    29   20   17 1    
    30   19   18 ar   
    31   28   18 1    
    32   29   19 1    
    33   31   20 1    
@<TRIPOS>SUBSTRUCTURE
     1 244201      1 GROUP   
@<TRIPOS>SET

