#    Name: 1jld_0PP_1_INTS_M
#    Modification time : Tue Mar 25 09:02:48 2014

@<TRIPOS>MOLECULE
1jld_0PP_1_INTS_M
   94     0     9     0     0
SMALL
NO_CHARGES


@<TRIPOS>ATOM
      1 N          52.8380   25.6910   10.0300 N.am      2 SEC2        0.0000 
      2 N          51.4700   25.4350    9.3670 N.am      8 SEL2        0.0000 
      3 N          54.2060   25.9470   10.6930 N.am      5 SEP2        0.0000 
      4 CA         44.0595   26.3290    7.7230 C.3       3 GLC5        0.0000 
      5 CA         45.1340   25.9660    9.6050 C.3       9 GLL5        0.0000 
      6 CA         42.9850   26.6920    5.8410 C.3       6 GLP5        0.0000 
      7 CA         46.9730   22.2850    7.0685 C.3       3 GLC5        0.0000 
      8 CA         45.9120   23.5790    8.4230 C.3       9 GLL5        0.0000 
      9 CA         48.0340   20.9910    5.7140 C.3       6 GLP5        0.0000 
     10 O          49.8500   22.2965    8.2495 O.2       1 ALC1        0.0000 
     11 O          50.8130   23.5560    8.2440 O.2       7 ALL1        0.0000 
     12 O          48.8870   21.0370    8.2550 O.2       4 ALP1        0.0000 
     13 CA         53.5510   24.1095    8.1800 C.3       3 GLC5        0.0000 
     14 CA         52.0030   22.8000    7.8570 C.3       9 GLL5        0.0000 
     15 CA         55.0990   25.4190    8.5030 C.3       6 GLP5        0.0000 
     16 CA         51.7615   19.7645    9.7730 C.3       3 GLC5        0.0000 
     17 CA         52.2940   21.5030    8.6990 C.3       9 GLL5        0.0000 
     18 CA         51.2290   18.0260   10.8470 C.3       6 GLP5        0.0000 
     19 CA         54.8620   22.5965    8.3505 C.3       3 GLC5        0.0000 
     20 CA         53.6660   20.9320    8.4200 C.3       9 GLL5        0.0000 
     21 CA         56.0580   24.2610    8.2810 C.3       6 GLP5        0.0000 
     22 CA         54.7600   19.2325    9.0035 C.3       3 GLC5        0.0000 
     23 CA         55.8540   17.5330    9.5870 C.3       6 GLP5        0.0000 
     24 CA         54.9175   20.0400    7.2480 C.3       3 GLC5        0.0000 
     25 CA         56.1690   19.1480    6.0760 C.3       6 GLP5        0.0000 
     26 O          52.7165   25.1165    6.1895 O.2       1 ALC1        0.0000 
     27 O          52.1260   23.6900    5.6800 O.2       7 ALL1        0.0000 
     28 O          53.3070   26.5430    6.6990 O.2       4 ALP1        0.0000 
     29 O          55.0480   25.4950    3.1895 O.2       1 ALC1        0.0000 
     30 O          54.2820   24.0700    3.7580 O.2       7 ALL1        0.0000 
     31 O          55.8140   26.9200    2.6210 O.2       4 ALP1        0.0000 
     32 O          53.9855   25.3485    2.9525 O.2       1 ALC1        0.0000 
     33 O          53.6890   26.6270    2.1470 O.2       4 ALP1        0.0000 
     34 CA         49.9195   27.0350    3.0595 C.3       3 GLC5        0.0000 
     35 CA         50.2000   25.4940    4.6090 C.3       9 GLL5        0.0000 
     36 CA         49.6390   28.5760    1.5100 C.3       6 GLP5        0.0000 
     37 CA         48.5710   24.1865    2.4155 C.3       3 GLC5        0.0000 
     38 CA         49.0140   24.8240    4.3060 C.3       9 GLL5        0.0000 
     39 CA         48.1280   23.5490    0.5250 C.3       6 GLP5        0.0000 
     40 CA         53.6735   24.5230    0.3820 C.3       3 GLC5        0.0000 
     41 CA         53.0020   23.2400    1.9740 C.3       9 GLL5        0.0000 
     42 CA         54.3450   25.8060   -1.2100 C.3       6 GLP5        0.0000 
     43 O          55.0460   22.6665    1.0185 O.2       1 ALC1        0.0000 
     44 O          53.8160   22.1940    1.3720 O.2       7 ALL1        0.0000 
     45 O          56.2760   23.1390    0.6650 O.2       4 ALP1        0.0000 
     46 CA         51.9195   18.0150    1.4135 C.3       3 GLC5        0.0000 
     47 CA         54.1180   17.8190    1.6870 C.3       9 GLL5        0.0000 
     48 CA         49.7210   18.2110    1.1400 C.3       6 GLP5        0.0000 
     49 CA         53.6880   17.7580    3.7265 C.3       3 GLC5        0.0000 
     50 CA         53.2580   17.6970    5.7660 C.3       6 GLP5        0.0000 
     51 CA         53.9315   15.6955    2.0040 C.3       3 GLC5        0.0000 
     52 CA         53.7450   13.5720    2.3210 C.3       6 GLP5        0.0000 
     53 CA         57.5725   19.7450    1.7265 C.3       3 GLC5        0.0000 
     54 CA         56.2290   18.4800    0.6270 C.3       9 GLL5        0.0000 
     55 CA         58.9160   21.0100    2.8260 C.3       6 GLP5        0.0000 
     56 CA         57.1765   16.9225    0.8875 C.3       3 GLC5        0.0000 
     57 CA         58.1240   15.3650    1.1480 C.3       6 GLP5        0.0000 
     58 CA         54.3265   18.6965    4.2215 C.3       3 GLC5        0.0000 
     59 CA         55.3950   19.6960    2.6770 C.3       9 GLL5        0.0000 
     60 CA         57.1555   20.3530    2.7515 C.3       3 GLC5        0.0000 
     61 CA         55.7820   19.4220    4.3765 C.3       3 GLC5        0.0000 
     62 N          55.2315   22.6560   -3.0850 N.am      2 SEC2        0.0000 
     63 N          54.4620   21.3520   -2.5570 N.am      8 SEL2        0.0000 
     64 N          56.0010   23.9600   -3.6130 N.am      5 SEP2        0.0000 
     65 O          51.3380   19.8920   -1.9425 O.2       1 ALC1        0.0000 
     66 O          52.2540   20.8780   -2.3260 O.2       7 ALL1        0.0000 
     67 O          50.4220   18.9060   -1.5590 O.2       4 ALP1        0.0000 
     68 CA         51.8730   22.8680   -5.7160 C.3       3 GLC5        0.0000 
     69 CA         51.3430   21.1730   -4.5400 C.3       9 GLL5        0.0000 
     70 CA         52.4030   24.5630   -6.8920 C.3       6 GLP5        0.0000 
     71 CA         52.7595   24.7115   -1.3685 C.3       3 GLC5        0.0000 
     72 CA         51.1740   23.6170   -1.5270 C.3       9 GLL5        0.0000 
     73 CA         51.3565   25.3980   -1.3250 C.3       3 GLC5        0.0000 
     74 CA         51.5390   27.1790   -1.1230 C.3       6 GLP5        0.0000 
     75 CA         46.3100   27.3845    8.2788 C.3       3 GLC5        0.0000 
     76 CA         46.4930   25.6790    9.4010 C.3       9 GLL5        0.0000 
     77 CA         45.6380   28.6340    6.9640 C.3       6 GLP5        0.0000 
     78 CA         45.1470   27.0667    8.1850 C.3       3 GLC5        0.0000 
     79 CA         44.4021   24.7213    6.9965 C.3       3 GLC5        0.0000 
     80 CA         44.1780   25.0330    9.2070 C.3       9 GLL5        0.0000 
     81 CA         43.6620   25.4300    5.3340 C.3       6 GLP5        0.0000 
     82 CA         52.4195   19.7713    7.1552 C.3       3 GLC5        0.0000 
     83 CA         51.8590   18.3250    5.7510 C.3       6 GLP5        0.0000 
     84 CA         48.2250   22.9932    5.1715 C.3       3 GLC5        0.0000 
     85 CA         50.5945   28.2920    5.5650 C.3       3 GLC5        0.0000 
     86 CA         50.1550   26.4840    5.5930 C.3       9 GLL5        0.0000 
     87 CA         51.6240   29.9410    5.1980 C.3       6 GLP5        0.0000 
     88 CA         45.7330   25.5450    5.3900 C.3       3 GLC5        0.0000 
     89 CA         47.7900   26.1530    5.9400 C.3       9 GLL5        0.0000 
     90 CA         47.0102   27.5557    6.5347 C.3       3 GLC5        0.0000 
     91 CA         49.8573   20.5998   -5.6145 C.3       3 GLC5        0.0000 
     92 CA         47.9970   20.6730   -6.4730 C.3       6 GLP5        0.0000 
     93 CA         49.5625   23.3708   -0.8142 C.3       3 GLC5        0.0000 
     94 CA         50.8200   22.7680   -2.7800 C.3       9 GLL5        0.0000 
@<TRIPOS>BOND
@<TRIPOS>SUBSTRUCTURE
     1 ALC1       10 GROUP        1 X    ALC  0     ROOT ALC X 1
     2 SEC2        1 GROUP        1 X    SEC  0     **** SEC X 2
     3 GLC5        4 GROUP        1 X    GLC  0     **** GLC X 6
     4 ALP1       12 GROUP        1 Y    ALP  0     ROOT ALP Y 8
     5 SEP2        3 GROUP        1 Y    SEP  0     **** SEP Y 9
     6 GLP5        6 GROUP        1 Y    GLP  0     **** GLP Y 13
     7 ALL1       11 GROUP        1 Z    ALL  0     ROOT ALL Z 15
     8 SEL2        2 GROUP        1 Z    SEL  0     **** SEL Z 16
     9 GLL5        5 GROUP        1 Z    GLL  0     **** GLL Z 20
@<TRIPOS>SET

