#    Name: 1jld_0PP_1_ligand
#    Modification time : Tue Mar 25 09:02:48 2014

@<TRIPOS>MOLECULE
1jld_0PP_1_ligand
   99   101     1     0     0
SMALL
NO_CHARGES


@<TRIPOS>ATOM
      1 C          50.5590   24.7130    8.9000 C.2       1 0PP100      0.0000 
      2 O          51.4700   25.4350    9.3670 O.2       1 0PP100      0.0000 
      3 N1         48.1710   24.2520    8.6240 N.ar      1 0PP100      0.0000 
      4 C2         49.1780   25.0630    9.0140 C.ar      1 0PP100      0.0000 
      5 C3         48.7950   26.2640    9.6010 C.ar      1 0PP100      0.0000 
      6 C4         47.4710   26.5910    9.7860 C.ar      1 0PP100      0.0000 
      7 C5         45.1340   25.9660    9.6050 C.ar      1 0PP100      0.0000 
      8 C6         44.1780   25.0330    9.2070 C.ar      1 0PP100      0.0000 
      9 C7         44.5670   23.8590    8.5830 C.ar      1 0PP100      0.0000 
     10 C8         45.9120   23.5790    8.4230 C.ar      1 0PP100      0.0000 
     11 C4A        46.4930   25.6790    9.4010 C.ar      1 0PP100      0.0000 
     12 C8A        46.8650   24.4980    8.8280 C.ar      1 0PP100      0.0000 
     13 N          50.8130   23.5560    8.2440 N.am      1 0PP100      0.0000 
     14 CA         52.0030   22.8000    7.8570 C.3       1 0PP100      0.0000 
     15 C1         51.9010   22.5860    6.3820 C.2       1 0PP100      0.0000 
     16 O1         51.5660   21.5230    5.8780 O.2       1 0PP100      0.0000 
     17 CB         52.2940   21.5030    8.6990 C.3       1 0PP100      0.0000 
     18 OG1        52.2630   21.7830   10.0830 O.3       1 0PP100      0.0000 
     19 CG2        53.6660   20.9320    8.4200 C.3       1 0PP100      0.0000 
     20 N2         52.1260   23.6900    5.6800 N.am      1 0PP100      0.0000 
     21 CA1        51.9530   23.7360    4.2490 C.3       1 0PP100      0.0000 
     22 C9         53.1780   23.2420    3.4810 C.3       1 0PP100      0.0000 
     23 OXT        54.2820   24.0700    3.7580 O.3       1 0PP100      0.0000 
     24 CB1        51.4800   25.1470    3.9090 C.3       1 0PP100      0.0000 
     25 CG         50.2000   25.4940    4.6090 C.ar      1 0PP100      0.0000 
     26 CD1        49.0140   24.8240    4.3060 C.ar      1 0PP100      0.0000 
     27 CD2        50.1550   26.4840    5.5930 C.ar      1 0PP100      0.0000 
     28 CE1        47.8180   25.1670    4.9520 C.ar      1 0PP100      0.0000 
     29 CE2        48.9750   26.8020    6.2710 C.ar      1 0PP100      0.0000 
     30 CZ         47.7900   26.1530    5.9400 C.ar      1 0PP100      0.0000 
     31 CM         53.0020   23.2400    1.9740 C.3       1 0PP100      0.0000 
     32 N'         53.8160   22.1940    1.3720 N.am      1 0PP100      0.0000 
     33 C'         53.3310   21.0160    1.0390 C.2       1 0PP100      0.0000 
     34 O'         52.1730   20.6780    1.2170 O.2       1 0PP100      0.0000 
     35 C2'        54.3530   20.0750    0.4120 C.3       1 0PP100      0.0000 
     36 CT1        55.0150   19.0140    1.3740 C.3       1 0PP100      0.0000 
     37 CT2        54.1180   17.8190    1.6870 C.3       1 0PP100      0.0000 
     38 CT3        56.2290   18.4800    0.6270 C.3       1 0PP100      0.0000 
     39 CT4        55.3950   19.6960    2.6770 C.3       1 0PP100      0.0000 
     40 C1'        53.7680   19.5300   -0.9070 C.3       1 0PP100      0.0000 
     41 CC         53.5070   20.6100   -1.9390 C.2       1 0PP100      0.0000 
     42 O2         54.4620   21.3520   -2.5570 O.2       1 0PP100      0.0000 
     43 N3         52.2540   20.8780   -2.3260 N.am      1 0PP100      0.0000 
     44 C31        51.9150   21.8640   -3.3120 C.3       1 0PP100      0.0000 
     45 C41        51.3430   21.1730   -4.5400 C.3       1 0PP100      0.0000 
     46 C51        52.0920   19.8800   -4.9720 C.3       1 0PP100      0.0000 
     47 C21        50.8200   22.7680   -2.7800 C.3       1 0PP100      0.0000 
     48 C11        51.1740   23.6170   -1.5270 C.3       1 0PP100      0.0000 
     49 H          49.5361   26.9313    9.9074 H         1 0PP100      0.0000 
     50 H          47.2031   27.4876   10.1990 H         1 0PP100      0.0000 
     51 H          44.8552   26.8450   10.0382 H         1 0PP100      0.0000 
     52 H          43.1798   25.2206    9.3792 H         1 0PP100      0.0000 
     53 H          43.8570   23.1981    8.2400 H         1 0PP100      0.0000 
     54 H          46.2059   22.6850    8.0017 H         1 0PP100      0.0000 
     55 H          49.8761   23.0056    7.8889 H         1 0PP100      0.0000 
     56 H          52.8900   23.4786    8.0111 H         1 0PP100      0.0000 
     57 H          51.5558   20.7642    8.4331 H         1 0PP100      0.0000 
     58 H          52.4397   24.5789    6.1332 H         1 0PP100      0.0000 
     59 H          51.1004   23.0579    3.9910 H         1 0PP100      0.0000 
     60 H          53.3885   22.2200    3.7934 H         1 0PP100      0.0000 
     61 H          51.3410   25.2197    2.8233 H         1 0PP100      0.0000 
     62 H          52.2641   25.8594    4.1940 H         1 0PP100      0.0000 
     63 H          49.0143   24.0720    3.6035 H         1 0PP100      0.0000 
     64 H          51.0265   27.0010    5.8289 H         1 0PP100      0.0000 
     65 H          46.9447   24.6809    4.6910 H         1 0PP100      0.0000 
     66 H          48.9858   27.5129    7.0107 H         1 0PP100      0.0000 
     67 H          46.9174   26.3909    6.4081 H         1 0PP100      0.0000 
     68 H          53.2876   24.2263    1.5909 H         1 0PP100      0.0000 
     69 H          51.9403   23.0864    1.7498 H         1 0PP100      0.0000 
     70 H          54.8251   22.4462    1.2205 H         1 0PP100      0.0000 
     71 H          55.2142   20.7605    0.0768 H         1 0PP100      0.0000 
     72 H          52.8296   19.0043   -0.6808 H         1 0PP100      0.0000 
     73 H          54.4686   18.7902   -1.3193 H         1 0PP100      0.0000 
     74 H          51.4384   20.3535   -1.9036 H         1 0PP100      0.0000 
     75 H          52.7427   22.4544   -3.6043 H         1 0PP100      0.0000 
     76 H          51.3510   21.8744   -5.3930 H         1 0PP100      0.0000 
     77 H          50.2863   20.9107   -4.3549 H         1 0PP100      0.0000 
     78 H          49.9250   22.1560   -2.5346 H         1 0PP100      0.0000 
     79 H          50.4964   23.4652   -3.5831 H         1 0PP100      0.0000 
     80 H          54.3913   21.5859    8.6355 H         1 0PP100      0.0000 
     81 H          53.8429   20.1094    8.9605 H         1 0PP100      0.0000 
     82 H          53.7749   20.6799    7.4584 H         1 0PP100      0.0000 
     83 H          54.5665   17.1685    2.2999 H         1 0PP100      0.0000 
     84 H          53.2665   18.0997    2.1298 H         1 0PP100      0.0000 
     85 H          53.8664   17.3167    0.8597 H         1 0PP100      0.0000 
     86 H          56.8817   19.2064    0.4118 H         1 0PP100      0.0000 
     87 H          56.7210   17.7926    1.1612 H         1 0PP100      0.0000 
     88 H          55.9728   18.0501   -0.2388 H         1 0PP100      0.0000 
     89 H          55.8213   19.0589    3.3191 H         1 0PP100      0.0000 
     90 H          56.0442   20.4423    2.5300 H         1 0PP100      0.0000 
     91 H          54.5982   20.0871    3.1376 H         1 0PP100      0.0000 
     92 H          53.0504   20.0619   -5.1919 H         1 0PP100      0.0000 
     93 H          52.0831   19.1872   -4.2510 H         1 0PP100      0.0000 
     94 H          51.6790   19.4648   -5.7826 H         1 0PP100      0.0000 
     95 H          51.4293   23.0426   -0.7492 H         1 0PP100      0.0000 
     96 H          51.9421   24.2333   -1.7009 H         1 0PP100      0.0000 
     97 H          50.4043   24.1836   -1.2328 H         1 0PP100      0.0000 
     98 H          52.0105   22.7486   10.1460 H         1 0PP100      0.0000 
     99 H          54.0989   24.9194    3.2631 H         1 0PP100      0.0000 
@<TRIPOS>BOND
     1    2    1 2    
     2    4    1 1    
     3   13    1 am   
     4    4    3 ar   
     5   12    3 ar   
     6    5    4 ar   
     7    6    5 ar   
     8   49    5 1    
     9   11    6 ar   
    10   50    6 1    
    11    8    7 ar   
    12   11    7 ar   
    13   51    7 1    
    14    9    8 ar   
    15   52    8 1    
    16   10    9 ar   
    17   53    9 1    
    18   12   10 ar   
    19   54   10 1    
    20   12   11 ar   
    21   14   13 1    
    22   55   13 1    
    23   15   14 1    
    24   17   14 1    
    25   56   14 1    
    26   16   15 2    
    27   20   15 am   
    28   18   17 1    
    29   19   17 1    
    30   57   17 1    
    31   98   18 1    
    32   80   19 1    
    33   81   19 1    
    34   82   19 1    
    35   21   20 1    
    36   58   20 1    
    37   22   21 1    
    38   24   21 1    
    39   59   21 1    
    40   23   22 1    
    41   31   22 1    
    42   60   22 1    
    43   99   23 1    
    44   25   24 1    
    45   61   24 1    
    46   62   24 1    
    47   26   25 ar   
    48   27   25 ar   
    49   28   26 ar   
    50   63   26 1    
    51   29   27 ar   
    52   64   27 1    
    53   30   28 ar   
    54   65   28 1    
    55   30   29 ar   
    56   66   29 1    
    57   67   30 1    
    58   32   31 1    
    59   68   31 1    
    60   69   31 1    
    61   33   32 am   
    62   70   32 1    
    63   34   33 2    
    64   35   33 1    
    65   36   35 1    
    66   40   35 1    
    67   71   35 1    
    68   37   36 1    
    69   38   36 1    
    70   39   36 1    
    71   83   37 1    
    72   84   37 1    
    73   85   37 1    
    74   86   38 1    
    75   87   38 1    
    76   88   38 1    
    77   89   39 1    
    78   90   39 1    
    79   91   39 1    
    80   41   40 1    
    81   72   40 1    
    82   73   40 1    
    83   42   41 2    
    84   43   41 am   
    85   44   43 1    
    86   74   43 1    
    87   45   44 1    
    88   47   44 1    
    89   75   44 1    
    90   46   45 1    
    91   76   45 1    
    92   77   45 1    
    93   92   46 1    
    94   93   46 1    
    95   94   46 1    
    96   48   47 1    
    97   78   47 1    
    98   79   47 1    
    99   95   48 1    
   100   96   48 1    
   101   97   48 1    
@<TRIPOS>SUBSTRUCTURE
     1 0PP100      1 GROUP   
@<TRIPOS>SET

