#    Name: 3wbg_2AN_4_INTS_M
#    Modification time : Tue Mar 25 02:28:09 2014

@<TRIPOS>MOLECULE
3wbg_2AN_4_INTS_M
   48     0     6     0     0
SMALL
NO_CHARGES


@<TRIPOS>ATOM
      1 CA         65.3345   16.5965   11.9255 C.3       2 GLC5        0.0000 
      2 CA         63.6780   17.7790   12.6340 C.3       6 GLL5        0.0000 
      3 CA         66.9910   15.4140   11.2170 C.3       4 GLP5        0.0000 
      4 CA         64.2180   15.8410   11.0450 C.3       2 GLC5        0.0000 
      5 CA         62.6720   17.1330   11.9140 C.3       6 GLL5        0.0000 
      6 CA         65.7640   14.5490   10.1760 C.3       4 GLP5        0.0000 
      7 CA         63.5740   17.4085    9.8790 C.3       2 GLC5        0.0000 
      8 CA         64.4760   17.6840    7.8440 C.3       4 GLP5        0.0000 
      9 CA         60.5865   15.3550    9.8355 C.3       2 GLC5        0.0000 
     10 CA         60.6810   15.8040   11.8090 C.3       6 GLL5        0.0000 
     11 CA         60.4920   14.9060    7.8620 C.3       4 GLP5        0.0000 
     12 CA         67.3075   17.3180   16.5045 C.3       2 GLC5        0.0000 
     13 CA         65.7970   17.4970   17.7960 C.3       6 GLL5        0.0000 
     14 CA         68.8180   17.1390   15.2130 C.3       4 GLP5        0.0000 
     15 CA         66.3370   17.1315   15.5175 C.3       2 GLC5        0.0000 
     16 CA         64.8710   17.0050   16.8930 C.3       6 GLL5        0.0000 
     17 CA         67.8030   17.2580   14.1420 C.3       4 GLP5        0.0000 
     18 N          63.0555   13.8500   17.2485 N.am      1 SEC2        0.0000 
     19 N          61.6970   14.7950   16.7960 N.am      5 SEL2        0.0000 
     20 N          64.4140   12.9050   17.7010 N.am      3 SEP2        0.0000 
     21 CA         65.7412   17.4958   13.7327 C.3       2 GLC5        0.0000 
     22 CA         63.6810   17.6880   14.0130 C.3       6 GLL5        0.0000 
     23 CA         62.2540   18.9581   14.0806 C.3       2 GLC5        0.0000 
     24 CA         61.0800   20.3560   14.6690 C.3       4 GLP5        0.0000 
     25 CA         62.8275   18.8725   10.9860 C.3       2 GLC5        0.0000 
     26 CA         62.4800   20.2890    9.6980 C.3       4 GLP5        0.0000 
     27 CA         61.3700   18.3712   13.9748 C.3       2 GLC5        0.0000 
     28 CA         61.6650   16.4410   12.5810 C.3       6 GLL5        0.0000 
     29 CA         57.6310   14.3542   13.2855 C.3       2 GLC5        0.0000 
     30 CA         59.6540   15.0040   13.8040 C.3       6 GLL5        0.0000 
     31 CA         55.6020   13.6680   13.4620 C.3       4 GLP5        0.0000 
     32 CA         58.9345   13.0488   13.1145 C.3       2 GLC5        0.0000 
     33 CA         58.2090   11.0570   13.1200 C.3       4 GLP5        0.0000 
     34 CA         62.2160   19.1300   16.0190 C.3       2 GLC5        0.0000 
     35 CA         63.5570   17.4420   16.9010 C.3       6 GLL5        0.0000 
     36 CA         63.3975   17.4462   19.9413 C.3       2 GLC5        0.0000 
     37 CA         63.1470   18.3660   17.8370 C.3       6 GLL5        0.0000 
     38 CA         63.1900   16.2690   21.5920 C.3       4 GLP5        0.0000 
     39 CA         61.7475   18.4507   19.2252 C.3       2 GLC5        0.0000 
     40 CA         64.0630   18.8810   18.7440 C.3       6 GLL5        0.0000 
     41 CA         59.8900   18.2780   20.1600 C.3       4 GLP5        0.0000 
     42 CA         64.9677   19.2972   20.4198 C.3       2 GLC5        0.0000 
     43 CA         65.2110   19.9330   22.1020 C.3       4 GLP5        0.0000 
     44 CA         67.4647   17.7003   19.1852 C.3       2 GLC5        0.0000 
     45 CA         65.3860   18.4420   18.7310 C.3       6 GLL5        0.0000 
     46 CA         69.3380   17.4310   20.1070 C.3       4 GLP5        0.0000 
     47 CA         65.2878   16.4488   19.6253 C.3       2 GLC5        0.0000 
     48 CA         64.9840   14.9280   20.9870 C.3       4 GLP5        0.0000 
@<TRIPOS>BOND
@<TRIPOS>SUBSTRUCTURE
     1 SEC2       18 GROUP        1 X    SEC  0     ROOT SEC X 2
     2 GLC5        1 GROUP        1 X    GLC  0     **** GLC X 6
     3 SEP2       20 GROUP        1 Y    SEP  0     ROOT SEP Y 9
     4 GLP5        3 GROUP        1 Y    GLP  0     **** GLP Y 13
     5 SEL2       19 GROUP        1 Z    SEL  0     ROOT SEL Z 16
     6 GLL5        2 GROUP        1 Z    GLL  0     **** GLL Z 20
@<TRIPOS>SET

