#    Name: 3wbg_2AN_4_ligand
#    Modification time : Tue Mar 25 02:28:09 2014

@<TRIPOS>MOLECULE
3wbg_2AN_4_ligand
   33    35     1     0     0
SMALL
NO_CHARGES


@<TRIPOS>ATOM
      1 C1         62.6750   16.9950   14.6880 C.ar      1 2AN201      0.0000 
      2 C2         63.6810   17.6880   14.0130 C.ar      1 2AN201      0.0000 
      3 C3         63.6780   17.7790   12.6340 C.ar      1 2AN201      0.0000 
      4 C4         62.6720   17.1330   11.9140 C.ar      1 2AN201      0.0000 
      5 C5         61.6650   16.4410   12.5810 C.ar      1 2AN201      0.0000 
      6 C6         60.6810   15.8040   11.8090 C.ar      1 2AN201      0.0000 
      7 C7         59.6660   15.0770   12.4140 C.ar      1 2AN201      0.0000 
      8 C8         59.6540   15.0040   13.8040 C.ar      1 2AN201      0.0000 
      9 N          62.6610   16.9350   16.0450 N.pl3     1 2AN201      0.0000 
     10 S          60.4390   15.3470   16.2200 S.o2      1 2AN201      0.0000 
     11 C9         60.6220   15.5970   14.6070 C.ar      1 2AN201      0.0000 
     12 C10        61.6550   16.3320   13.9800 C.ar      1 2AN201      0.0000 
     13 C11        63.5570   17.4420   16.9010 C.ar      1 2AN201      0.0000 
     14 C12        63.1470   18.3660   17.8370 C.ar      1 2AN201      0.0000 
     15 C13        64.0630   18.8810   18.7440 C.ar      1 2AN201      0.0000 
     16 C14        65.3860   18.4420   18.7310 C.ar      1 2AN201      0.0000 
     17 C15        65.7970   17.4970   17.7960 C.ar      1 2AN201      0.0000 
     18 C16        64.8710   17.0050   16.8930 C.ar      1 2AN201      0.0000 
     19 O1         61.6970   14.7950   16.7960 O.co2     1 2AN201      0.0000 
     20 O2         59.9230   16.5430   16.8850 O.co2     1 2AN201      0.0000 
     21 O3         59.4220   14.2730   16.4040 O.co2     1 2AN201      0.0000 
     22 H          64.4373   18.1380   14.5582 H         1 2AN201      0.0000 
     23 H          64.3998   18.3106   12.1424 H         1 2AN201      0.0000 
     24 H          62.6760   17.1693   10.8854 H         1 2AN201      0.0000 
     25 H          60.7191   15.8815   10.7809 H         1 2AN201      0.0000 
     26 H          58.9531   14.6119   11.8620 H         1 2AN201      0.0000 
     27 H          58.8744   14.4743   14.2691 H         1 2AN201      0.0000 
     28 H          61.8079   16.4046   16.4868 H         1 2AN201      0.0000 
     29 H          62.1662   18.6763   17.8675 H         1 2AN201      0.0000 
     30 H          63.7668   19.5897   19.4297 H         1 2AN201      0.0000 
     31 H          66.0573   18.8172   19.4128 H         1 2AN201      0.0000 
     32 H          66.7657   17.1745   17.7793 H         1 2AN201      0.0000 
     33 H          65.1670   16.2939   16.1953 H         1 2AN201      0.0000 
@<TRIPOS>BOND
     1    2    1 ar   
     2    9    1 1    
     3   12    1 ar   
     4    3    2 ar   
     5   22    2 1    
     6    4    3 ar   
     7   23    3 1    
     8    5    4 ar   
     9   24    4 1    
    10    6    5 ar   
    11   12    5 ar   
    12    7    6 ar   
    13   25    6 1    
    14    8    7 ar   
    15   26    7 1    
    16   11    8 ar   
    17   27    8 1    
    18   13    9 1    
    19   28    9 1    
    20   11   10 1    
    21   19   10 ar   
    22   20   10 ar   
    23   21   10 ar   
    24   12   11 ar   
    25   14   13 ar   
    26   18   13 ar   
    27   15   14 ar   
    28   29   14 1    
    29   16   15 ar   
    30   30   15 1    
    31   17   16 ar   
    32   31   16 1    
    33   18   17 ar   
    34   32   17 1    
    35   33   18 1    
@<TRIPOS>SUBSTRUCTURE
     1 2AN201      1 GROUP   
@<TRIPOS>SET

