#    Name: 4mk9_28R_1_INTS_M
#    Modification time : Tue Mar 25 12:12:49 2014

@<TRIPOS>MOLECULE
4mk9_28R_1_INTS_M
   70     0     9     0     0
SMALL
NO_CHARGES


@<TRIPOS>ATOM
      1 CA         -7.0750   11.3520   10.1020 C.3       3 GLC5        0.0000 
      2 CA         -7.4200    9.5070   10.9100 C.3       9 GLL5        0.0000 
      3 CA         -6.7300   13.1970    9.2940 C.3       6 GLP5        0.0000 
      4 O          -9.8355   10.9730    2.3540 O.2       1 ALC1        0.0000 
      5 O          -9.7940    9.7460    3.0140 O.2       7 ALL1        0.0000 
      6 O          -9.8770   12.2000    1.6940 O.2       4 ALP1        0.0000 
      7 N         -10.4070    8.7700   -0.7020 N.am      2 SEC2        0.0000 
      8 N         -10.1610    8.7790    0.7930 N.am      8 SEL2        0.0000 
      9 N         -10.6530    8.7610   -2.1970 N.am      5 SEP2        0.0000 
     10 N          -8.9010    9.9280    0.5930 N.am      2 SEC2        0.0000 
     11 N          -7.6410   11.0770    0.3930 N.am      5 SEP2        0.0000 
     12 CA        -12.3600    6.7460    3.1165 C.3       3 GLC5        0.0000 
     13 CA        -12.0860    8.4140    2.4700 C.3       9 GLL5        0.0000 
     14 CA        -12.6340    5.0780    3.7630 C.3       6 GLP5        0.0000 
     15 CA         -6.0445    7.8105    7.8805 C.3       3 GLC5        0.0000 
     16 CA         -5.5410    9.2000    9.4160 C.3       9 GLL5        0.0000 
     17 CA         -6.5480    6.4210    6.3450 C.3       6 GLP5        0.0000 
     18 CA         -5.1165    9.5505    7.3290 C.3       3 GLC5        0.0000 
     19 CA         -4.6920    9.9010    5.2420 C.3       6 GLP5        0.0000 
     20 CA         -5.6370   10.8730    8.6670 C.3       3 GLC5        0.0000 
     21 CA         -5.7330   12.5460    7.9180 C.3       6 GLP5        0.0000 
     22 CA         -5.8680    7.6160   10.2330 C.3       3 GLC5        0.0000 
     23 CA         -6.1950    6.0320   11.0500 C.3       6 GLP5        0.0000 
     24 CA         -5.5380    8.7150   15.7620 C.3       3 GLC5        0.0000 
     25 CA         -6.5750   10.1610   14.6830 C.3       9 GLL5        0.0000 
     26 CA         -4.5010    7.2690   16.8410 C.3       6 GLP5        0.0000 
     27 CA         -4.6345   11.0920   14.9830 C.3       3 GLC5        0.0000 
     28 CA         -2.6940   12.0230   15.2830 C.3       6 GLP5        0.0000 
     29 CA         -6.8270    8.0375   14.5980 C.3       3 GLC5        0.0000 
     30 CA         -7.0790    5.9140   14.5130 C.3       6 GLP5        0.0000 
     31 CA         -7.9105   11.2070   15.4915 C.3       3 GLC5        0.0000 
     32 CA         -9.2460   12.2530   16.3000 C.3       6 GLP5        0.0000 
     33 CA         -3.6160    8.7500   14.6355 C.3       3 GLC5        0.0000 
     34 CA         -4.9060    9.3910   13.0330 C.3       9 GLL5        0.0000 
     35 CA         -2.3260    8.1090   16.2380 C.3       6 GLP5        0.0000 
     36 CA         -3.3635   10.3240   12.4515 C.3       3 GLC5        0.0000 
     37 CA         -1.8210   11.2570   11.8700 C.3       6 GLP5        0.0000 
     38 CA         -3.8000   10.7070   14.1580 C.3       3 GLC5        0.0000 
     39 CA         -5.9925    7.6525   13.7730 C.3       3 GLC5        0.0000 
     40 CA         -5.5505    7.7115   12.0415 C.3       3 GLC5        0.0000 
     41 CA         -3.9135   11.4490   12.3310 C.3       3 GLC5        0.0000 
     42 CA         -6.0060   11.6410   12.7920 C.3       9 GLL5        0.0000 
     43 CA         -6.3680   12.4190   11.0430 C.3       3 GLC5        0.0000 
     44 CA         -6.2255   13.4740   13.3225 C.3       3 GLC5        0.0000 
     45 CA         -6.4450   15.3070   13.8530 C.3       6 GLP5        0.0000 
     46 CA         -4.3500   11.8320   14.0375 C.3       3 GLC5        0.0000 
     47 N         -10.2605    4.5720   11.1760 N.am      2 SEC2        0.0000 
     48 N         -10.7430    5.7700   11.7620 N.am      8 SEL2        0.0000 
     49 N          -9.7780    3.3740   10.5900 N.am      5 SEP2        0.0000 
     50 O         -12.6565    4.6520   13.5005 O.2       1 ALC1        0.0000 
     51 O         -12.1100    5.9270   13.5810 O.2       7 ALL1        0.0000 
     52 O         -13.2030    3.3770   13.4200 O.2       4 ALP1        0.0000 
     53 CA        -13.3425    5.6320   16.1865 C.3       3 GLC5        0.0000 
     54 CA        -12.6440    6.5970   14.6370 C.3       9 GLL5        0.0000 
     55 CA        -14.0410    4.6670   17.7360 C.3       6 GLP5        0.0000 
     56 CA        -12.8040    8.0130   17.0520 C.3       3 GLC5        0.0000 
     57 CA        -12.2470    7.8610   14.9250 C.3       9 GLL5        0.0000 
     58 CA        -13.3610    8.1650   19.1790 C.3       6 GLP5        0.0000 
     59 CA         -7.6294    7.4979   13.5032 C.3       3 GLC5        0.0000 
     60 CA         -9.5240    8.3630   12.3170 C.3       9 GLL5        0.0000 
     61 CA         -6.6720   10.4262    5.8795 C.3       3 GLC5        0.0000 
     62 CA         -8.7080   10.4440    6.9790 C.3       9 GLL5        0.0000 
     63 CA         -7.1925   11.7488    7.2175 C.3       3 GLC5        0.0000 
     64 CA         -8.5960   11.4590    6.0550 C.3       9 GLL5        0.0000 
     65 CA         -7.6210   12.5252    4.8927 C.3       3 GLC5        0.0000 
     66 CA         -6.4460   13.7290    4.3790 C.3       6 GLP5        0.0000 
     67 CA        -10.0855    7.0555   14.9372 C.3       3 GLC5        0.0000 
     68 CA        -10.6580    7.7790   13.0800 C.3       9 GLL5        0.0000 
     69 CA         -9.2280    5.9950   16.2660 C.3       6 GLP5        0.0000 
     70 CA        -10.8368    6.6120   15.5235 C.3       3 GLC5        0.0000 
@<TRIPOS>BOND
@<TRIPOS>SUBSTRUCTURE
     1 ALC1        4 GROUP        1 X    ALC  0     ROOT ALC X 1
     2 SEC2        7 GROUP        1 X    SEC  0     **** SEC X 2
     3 GLC5        1 GROUP        1 X    GLC  0     **** GLC X 6
     4 ALP1        6 GROUP        1 Y    ALP  0     ROOT ALP Y 8
     5 SEP2        9 GROUP        1 Y    SEP  0     **** SEP Y 9
     6 GLP5        3 GROUP        1 Y    GLP  0     **** GLP Y 13
     7 ALL1        5 GROUP        1 Z    ALL  0     ROOT ALL Z 15
     8 SEL2        8 GROUP        1 Z    SEL  0     **** SEL Z 16
     9 GLL5        2 GROUP        1 Z    GLL  0     **** GLL Z 20
@<TRIPOS>SET

