#    Name: 4mk9_28R_1_ligand
#    Modification time : Tue Mar 25 12:12:49 2014

@<TRIPOS>MOLECULE
4mk9_28R_1_ligand
   58    61     1     0     0
SMALL
NO_CHARGES


@<TRIPOS>ATOM
      1 C1         -9.5240    8.3630   12.3170 C.ar      1 28R601      0.0000 
      2 C2         -8.4510    8.9320   12.9970 C.ar      1 28R601      0.0000 
      3 C3         -7.3720    9.5160   12.3300 C.ar      1 28R601      0.0000 
      4 C4         -7.4200    9.5070   10.9100 C.ar      1 28R601      0.0000 
      5 C5         -8.5160    8.9830   10.2010 C.ar      1 28R601      0.0000 
      6 C6         -9.5520    8.3870   10.9240 C.ar      1 28R601      0.0000 
      7 C7         -8.7160    9.2100    8.7610 C.2       1 28R601      0.0000 
      8 N8         -9.1980    8.4230    7.8470 N.2       1 28R601      0.0000 
      9 C9         -9.2040    9.1960    6.6790 C.ar      1 28R601      0.0000 
     10 C10        -8.7080   10.4440    6.9790 C.ar      1 28R601      0.0000 
     11 O11        -8.3840   10.4650    8.3200 O.3       1 28R601      0.0000 
     12 C12        -8.5960   11.4590    6.0550 C.ar      1 28R601      0.0000 
     13 C13        -8.9960   11.1840    4.7580 C.ar      1 28R601      0.0000 
     14 C14        -9.4850    9.9210    4.4050 C.ar      1 28R601      0.0000 
     15 C15        -9.6060    8.9070    5.3650 C.ar      1 28R601      0.0000 
     16 N16        -9.7940    9.7460    3.0140 N.pl3     1 28R601      0.0000 
     17 S17       -10.3630    8.4740    2.1760 S.o2      1 28R601      0.0000 
     18 O18       -10.1610    8.7790    0.7930 O.2       1 28R601      0.0000 
     19 O19        -9.7560    7.2950    2.7180 O.2       1 28R601      0.0000 
     20 C20       -12.0860    8.4140    2.4700 C.3       1 28R601      0.0000 
     21 O21        -6.3660   10.0640   10.2060 O.3       1 28R601      0.0000 
     22 C22        -5.5410    9.2000    9.4160 C.3       1 28R601      0.0000 
     23 C23        -6.2360   10.1610   13.1750 C.3       1 28R601      0.0000 
     24 C24        -6.5750   10.1610   14.6830 C.3       1 28R601      0.0000 
     25 C25        -4.9060    9.3910   13.0330 C.3       1 28R601      0.0000 
     26 C26        -6.0060   11.6410   12.7920 C.3       1 28R601      0.0000 
     27 C27       -10.6580    7.7790   13.0800 C.2       1 28R601      0.0000 
     28 C28       -11.1240    6.4360   12.7280 C.2       1 28R601      0.0000 
     29 O29       -10.7430    5.7700   11.7620 O.2       1 28R601      0.0000 
     30 N30       -12.1100    5.9270   13.5810 N.am      1 28R601      0.0000 
     31 C32       -12.6440    6.5970   14.6370 C.2       1 28R601      0.0000 
     32 C33       -12.2470    7.8610   14.9250 C.2       1 28R601      0.0000 
     33 C34       -11.2280    8.4530   14.1370 C.2       1 28R601      0.0000 
     34 H          -8.4510    8.9229   14.0397 H         1 28R601      0.0000 
     35 H         -10.3448    7.9609   10.4204 H         1 28R601      0.0000 
     36 H          -8.2362   12.3707    6.3099 H         1 28R601      0.0000 
     37 H          -8.9348   11.9205    4.0329 H         1 28R601      0.0000 
     38 H          -9.9702    7.9981    5.1209 H         1 28R601      0.0000 
     39 H          -9.6400   10.5822    2.3480 H         1 28R601      0.0000 
     40 H         -12.4574    4.9407   13.3746 H         1 28R601      0.0000 
     41 H         -13.3659    6.1325   15.2301 H         1 28R601      0.0000 
     42 H         -12.6568    8.4005   15.6896 H         1 28R601      0.0000 
     43 H         -10.9183    9.4119   14.3751 H         1 28R601      0.0000 
     44 H         -12.2932    8.3001    3.4416 H         1 28R601      0.0000 
     45 H         -12.5435    9.2507    2.1688 H         1 28R601      0.0000 
     46 H         -12.5189    7.6530    1.9868 H         1 28R601      0.0000 
     47 H          -4.8153    9.7048    8.9485 H         1 28R601      0.0000 
     48 H          -5.0976    8.4981    9.9734 H         1 28R601      0.0000 
     49 H          -6.0683    8.7250    8.7115 H         1 28R601      0.0000 
     50 H          -5.8444   10.5725   15.2279 H         1 28R601      0.0000 
     51 H          -7.4102   10.6760   14.8759 H         1 28R601      0.0000 
     52 H          -6.7147    9.2344   15.0322 H         1 28R601      0.0000 
     53 H          -4.1770    9.8053   13.5779 H         1 28R601      0.0000 
     54 H          -4.9928    8.4412   13.3335 H         1 28R601      0.0000 
     55 H          -4.5880    9.3706   12.0851 H         1 28R601      0.0000 
     56 H          -5.2732   12.0548   13.3322 H         1 28R601      0.0000 
     57 H          -5.7529   11.7406   11.8297 H         1 28R601      0.0000 
     58 H          -6.8261   12.1942   12.9381 H         1 28R601      0.0000 
@<TRIPOS>BOND
     1    2    1 ar   
     2    6    1 ar   
     3   27    1 1    
     4    3    2 ar   
     5   34    2 1    
     6    4    3 ar   
     7   23    3 1    
     8    5    4 ar   
     9   21    4 1    
    10    6    5 ar   
    11    7    5 1    
    12   35    6 1    
    13    8    7 2    
    14   11    7 1    
    15    9    8 1    
    16   10    9 ar   
    17   15    9 ar   
    18   11   10 1    
    19   12   10 ar   
    20   13   12 ar   
    21   36   12 1    
    22   14   13 ar   
    23   37   13 1    
    24   15   14 ar   
    25   16   14 1    
    26   38   15 1    
    27   17   16 1    
    28   39   16 1    
    29   18   17 2    
    30   19   17 2    
    31   20   17 1    
    32   44   20 1    
    33   45   20 1    
    34   46   20 1    
    35   22   21 1    
    36   47   22 1    
    37   48   22 1    
    38   49   22 1    
    39   24   23 1    
    40   25   23 1    
    41   26   23 1    
    42   50   24 1    
    43   51   24 1    
    44   52   24 1    
    45   53   25 1    
    46   54   25 1    
    47   55   25 1    
    48   56   26 1    
    49   57   26 1    
    50   58   26 1    
    51   28   27 1    
    52   33   27 2    
    53   29   28 2    
    54   30   28 am   
    55   31   30 1    
    56   40   30 1    
    57   32   31 2    
    58   41   31 1    
    59   33   32 1    
    60   42   32 1    
    61   43   33 1    
@<TRIPOS>SUBSTRUCTURE
     1 28R601      1 GROUP   
@<TRIPOS>SET

