#    Name: 3bea_IXH_1_INTS_M
#    Modification time : Mon Mar 24 19:19:49 2014

@<TRIPOS>MOLECULE
3bea_IXH_1_INTS_M
   78     0     9     0     0
SMALL
NO_CHARGES


@<TRIPOS>ATOM
      1 CA          4.8215   33.6725    8.3815 C.3       3 GLC5        0.0000 
      2 CA          2.9600   34.1300    8.1160 C.3       9 GLL5        0.0000 
      3 CA          6.6830   33.2150    8.6470 C.3       6 GLP5        0.0000 
      4 CA          3.0775   28.4600    7.3150 C.3       3 GLC5        0.0000 
      5 CA          4.7320   29.8660    7.4770 C.3       9 GLL5        0.0000 
      6 CA          1.4230   27.0540    7.1530 C.3       6 GLP5        0.0000 
      7 CA          4.0355   27.8075    8.8510 C.3       3 GLC5        0.0000 
      8 CA          5.1830   29.6120    8.8070 C.3       9 GLL5        0.0000 
      9 CA          2.8880   26.0030    8.8950 C.3       6 GLP5        0.0000 
     10 CA          4.7585   26.7505    8.7265 C.3       3 GLC5        0.0000 
     11 CA          6.6290   27.4980    8.5580 C.3       9 GLL5        0.0000 
     12 CA          8.2935   28.2225    9.4665 C.3       3 GLC5        0.0000 
     13 CA          9.9580   28.9470   10.3750 C.3       6 GLP5        0.0000 
     14 CA          8.0815   27.8815    7.4105 C.3       3 GLC5        0.0000 
     15 CA          9.5340   28.2650    6.2630 C.3       6 GLP5        0.0000 
     16 CA          9.8345   24.5500    8.0930 C.3       3 GLC5        0.0000 
     17 CA          7.8760   25.5360    8.5080 C.3       9 GLL5        0.0000 
     18 CA         11.7930   23.5640    7.6780 C.3       6 GLP5        0.0000 
     19 CA          7.9780   25.3070   10.4675 C.3       3 GLC5        0.0000 
     20 CA          8.0800   25.0780   12.4270 C.3       6 GLP5        0.0000 
     21 CA          9.5890   26.6735    9.2090 C.3       3 GLC5        0.0000 
     22 CA         11.3020   27.8110    9.9100 C.3       6 GLP5        0.0000 
     23 CA          5.4980   25.2655    3.0330 C.3       3 GLC5        0.0000 
     24 CA          6.9250   25.0020    4.4450 C.3       9 GLL5        0.0000 
     25 CA          4.0710   25.5290    1.6210 C.3       6 GLP5        0.0000 
     26 CA          3.5800   25.2580    4.6615 C.3       3 GLC5        0.0000 
     27 CA          4.2130   27.2460    4.6980 C.3       9 GLL5        0.0000 
     28 CA          2.9470   23.2700    4.6250 C.3       6 GLP5        0.0000 
     29 CA          1.7490   28.7415    2.5580 C.3       3 GLC5        0.0000 
     30 CA          3.4660   30.1210    2.1920 C.3       9 GLL5        0.0000 
     31 CA          0.0320   27.3620    2.9240 C.3       6 GLP5        0.0000 
     32 CA          3.9670   29.0190   -0.6700 C.3       3 GLC5        0.0000 
     33 CA          4.5360   30.2890    1.0980 C.3       9 GLL5        0.0000 
     34 CA          3.3980   27.7490   -2.4380 C.3       6 GLP5        0.0000 
     35 CA          7.4685   27.2210    1.9415 C.3       3 GLC5        0.0000 
     36 CA          6.2340   27.9480    3.4500 C.3       9 GLL5        0.0000 
     37 CA          8.7030   26.4940    0.4330 C.3       6 GLP5        0.0000 
     38 CA          5.1885   24.7935    6.2665 C.3       3 GLC5        0.0000 
     39 CA          6.7710   26.2820    6.5430 C.3       9 GLL5        0.0000 
     40 CA          3.6060   23.3050    5.9900 C.3       6 GLP5        0.0000 
     41 N           8.0375   26.9595   10.4350 N.am      2 SEC2        0.0000 
     42 N           7.4100   26.6090    9.2130 N.am      8 SEL2        0.0000 
     43 N           8.6650   27.3100   11.6570 N.am      5 SEP2        0.0000 
     44 O           6.7705   29.3385   10.2140 O.2       1 ALC1        0.0000 
     45 O           6.0860   28.6030    9.1810 O.2       7 ALL1        0.0000 
     46 O           7.4550   30.0740   11.2470 O.2       4 ALP1        0.0000 
     47 O           8.8220   21.4515    6.2290 O.2       1 ALC1        0.0000 
     48 O           8.9490   21.9600    4.5810 O.2       7 ALL1        0.0000 
     49 O           8.6950   20.9430    7.8770 O.2       4 ALP1        0.0000 
     50 N           8.7535   22.1300    7.4245 N.am      2 SEC2        0.0000 
     51 N           8.8120   23.3170    6.9720 N.am      8 SEL2        0.0000 
     52 N           8.6950   20.9430    7.8770 N.am      5 SEP2        0.0000 
     53 N           7.7850   21.6575    2.2665 N.am      2 SEC2        0.0000 
     54 N           7.8000   22.8600    2.8600 N.am      8 SEL2        0.0000 
     55 N           7.7700   20.4550    1.6730 N.am      5 SEP2        0.0000 
     56 CA          5.1052   32.2700    8.1813 C.3       3 GLC5        0.0000 
     57 CA          3.7950   30.9080    7.1950 C.3       9 GLL5        0.0000 
     58 CA          5.8202   31.4770    8.3945 C.3       3 GLC5        0.0000 
     59 CA          2.7480   29.3985    9.6075 C.3       3 GLC5        0.0000 
     60 CA          4.6570   30.4290    9.8370 C.3       9 GLL5        0.0000 
     61 CA          1.3060   27.8500    9.5160 C.3       6 GLP5        0.0000 
     62 CA          5.4365   32.0810    9.1730 C.3       3 GLC5        0.0000 
     63 CA          6.7775   24.1067    8.5435 C.3       3 GLC5        0.0000 
     64 CA          5.8240   22.7880    9.2530 C.3       6 GLP5        0.0000 
     65 CA          5.6055   23.5715    4.1485 C.3       3 GLC5        0.0000 
     66 CA          3.8910   22.6320    3.5980 C.3       6 GLP5        0.0000 
     67 CA          8.5525   25.0715    3.6050 C.3       3 GLC5        0.0000 
     68 CA          9.7850   25.6320    2.5110 C.3       6 GLP5        0.0000 
     69 CA          7.7305   27.8927    5.1043 C.3       3 GLC5        0.0000 
     70 CA          5.6200   27.0930    4.4410 C.3       9 GLL5        0.0000 
     71 CA          4.4937   26.3492    3.0953 C.3       3 GLC5        0.0000 
     72 CA          2.6235   27.3945    5.7502 C.3       3 GLC5        0.0000 
     73 CA          1.8920   27.9970    3.2210 C.3       3 GLC5        0.0000 
     74 CA          3.4350   28.2240    3.9970 C.3       9 GLL5        0.0000 
     75 CA          3.9115   27.0805    2.5695 C.3       3 GLC5        0.0000 
     76 CA          4.9565   26.9775    2.3647 C.3       3 GLC5        0.0000 
     77 CA          5.4500   28.9040    2.7670 C.3       9 GLL5        0.0000 
     78 CA          8.3925   27.0594    6.7257 C.3       3 GLC5        0.0000 
@<TRIPOS>BOND
@<TRIPOS>SUBSTRUCTURE
     1 ALC1       44 GROUP        1 X    ALC  0     ROOT ALC X 1
     2 SEC2       41 GROUP        1 X    SEC  0     **** SEC X 2
     3 GLC5        1 GROUP        1 X    GLC  0     **** GLC X 6
     4 ALP1       46 GROUP        1 Y    ALP  0     ROOT ALP Y 8
     5 SEP2       43 GROUP        1 Y    SEP  0     **** SEP Y 9
     6 GLP5        3 GROUP        1 Y    GLP  0     **** GLP Y 13
     7 ALL1       45 GROUP        1 Z    ALL  0     ROOT ALL Z 15
     8 SEL2       42 GROUP        1 Z    SEL  0     **** SEL Z 16
     9 GLL5        2 GROUP        1 Z    GLL  0     **** GLL Z 20
@<TRIPOS>SET

