#    Name: 3bea_IXH_1_ligand
#    Modification time : Mon Mar 24 19:19:49 2014

@<TRIPOS>MOLECULE
3bea_IXH_1_ligand
   68    73     1     0     0
SMALL
NO_CHARGES


@<TRIPOS>ATOM
      1 C1         -0.5690   33.6610    5.6790 C.3       1 IXH923      0.0000 
      2 C2          0.3430   33.7460    6.8970 C.3       1 IXH923      0.0000 
      3 C3          1.4550   32.6540    6.8310 C.3       1 IXH923      0.0000 
      4 C4          2.9600   34.1300    8.1160 C.3       1 IXH923      0.0000 
      5 C5          1.8420   35.2100    8.1720 C.3       1 IXH923      0.0000 
      6 C6          2.4490   36.6100    8.2460 C.3       1 IXH923      0.0000 
      7 C7          3.2600   31.7420    8.2360 C.ar      1 IXH923      0.0000 
      8 C8          3.7950   30.9080    7.1950 C.ar      1 IXH923      0.0000 
      9 C9          4.7320   29.8660    7.4770 C.ar      1 IXH923      0.0000 
     10 C10         5.1830   29.6120    8.8070 C.ar      1 IXH923      0.0000 
     11 C11         4.6570   30.4290    9.8370 C.ar      1 IXH923      0.0000 
     12 C12         3.7230   31.4650    9.5610 C.ar      1 IXH923      0.0000 
     13 C13         6.6290   27.4980    8.5580 C.ar      1 IXH923      0.0000 
     14 C14         7.8760   25.5360    8.5080 C.ar      1 IXH923      0.0000 
     15 C15         7.5860   25.3150    7.1600 C.ar      1 IXH923      0.0000 
     16 C16         8.0990   24.1450    6.4060 C.2       1 IXH923      0.0000 
     17 C17         7.7150   24.0200    4.9530 C.2       1 IXH923      0.0000 
     18 C18         6.9250   25.0020    4.4450 C.2       1 IXH923      0.0000 
     19 C19         5.6200   27.0930    4.4410 C.ar      1 IXH923      0.0000 
     20 C20         4.2130   27.2460    4.6980 C.ar      1 IXH923      0.0000 
     21 C21         3.4350   28.2240    3.9970 C.ar      1 IXH923      0.0000 
     22 C22         4.0690   29.0400    3.0390 C.ar      1 IXH923      0.0000 
     23 C23         3.4660   30.1210    2.1920 C.3       1 IXH923      0.0000 
     24 C24         4.5360   30.2890    1.0980 C.3       1 IXH923      0.0000 
     25 C25         5.8870   29.8780    1.7150 C.3       1 IXH923      0.0000 
     26 C26         5.4500   28.9040    2.7670 C.ar      1 IXH923      0.0000 
     27 C27         6.2340   27.9480    3.4500 C.ar      1 IXH923      0.0000 
     28 C28         6.7710   26.2820    6.5430 C.ar      1 IXH923      0.0000 
     29 C29         8.1400   22.9190    4.0410 C.2       1 IXH923      0.0000 
     30 N1          2.3280   32.7860    8.0300 N.3       1 IXH923      0.0000 
     31 N2          7.4100   26.6090    9.2130 N.ar      1 IXH923      0.0000 
     32 N3          6.4280   26.1280    5.1340 N.pl3     1 IXH923      0.0000 
     33 N4          6.3090   27.3510    7.2530 N.ar      1 IXH923      0.0000 
     34 N5          6.0860   28.6030    9.1810 N.pl3     1 IXH923      0.0000 
     35 N6          0.9400   35.1250    6.9740 N.4       1 IXH923      0.0000 
     36 N7          8.9490   21.9600    4.5810 N.am      1 IXH923      0.0000 
     37 O1          8.8120   23.3170    6.9720 O.2       1 IXH923      0.0000 
     38 O2          7.8000   22.8600    2.8600 O.2       1 IXH923      0.0000 
     39 H          -0.2498   33.5644    7.7831 H         1 IXH923      0.0000 
     40 H           2.0213   32.8069    5.9226 H         1 IXH923      0.0000 
     41 H           0.9733   31.6862    6.8091 H         1 IXH923      0.0000 
     42 H           3.5584   34.2178    9.0137 H         1 IXH923      0.0000 
     43 H           3.5726   34.3243    7.2450 H         1 IXH923      0.0000 
     44 H           1.2608   35.0439    9.0695 H         1 IXH923      0.0000 
     45 H           3.4951   31.0670    6.2271 H         1 IXH923      0.0000 
     46 H           5.0871   29.2893    6.7067 H         1 IXH923      0.0000 
     47 H           4.9564   30.2712   10.8097 H         1 IXH923      0.0000 
     48 H           3.3646   32.0389   10.3409 H         1 IXH923      0.0000 
     49 H           8.4891   24.8289    8.9970 H         1 IXH923      0.0000 
     50 H           6.6370   24.9307    3.4079 H         1 IXH923      0.0000 
     51 H           3.7634   26.6467    5.3918 H         1 IXH923      0.0000 
     52 H           2.4485   28.3186    4.1942 H         1 IXH923      0.0000 
     53 H           3.3821   31.0200    2.7356 H         1 IXH923      0.0000 
     54 H           2.5671   29.7933    1.7501 H         1 IXH923      0.0000 
     55 H           4.5799   31.3153    0.7954 H         1 IXH923      0.0000 
     56 H           4.3094   29.6435    0.2741 H         1 IXH923      0.0000 
     57 H           6.3393   30.7237    2.1509 H         1 IXH923      0.0000 
     58 H           6.4712   29.4000    0.9802 H         1 IXH923      0.0000 
     59 H           7.2242   27.8503    3.2567 H         1 IXH923      0.0000 
     60 H           6.4511   28.7343   10.2499 H         1 IXH923      0.0000 
     61 H           9.2096   21.2105    3.9725 H         1 IXH923      0.0000 
     62 H           9.2096   22.0917    5.5374 H         1 IXH923      0.0000 
     63 H          -0.0639   33.7963    4.8266 H         1 IXH923      0.0000 
     64 H          -1.0202   32.7709    5.6142 H         1 IXH923      0.0000 
     65 H          -1.2897   34.3537    5.7056 H         1 IXH923      0.0000 
     66 H           3.0199   36.7248    9.0589 H         1 IXH923      0.0000 
     67 H           3.0252   36.8074    7.4529 H         1 IXH923      0.0000 
     68 H           1.7445   37.3189    8.2801 H         1 IXH923      0.0000 
@<TRIPOS>BOND
     1    2    1 1    
     2   63    1 1    
     3   64    1 1    
     4   65    1 1    
     5    3    2 1    
     6   35    2 1    
     7   39    2 1    
     8   30    3 1    
     9   40    3 1    
    10   41    3 1    
    11    5    4 1    
    12   30    4 1    
    13   42    4 1    
    14   43    4 1    
    15    6    5 1    
    16   35    5 1    
    17   44    5 1    
    18   66    6 1    
    19   67    6 1    
    20   68    6 1    
    21    8    7 ar   
    22   12    7 ar   
    23   30    7 1    
    24    9    8 ar   
    25   45    8 1    
    26   10    9 ar   
    27   46    9 1    
    28   11   10 ar   
    29   34   10 1    
    30   12   11 ar   
    31   47   11 1    
    32   48   12 1    
    33   31   13 ar   
    34   33   13 ar   
    35   34   13 1    
    36   15   14 ar   
    37   31   14 ar   
    38   49   14 1    
    39   16   15 1    
    40   28   15 ar   
    41   17   16 1    
    42   37   16 2    
    43   18   17 2    
    44   29   17 1    
    45   32   18 1    
    46   50   18 1    
    47   20   19 ar   
    48   27   19 ar   
    49   32   19 1    
    50   21   20 ar   
    51   51   20 1    
    52   22   21 ar   
    53   52   21 1    
    54   23   22 1    
    55   26   22 ar   
    56   24   23 1    
    57   53   23 1    
    58   54   23 1    
    59   25   24 1    
    60   55   24 1    
    61   56   24 1    
    62   26   25 1    
    63   57   25 1    
    64   58   25 1    
    65   27   26 ar   
    66   59   27 1    
    67   32   28 1    
    68   33   28 ar   
    69   36   29 am   
    70   38   29 2    
    71   60   34 1    
    72   61   36 1    
    73   62   36 1    
@<TRIPOS>SUBSTRUCTURE
     1 IXH923      1 GROUP   
@<TRIPOS>SET

