#    Name: 3ogt_FMV_1_INTS_M
#    Modification time : Tue Mar 25 04:35:46 2014

@<TRIPOS>MOLECULE
3ogt_FMV_1_INTS_M
  118     0     9     0     0
SMALL
NO_CHARGES


@<TRIPOS>ATOM
      1 CA         14.3320   17.3810   37.6385 C.3       3 GLC5        0.0000 
      2 CA         14.1220   17.6080   35.7130 C.3       9 GLL5        0.0000 
      3 CA         14.5420   17.1540   39.5640 C.3       6 GLP5        0.0000 
      4 CA         15.5675   18.8130   36.5210 C.3       3 GLC5        0.0000 
      5 CA         17.0130   20.0180   37.3290 C.3       6 GLP5        0.0000 
      6 N          13.1115   15.6565   37.1890 N.am      2 SEC2        0.0000 
      7 N          13.0870   16.9600   36.4740 N.am      8 SEL2        0.0000 
      8 N          13.1360   14.3530   37.9040 N.am      5 SEP2        0.0000 
      9 O          11.8710   16.5710   35.9890 O.2       1 ALC1        0.0000 
     10 O          13.0870   16.9600   36.4740 O.2       7 ALL1        0.0000 
     11 O          10.6550   16.1820   35.5040 O.2       4 ALP1        0.0000 
     12 CA         13.1290   16.8385   33.2360 C.3       3 GLC5        0.0000 
     13 CA         14.7780   16.6280   34.7370 C.3       9 GLL5        0.0000 
     14 CA         11.4800   17.0490   31.7350 C.3       6 GLP5        0.0000 
     15 CA         17.0180   15.9155   33.2050 C.3       3 GLC5        0.0000 
     16 CA         15.8530   17.3230   33.8890 C.3       9 GLL5        0.0000 
     17 CA         18.1830   14.5080   32.5210 C.3       6 GLP5        0.0000 
     18 N          17.8175   16.8570   35.1535 N.am      2 SEC2        0.0000 
     19 N          16.8700   17.8570   34.7480 N.am      8 SEL2        0.0000 
     20 N          18.7650   15.8570   35.5590 N.am      5 SEP2        0.0000 
     21 O          17.7455   18.6730   34.0500 O.2       1 ALC1        0.0000 
     22 O          16.8700   17.8570   34.7480 O.2       7 ALL1        0.0000 
     23 O          18.6210   19.4890   33.3520 O.2       4 ALP1        0.0000 
     24 CA         14.7675   17.1035   31.4385 C.3       3 GLC5        0.0000 
     25 CA         15.2280   18.4430   33.0520 C.3       9 GLL5        0.0000 
     26 CA         14.3070   15.7640   29.8250 C.3       6 GLP5        0.0000 
     27 CA         13.3540   17.7460   32.3935 C.3       3 GLC5        0.0000 
     28 CA         15.2775   23.9300   34.1535 C.3       3 GLC5        0.0000 
     29 CA         13.4750   22.9890   33.8830 C.3       9 GLL5        0.0000 
     30 CA         17.0800   24.8710   34.4240 C.3       6 GLP5        0.0000 
     31 CA         15.5705   24.0305   32.7625 C.3       3 GLC5        0.0000 
     32 CA         13.9330   23.3980   32.4970 C.3       9 GLL5        0.0000 
     33 CA         17.2080   24.6630   33.0280 C.3       6 GLP5        0.0000 
     34 CA         12.5240   17.9090   33.3365 C.3       3 GLC5        0.0000 
     35 CA         13.5680   18.7690   34.9380 C.3       9 GLL5        0.0000 
     36 CA         11.5895   23.2700   30.2255 C.3       3 GLC5        0.0000 
     37 CA         12.7730   24.0390   31.7090 C.3       9 GLL5        0.0000 
     38 CA         10.4060   22.5010   28.7420 C.3       6 GLP5        0.0000 
     39 CA         14.8220   24.8725   31.9325 C.3       3 GLC5        0.0000 
     40 CA         16.8710   25.7060   32.1560 C.3       6 GLP5        0.0000 
     41 CA         10.8200   25.0135   30.5845 C.3       3 GLC5        0.0000 
     42 CA         12.0320   25.1580   32.4620 C.3       9 GLL5        0.0000 
     43 CA          9.6080   24.8690   28.7070 C.3       6 GLP5        0.0000 
     44 CA         14.7040   25.0960   34.7770 C.3       3 GLC5        0.0000 
     45 CA         12.7830   24.1130   34.5890 C.3       9 GLL5        0.0000 
     46 CA         16.6250   26.0790   34.9650 C.3       6 GLP5        0.0000 
     47 CA         11.9035   25.0675   38.3105 C.3       3 GLC5        0.0000 
     48 CA         11.2920   25.0010   36.2160 C.3       9 GLL5        0.0000 
     49 CA         12.5150   25.1340   40.4050 C.3       6 GLP5        0.0000 
     50 CA          9.1930   22.3420   34.0630 C.3       3 GLC5        0.0000 
     51 CA         10.6050   23.4390   33.6270 C.3       9 GLL5        0.0000 
     52 CA          7.7810   21.2450   34.4990 C.3       6 GLP5        0.0000 
     53 CA         11.5465   18.7925   33.3720 C.3       3 GLC5        0.0000 
     54 CA         12.3310   19.1980   35.1360 C.3       9 GLL5        0.0000 
     55 CA         10.7620   18.3870   31.6080 C.3       6 GLP5        0.0000 
     56 CA         11.0940   17.7000   35.9075 C.3       3 GLC5        0.0000 
     57 CA          9.8570   16.2020   36.6790 C.3       6 GLP5        0.0000 
     58 CA         11.6335   20.2605   36.7395 C.3       3 GLC5        0.0000 
     59 CA         10.9360   21.3230   38.3430 C.3       6 GLP5        0.0000 
     60 CA          8.1180   28.4340   34.2300 C.3       3 GLC5        0.0000 
     61 CA          9.7380   27.6800   35.1920 C.3       9 GLL5        0.0000 
     62 CA          6.4980   29.1880   33.2680 C.3       6 GLP5        0.0000 
     63 CA          9.2725   29.2095   36.1370 C.3       3 GLC5        0.0000 
     64 CA          8.8070   30.7390   37.0820 C.3       6 GLP5        0.0000 
     65 CA         11.7050   27.9335   35.8740 C.3       3 GLC5        0.0000 
     66 CA         13.6720   28.1870   36.5560 C.3       6 GLP5        0.0000 
     67 CA          7.5205   27.3895   34.1090 C.3       3 GLC5        0.0000 
     68 CA          8.5430   25.5910   34.9500 C.3       9 GLL5        0.0000 
     69 N           5.0660   27.4730   34.6100 N.am      2 SEC2        0.0000 
     70 N           4.4780   26.2360   34.9800 N.am      8 SEL2        0.0000 
     71 N           5.6540   28.7100   34.2400 N.am      5 SEP2        0.0000 
     72 N           4.8165   26.5105   36.3160 N.am      2 SEC2        0.0000 
     73 N           5.1550   26.7850   37.6520 N.am      5 SEP2        0.0000 
     74 CA          4.1940   25.3220   31.3010 C.3       3 GLC5        0.0000 
     75 CA          5.2520   25.3410   32.8540 C.3       9 GLL5        0.0000 
     76 CA          3.1360   25.3030   29.7480 C.3       6 GLP5        0.0000 
     77 CA          5.2415   22.1085   35.4425 C.3       3 GLC5        0.0000 
     78 CA          4.3910   23.8430   34.7200 C.3       9 GLL5        0.0000 
     79 CA          6.0920   20.3740   36.1650 C.3       6 GLP5        0.0000 
     80 CA          2.6045   22.7090   34.9865 C.3       3 GLC5        0.0000 
     81 CA          0.8180   21.5750   35.2530 C.3       6 GLP5        0.0000 
     82 CA          3.8680   23.1165   36.7410 C.3       3 GLC5        0.0000 
     83 CA          3.3450   22.3900   38.7620 C.3       6 GLP5        0.0000 
     84 CA         14.6813   15.9328   32.5955 C.3       3 GLC5        0.0000 
     85 CA         14.0470   14.8900   30.8780 C.3       6 GLP5        0.0000 
     86 CA         16.2097   16.0293   35.8355 C.3       3 GLC5        0.0000 
     87 CA         17.2680   14.8380   37.1140 C.3       6 GLP5        0.0000 
     88 CA         17.5813   18.2365   33.1833 C.3       3 GLC5        0.0000 
     89 CA         19.6220   18.5900   32.8960 C.3       6 GLP5        0.0000 
     90 CA         16.4372   17.9570   31.8198 C.3       3 GLC5        0.0000 
     91 CA         17.3340   18.0310   30.1690 C.3       6 GLP5        0.0000 
     92 CA         13.0390   19.7583   32.3960 C.3       3 GLC5        0.0000 
     93 CA         14.3940   19.3830   33.9010 C.3       9 GLL5        0.0000 
     94 CA         11.6760   19.4660   31.0170 C.3       6 GLP5        0.0000 
     95 CA         15.9320   22.0107   34.0592 C.3       3 GLC5        0.0000 
     96 CA         14.4100   20.7180   33.6490 C.3       9 GLL5        0.0000 
     97 CA         17.8180   22.7840   34.0960 C.3       6 GLP5        0.0000 
     98 CA         14.8297   21.7600   35.5072 C.3       3 GLC5        0.0000 
     99 CA         13.6820   21.7570   34.3960 C.3       9 GLL5        0.0000 
    100 CA         16.0810   21.1470   36.8750 C.3       6 GLP5        0.0000 
    101 CA         14.2725   23.7477   30.2220 C.3       3 GLC5        0.0000 
    102 CA         15.1920   23.7770   28.3410 C.3       6 GLP5        0.0000 
    103 CA         15.0330   20.2784   35.6158 C.3       3 GLC5        0.0000 
    104 CA         12.5317   26.4518   31.3678 C.3       3 GLC5        0.0000 
    105 CA         12.6610   28.3050   30.6500 C.3       6 GLP5        0.0000 
    106 CA         11.3663   22.8785   37.2293 C.3       3 GLC5        0.0000 
    107 CA         12.4385   26.7535   36.0390 C.3       3 GLC5        0.0000 
    108 CA         10.2193   28.1627   33.3160 C.3       3 GLC5        0.0000 
    109 CA         10.6820   29.3370   31.7680 C.3       6 GLP5        0.0000 
    110 CA          7.7462   24.4477   37.7302 C.3       3 GLC5        0.0000 
    111 CA          8.3570   24.7260   36.0250 C.3       9 GLL5        0.0000 
    112 CA          7.8130   24.3380   39.4660 C.3       6 GLP5        0.0000 
    113 CA          6.0205   27.2079   33.5010 C.3       3 GLC5        0.0000 
    114 CA          6.5330   25.1040   34.8680 C.3       9 GLL5        0.0000 
    115 CA          7.6949   23.0988   34.9754 C.3       3 GLC5        0.0000 
    116 CA          6.8404   26.3563   36.7079 C.3       3 GLC5        0.0000 
    117 CA          7.0020   24.3890   35.9640 C.3       9 GLL5        0.0000 
    118 CA          6.0720   27.7600   37.9640 C.3       6 GLP5        0.0000 
@<TRIPOS>BOND
@<TRIPOS>SUBSTRUCTURE
     1 ALC1        9 GROUP        1 X    ALC  0     ROOT ALC X 1
     2 SEC2        6 GROUP        1 X    SEC  0     **** SEC X 2
     3 GLC5        1 GROUP        1 X    GLC  0     **** GLC X 6
     4 ALP1       11 GROUP        1 Y    ALP  0     ROOT ALP Y 8
     5 SEP2        8 GROUP        1 Y    SEP  0     **** SEP Y 9
     6 GLP5        3 GROUP        1 Y    GLP  0     **** GLP Y 13
     7 ALL1       10 GROUP        1 Z    ALL  0     ROOT ALL Z 15
     8 SEL2        7 GROUP        1 Z    SEL  0     **** SEL Z 16
     9 GLL5        2 GROUP        1 Z    GLL  0     **** GLL Z 20
@<TRIPOS>SET

