#    Name: 3ogt_FMV_1_ligand
#    Modification time : Tue Mar 25 04:35:46 2014

@<TRIPOS>MOLECULE
3ogt_FMV_1_ligand
   70    73     1     0     0
SMALL
NO_CHARGES


@<TRIPOS>ATOM
      1 C1         14.1220   17.6080   35.7130 C.3       1 FMV1        0.0000 
      2 O1         13.0870   16.9600   36.4740 O.3       1 FMV1        0.0000 
      3 C2         14.7780   16.6280   34.7370 C.3       1 FMV1        0.0000 
      4 C3         15.8530   17.3230   33.8890 C.3       1 FMV1        0.0000 
      5 O3         16.8700   17.8570   34.7480 O.3       1 FMV1        0.0000 
      6 C4         15.2280   18.4430   33.0520 C.3       1 FMV1        0.0000 
      7 C5         14.3940   19.3830   33.9010 C.2       1 FMV1        0.0000 
      8 C6         14.4100   20.7180   33.6490 C.2       1 FMV1        0.0000 
      9 C7         13.6820   21.7570   34.3960 C.2       1 FMV1        0.0000 
     10 C8         13.4750   22.9890   33.8830 C.2       1 FMV1        0.0000 
     11 C9         13.9330   23.3980   32.4970 C.3       1 FMV1        0.0000 
     12 C10        13.5680   18.7690   34.9380 C.2       1 FMV1        0.0000 
     13 C11        12.7730   24.0390   31.7090 C.3       1 FMV1        0.0000 
     14 C12        12.0320   25.1580   32.4620 C.3       1 FMV1        0.0000 
     15 C13        11.5870   24.5970   33.8090 C.3       1 FMV1        0.0000 
     16 C14        12.7830   24.1130   34.5890 C.3       1 FMV1        0.0000 
     17 C15        12.3010   23.8670   36.0150 C.3       1 FMV1        0.0000 
     18 C16        11.2920   25.0010   36.2160 C.3       1 FMV1        0.0000 
     19 C17        11.1180   25.6390   34.8280 C.3       1 FMV1        0.0000 
     20 C18        10.6050   23.4390   33.6270 C.3       1 FMV1        0.0000 
     21 C19        12.3310   19.1980   35.1360 C.2       1 FMV1        0.0000 
     22 C20         9.7750   26.2970   34.5360 C.3       1 FMV1        0.0000 
     23 C21         9.7380   27.6800   35.1920 C.3       1 FMV1        0.0000 
     24 C22         8.5430   25.5910   34.9500 C.2       1 FMV1        0.0000 
     25 O22         7.4380   25.8660   34.2210 O.3       1 FMV1        0.0000 
     26 C23         8.3570   24.7260   36.0250 C.2       1 FMV1        0.0000 
     27 C24         7.0020   24.3890   35.9640 C.2       1 FMV1        0.0000 
     28 C25         6.5330   25.1040   34.8680 C.2       1 FMV1        0.0000 
     29 C26         5.1350   25.1250   34.3600 C.3       1 FMV1        0.0000 
     30 O26         4.4780   26.2360   34.9800 O.3       1 FMV1        0.0000 
     31 C27         5.2520   25.3410   32.8540 C.3       1 FMV1        0.0000 
     32 C28         4.3910   23.8430   34.7200 C.3       1 FMV1        0.0000 
     33 H          14.9051   17.9824   36.3699 H         1 FMV1        0.0000 
     34 H          14.0166   16.2138   34.0772 H         1 FMV1        0.0000 
     35 H          15.2374   15.8151   35.2981 H         1 FMV1        0.0000 
     36 H          16.2656   16.5879   33.2113 H         1 FMV1        0.0000 
     37 H          14.5989   17.9966   32.2764 H         1 FMV1        0.0000 
     38 H          16.0269   19.0064   32.5613 H         1 FMV1        0.0000 
     39 H          14.9949   21.0935   32.8388 H         1 FMV1        0.0000 
     40 H          13.3403   21.4851   35.3350 H         1 FMV1        0.0000 
     41 H          14.2849   22.5246   31.9527 H         1 FMV1        0.0000 
     42 H          14.7435   24.1192   32.5748 H         1 FMV1        0.0000 
     43 H          12.0501   23.2516   31.4410 H         1 FMV1        0.0000 
     44 H          13.1698   24.4475   30.7656 H         1 FMV1        0.0000 
     45 H          11.1721   25.4593   31.8916 H         1 FMV1        0.0000 
     46 H          12.7016   25.9849   32.6158 H         1 FMV1        0.0000 
     47 H          13.4789   24.9869   34.6361 H         1 FMV1        0.0000 
     48 H          13.1022   23.9787   36.6910 H         1 FMV1        0.0000 
     49 H          11.8084   22.9368   36.0739 H         1 FMV1        0.0000 
     50 H          11.6893   25.7214   36.8916 H         1 FMV1        0.0000 
     51 H          10.3611   24.6014   36.5432 H         1 FMV1        0.0000 
     52 H          11.9129   26.4548   34.7868 H         1 FMV1        0.0000 
     53 H           9.7214   26.4973   33.4452 H         1 FMV1        0.0000 
     54 H           8.9815   24.4395   36.6378 H         1 FMV1        0.0000 
     55 H           6.5354   23.8267   36.5198 H         1 FMV1        0.0000 
     56 H          11.0102   22.6866   33.1077 H         1 FMV1        0.0000 
     57 H          10.3076   23.0628   34.5045 H         1 FMV1        0.0000 
     58 H           9.7817   23.7239   33.1361 H         1 FMV1        0.0000 
     59 H           9.8494   27.6235   36.1842 H         1 FMV1        0.0000 
     60 H          10.4659   28.2735   34.8487 H         1 FMV1        0.0000 
     61 H           8.8718   28.1493   35.0205 H         1 FMV1        0.0000 
     62 H           5.7162   26.1997   32.6369 H         1 FMV1        0.0000 
     63 H           5.7700   24.6082   32.4128 H         1 FMV1        0.0000 
     64 H           4.3553   25.3728   32.4126 H         1 FMV1        0.0000 
     65 H           4.8346   23.0349   34.3325 H         1 FMV1        0.0000 
     66 H           4.3447   23.7058   35.7095 H         1 FMV1        0.0000 
     67 H           3.4502   23.8519   34.3810 H         1 FMV1        0.0000 
     68 H          12.3425   16.8107   35.8233 H         1 FMV1        0.0000 
     69 H          17.6156   18.1181   34.1349 H         1 FMV1        0.0000 
     70 H           3.5323   26.1897   34.6582 H         1 FMV1        0.0000 
@<TRIPOS>BOND
     1    2    1 1    
     2    3    1 1    
     3   12    1 1    
     4   33    1 1    
     5   68    2 1    
     6    4    3 1    
     7   34    3 1    
     8   35    3 1    
     9    5    4 1    
    10    6    4 1    
    11   36    4 1    
    12   69    5 1    
    13    7    6 1    
    14   37    6 1    
    15   38    6 1    
    16    8    7 2    
    17   12    7 1    
    18    9    8 1    
    19   39    8 1    
    20   10    9 2    
    21   40    9 1    
    22   11   10 1    
    23   16   10 1    
    24   13   11 1    
    25   41   11 1    
    26   42   11 1    
    27   21   12 2    
    28   14   13 1    
    29   43   13 1    
    30   44   13 1    
    31   15   14 1    
    32   45   14 1    
    33   46   14 1    
    34   16   15 1    
    35   19   15 1    
    36   20   15 1    
    37   17   16 1    
    38   47   16 1    
    39   18   17 1    
    40   48   17 1    
    41   49   17 1    
    42   19   18 1    
    43   50   18 1    
    44   51   18 1    
    45   22   19 1    
    46   52   19 1    
    47   56   20 1    
    48   57   20 1    
    49   58   20 1    
    50   23   22 1    
    51   24   22 1    
    52   53   22 1    
    53   59   23 1    
    54   60   23 1    
    55   61   23 1    
    56   25   24 1    
    57   26   24 2    
    58   28   25 1    
    59   27   26 1    
    60   54   26 1    
    61   28   27 2    
    62   55   27 1    
    63   29   28 1    
    64   30   29 1    
    65   31   29 1    
    66   32   29 1    
    67   70   30 1    
    68   62   31 1    
    69   63   31 1    
    70   64   31 1    
    71   65   32 1    
    72   66   32 1    
    73   67   32 1    
@<TRIPOS>SUBSTRUCTURE
     1 FMV1        1 GROUP   
@<TRIPOS>SET

