#    Name: 1fmj_RTL_2_INTS_M
#    Modification time : Tue Mar 25 01:31:48 2014

@<TRIPOS>MOLECULE
1fmj_RTL_2_INTS_M
   66     0     6     0     0
SMALL
NO_CHARGES


@<TRIPOS>ATOM
      1 CA         40.0570    7.2390   -0.0950 C.3       2 GLC5        0.0000 
      2 CA         39.0060    7.7470    1.7420 C.3       6 GLL5        0.0000 
      3 CA         41.1080    6.7310   -1.9320 C.3       4 GLP5        0.0000 
      4 CA         40.0385   12.0645    1.7295 C.3       2 GLC5        0.0000 
      5 CA         39.8370   10.3760    2.2750 C.3       6 GLL5        0.0000 
      6 CA         40.2400   13.7530    1.1840 C.3       4 GLP5        0.0000 
      7 CA         39.3740   10.3255    0.2610 C.3       2 GLC5        0.0000 
      8 CA         38.9110   10.2750   -1.7530 C.3       4 GLP5        0.0000 
      9 CA         39.6350    8.2980    6.8275 C.3       2 GLC5        0.0000 
     10 CA         41.0540    7.8830    5.1570 C.3       6 GLL5        0.0000 
     11 CA         38.2160    8.7130    8.4980 C.3       4 GLP5        0.0000 
     12 CA         43.6680    8.5305    3.9580 C.3       2 GLC5        0.0000 
     13 CA         42.3330    7.4380    5.2790 C.3       6 GLL5        0.0000 
     14 CA         45.0030    9.6230    2.6370 C.3       4 GLP5        0.0000 
     15 CA         43.9380    4.6800    5.5355 C.3       2 GLC5        0.0000 
     16 CA         44.2100    6.5410    6.5630 C.3       6 GLL5        0.0000 
     17 CA         43.6660    2.8190    4.5080 C.3       4 GLP5        0.0000 
     18 CA         44.5445    5.0325    9.5455 C.3       2 GLC5        0.0000 
     19 CA         45.0280    6.0270    7.6900 C.3       6 GLL5        0.0000 
     20 CA         44.0610    4.0380   11.4010 C.3       4 GLP5        0.0000 
     21 CA         44.7940    3.9380    5.8985 C.3       2 GLC5        0.0000 
     22 CA         45.9220    5.0570    7.2890 C.3       6 GLL5        0.0000 
     23 CA         47.2365    1.6360    6.4540 C.3       2 GLC5        0.0000 
     24 CA         47.8190    3.2640    7.5300 C.3       6 GLL5        0.0000 
     25 CA         46.6540    0.0080    5.3780 C.3       4 GLP5        0.0000 
     26 CA         49.1405    5.6715    7.5655 C.3       2 GLC5        0.0000 
     27 CA         49.1740    3.6830    7.1260 C.3       6 GLL5        0.0000 
     28 CA         49.1070    7.6600    8.0050 C.3       4 GLP5        0.0000 
     29 CA         51.1315    4.3735    6.9210 C.3       2 GLC5        0.0000 
     30 CA         53.0890    5.0640    6.7160 C.3       4 GLP5        0.0000 
     31 N          49.9765    4.3800    9.3950 N.am      1 SEC2        0.0000 
     32 N          50.0560    3.6520    8.1650 N.am      5 SEL2        0.0000 
     33 N          49.8970    5.1080   10.6250 N.am      3 SEP2        0.0000 
     34 N          51.4945    3.8540    7.9015 N.am      1 SEC2        0.0000 
     35 N          52.9330    4.0560    7.6380 N.am      3 SEP2        0.0000 
     36 CA         40.8775    6.4640    0.2675 C.3       2 GLC5        0.0000 
     37 CA         40.6470    6.1970    2.4670 C.3       6 GLL5        0.0000 
     38 CA         41.2590    4.2285    2.6600 C.3       2 GLC5        0.0000 
     39 CA         41.8710    2.2600    2.8530 C.3       4 GLP5        0.0000 
     40 CA         41.8055    5.2285    0.9465 C.3       2 GLC5        0.0000 
     41 CA         42.9640    4.2600   -0.5740 C.3       4 GLP5        0.0000 
     42 CA         37.3530    5.5340    4.7340 C.3       2 GLC5        0.0000 
     43 CA         38.5560    6.5380    3.7790 C.3       6 GLL5        0.0000 
     44 CA         36.1500    4.5300    5.6890 C.3       4 GLP5        0.0000 
     45 CA         43.0570   10.2025    3.5100 C.3       2 GLC5        0.0000 
     46 CA         41.1110   10.7820    4.3830 C.3       6 GLL5        0.0000 
     47 CA         41.8560   12.0855    3.2225 C.3       2 GLC5        0.0000 
     48 CA         42.6010   13.3890    2.0620 C.3       4 GLP5        0.0000 
     49 CA         41.8440   12.2300    5.1695 C.3       2 GLC5        0.0000 
     50 CA         42.5770   13.6780    5.9560 C.3       4 GLP5        0.0000 
     51 CA         40.1195    7.8520    8.1610 C.3       2 GLC5        0.0000 
     52 CA         42.0230    6.9910    7.8240 C.3       6 GLL5        0.0000 
     53 CA         41.4490    6.3915    9.5355 C.3       2 GLC5        0.0000 
     54 CA         40.8750    5.7920   11.2470 C.3       4 GLP5        0.0000 
     55 CA         39.9870    6.1730    7.5740 C.3       2 GLC5        0.0000 
     56 CA         37.9510    5.3550    7.3240 C.3       4 GLP5        0.0000 
     57 CA         39.0007    9.3850   -0.0662 C.3       2 GLC5        0.0000 
     58 CA         47.2910    6.6010    7.7473 C.3       2 GLC5        0.0000 
     59 CA         48.0177    6.0373    8.3548 C.3       2 GLC5        0.0000 
     60 CA         46.9430    4.2220    7.9610 C.3       6 GLL5        0.0000 
     61 CA         45.4947    4.2263   10.0527 C.3       2 GLC5        0.0000 
     62 CA         46.9140    4.6070    9.4480 C.3       6 GLL5        0.0000 
     63 CA         38.8565   11.4780    3.7314 C.3       2 GLC5        0.0000 
     64 CA         37.0890   12.5430    3.8230 C.3       4 GLP5        0.0000 
     65 CA         47.0637    2.3250    9.1384 C.3       2 GLC5        0.0000 
     66 CA         46.9800    0.4750    9.6800 C.3       4 GLP5        0.0000 
@<TRIPOS>BOND
@<TRIPOS>SUBSTRUCTURE
     1 SEC2       31 GROUP        1 X    SEC  0     ROOT SEC X 2
     2 GLC5        1 GROUP        1 X    GLC  0     **** GLC X 6
     3 SEP2       33 GROUP        1 Y    SEP  0     ROOT SEP Y 9
     4 GLP5        3 GROUP        1 Y    GLP  0     **** GLP Y 13
     5 SEL2       32 GROUP        1 Z    SEL  0     ROOT SEL Z 16
     6 GLL5        2 GROUP        1 Z    GLL  0     **** GLL Z 20
@<TRIPOS>SET

