#    Name: 1fmj_RTL_2_ligand
#    Modification time : Tue Mar 25 01:31:48 2014

@<TRIPOS>MOLECULE
1fmj_RTL_2_ligand
   51    51     1     0     0
SMALL
NO_CHARGES


@<TRIPOS>ATOM
      1 C1         39.6960    7.2590    3.0540 C.3       1 RTL501      0.0000 
      2 C2         39.0060    7.7470    1.7420 C.3       1 RTL501      0.0000 
      3 C3         39.1750    9.2430    1.4990 C.3       1 RTL501      0.0000 
      4 C4         39.8370   10.3760    2.2750 C.3       1 RTL501      0.0000 
      5 C5         40.4370    9.7120    3.5180 C.2       1 RTL501      0.0000 
      6 C6         40.4140    8.3660    3.9080 C.2       1 RTL501      0.0000 
      7 C7         41.0540    7.8830    5.1570 C.2       1 RTL501      0.0000 
      8 C8         42.3330    7.4380    5.2790 C.2       1 RTL501      0.0000 
      9 C9         42.9000    6.9750    6.5530 C.2       1 RTL501      0.0000 
     10 C10        44.2100    6.5410    6.5630 C.2       1 RTL501      0.0000 
     11 C11        45.0280    6.0270    7.6900 C.2       1 RTL501      0.0000 
     12 C12        45.9220    5.0570    7.2890 C.2       1 RTL501      0.0000 
     13 C13        46.9430    4.2220    7.9610 C.2       1 RTL501      0.0000 
     14 C14        47.8190    3.2640    7.5300 C.2       1 RTL501      0.0000 
     15 C15        49.1740    3.6830    7.1260 C.3       1 RTL501      0.0000 
     16 O1         50.0560    3.6520    8.1650 O.3       1 RTL501      0.0000 
     17 C16        40.6470    6.1970    2.4670 C.3       1 RTL501      0.0000 
     18 C17        38.5560    6.5380    3.7790 C.3       1 RTL501      0.0000 
     19 C18        41.1110   10.7820    4.3830 C.3       1 RTL501      0.0000 
     20 C19        42.0230    6.9910    7.8240 C.3       1 RTL501      0.0000 
     21 C20        46.9140    4.6070    9.4480 C.3       1 RTL501      0.0000 
     22 H          37.9402    7.5027    1.8046 H         1 RTL501      0.0000 
     23 H          39.4325    7.1876    0.9025 H         1 RTL501      0.0000 
     24 H          38.0747    9.6463    1.2246 H         1 RTL501      0.0000 
     25 H          39.5993    9.3363    0.3766 H         1 RTL501      0.0000 
     26 H          39.1033   11.0897    2.5704 H         1 RTL501      0.0000 
     27 H          40.6155   10.8089    1.6905 H         1 RTL501      0.0000 
     28 H          40.4157    7.9056    6.0063 H         1 RTL501      0.0000 
     29 H          42.9760    7.4063    4.4589 H         1 RTL501      0.0000 
     30 H          44.7551    6.5650    5.6238 H         1 RTL501      0.0000 
     31 H          44.9061    6.3683    8.5808 H         1 RTL501      0.0000 
     32 H          45.8909    4.8205    6.1835 H         1 RTL501      0.0000 
     33 H          47.5916    2.2838    7.4721 H         1 RTL501      0.0000 
     34 H          49.0928    4.7038    6.6717 H         1 RTL501      0.0000 
     35 H          49.4955    3.0233    6.2797 H         1 RTL501      0.0000 
     36 H          41.1674    6.5529    1.6908 H         1 RTL501      0.0000 
     37 H          41.3109    5.8784    3.1436 H         1 RTL501      0.0000 
     38 H          40.1500    5.3922    2.1424 H         1 RTL501      0.0000 
     39 H          38.3167    5.6768    3.3307 H         1 RTL501      0.0000 
     40 H          38.7969    6.3192    4.7246 H         1 RTL501      0.0000 
     41 H          37.7250    7.0935    3.8092 H         1 RTL501      0.0000 
     42 H          41.5208   10.3899    5.2066 H         1 RTL501      0.0000 
     43 H          41.8410   11.2537    3.8885 H         1 RTL501      0.0000 
     44 H          40.4613   11.4805    4.6830 H         1 RTL501      0.0000 
     45 H          42.5216    6.6560    8.6235 H         1 RTL501      0.0000 
     46 H          41.7033    7.9129    8.0431 H         1 RTL501      0.0000 
     47 H          41.2114    6.4157    7.7225 H         1 RTL501      0.0000 
     48 H          47.5794    4.0835    9.9802 H         1 RTL501      0.0000 
     49 H          47.1251    5.5748    9.5853 H         1 RTL501      0.0000 
     50 H          46.0165    4.4419    9.8569 H         1 RTL501      0.0000 
     51 H          49.6155    3.0855    8.8615 H         1 RTL501      0.0000 
@<TRIPOS>BOND
     1    2    1 1    
     2    6    1 1    
     3   17    1 1    
     4   18    1 1    
     5    3    2 1    
     6   22    2 1    
     7   23    2 1    
     8    4    3 1    
     9   24    3 1    
    10   25    3 1    
    11    5    4 1    
    12   26    4 1    
    13   27    4 1    
    14    6    5 2    
    15   19    5 1    
    16    7    6 1    
    17    8    7 2    
    18   28    7 1    
    19    9    8 1    
    20   29    8 1    
    21   10    9 2    
    22   20    9 1    
    23   11   10 1    
    24   30   10 1    
    25   12   11 2    
    26   31   11 1    
    27   13   12 1    
    28   32   12 1    
    29   14   13 2    
    30   21   13 1    
    31   15   14 1    
    32   33   14 1    
    33   16   15 1    
    34   34   15 1    
    35   35   15 1    
    36   51   16 1    
    37   36   17 1    
    38   37   17 1    
    39   38   17 1    
    40   39   18 1    
    41   40   18 1    
    42   41   18 1    
    43   42   19 1    
    44   43   19 1    
    45   44   19 1    
    46   45   20 1    
    47   46   20 1    
    48   47   20 1    
    49   48   21 1    
    50   49   21 1    
    51   50   21 1    
@<TRIPOS>SUBSTRUCTURE
     1 RTL501      1 GROUP   
@<TRIPOS>SET

