#    Name: 2z6i_FMN_1_INTS_M
#    Modification time : Tue Mar 25 10:17:25 2014

@<TRIPOS>MOLECULE
2z6i_FMN_1_INTS_M
   84     0     9     0     0
SMALL
NO_CHARGES


@<TRIPOS>ATOM
      1 N           7.9415    0.9865   11.2530 N.am      2 SEC2        0.0000 
      2 N           8.5440   -0.0330   12.1520 N.am      8 SEL2        0.0000 
      3 N           7.3390    2.0060   10.3540 N.am      5 SEP2        0.0000 
      4 N           6.3880   -2.2470   10.4440 N.am      2 SEC2        0.0000 
      5 N           7.3650   -0.9170   10.4490 N.am      8 SEL2        0.0000 
      6 N           5.4110   -3.5770   10.4390 N.am      5 SEP2        0.0000 
      7 N           7.3520    0.5445   10.4015 N.am      2 SEC2        0.0000 
      8 O           8.3215   -3.2730   10.9730 O.2       1 ALC1        0.0000 
      9 O           9.2090   -2.0950   11.1290 O.2       7 ALL1        0.0000 
     10 O           7.4340   -4.4510   10.8170 O.2       4 ALP1        0.0000 
     11 N          11.4305   -3.7480   13.3160 N.am      2 SEC2        0.0000 
     12 N          11.0760   -3.1540   11.9110 N.am      8 SEL2        0.0000 
     13 N          11.7850   -4.3420   14.7210 N.am      5 SEP2        0.0000 
     14 N          11.6765   -2.7860   14.2695 N.am      2 SEC2        0.0000 
     15 N          11.5680   -1.2300   13.8180 N.am      8 SEL2        0.0000 
     16 CA         11.4425   -1.5595   16.5630 C.3       3 GLC5        0.0000 
     17 CA         12.6570   -0.5050   15.8440 C.3       9 GLL5        0.0000 
     18 CA         10.2280   -2.6140   17.2820 C.3       6 GLP5        0.0000 
     19 CA         11.1455   -0.4485   17.1975 C.3       3 GLC5        0.0000 
     20 CA         12.7810    0.3890   16.9190 C.3       9 GLL5        0.0000 
     21 CA          9.5100   -1.2860   17.4760 C.3       6 GLP5        0.0000 
     22 CA         11.8540   -0.1345   18.5685 C.3       3 GLC5        0.0000 
     23 CA         13.8620    0.1620   17.9440 C.3       9 GLL5        0.0000 
     24 CA          9.8460   -0.4310   19.1930 C.3       6 GLP5        0.0000 
     25 CA         13.8940   -1.5000   19.1205 C.3       3 GLC5        0.0000 
     26 CA         13.9260   -3.1620   20.2970 C.3       6 GLP5        0.0000 
     27 CA         15.6095    0.2595   19.2745 C.3       3 GLC5        0.0000 
     28 CA         17.3570    0.3570   20.6050 C.3       6 GLP5        0.0000 
     29 CA         12.1230    4.1745   16.8980 C.3       3 GLC5        0.0000 
     30 CA         11.9590    2.4830   18.1370 C.3       9 GLL5        0.0000 
     31 CA         12.2870    5.8660   15.6590 C.3       6 GLP5        0.0000 
     32 CA         10.9140    3.2950   19.9300 C.3       3 GLC5        0.0000 
     33 CA          9.8690    4.1070   21.7230 C.3       6 GLP5        0.0000 
     34 CA         11.8605    1.5845   20.1540 C.3       3 GLC5        0.0000 
     35 CA         11.7620    0.6860   22.1710 C.3       6 GLP5        0.0000 
     36 CA         13.1440    4.0530   18.5780 C.3       3 GLC5        0.0000 
     37 CA         14.3290    5.6230   19.0190 C.3       6 GLP5        0.0000 
     38 CA         11.6025    3.7545   15.8375 C.3       3 GLC5        0.0000 
     39 CA         10.9180    1.6430   16.0160 C.3       9 GLL5        0.0000 
     40 CA          8.5705    0.1025   16.3140 C.3       3 GLC5        0.0000 
     41 CA          7.6310    1.4910   15.1520 C.3       9 GLL5        0.0000 
     42 O           7.3725   -0.9045   14.7125 O.2       1 ALC1        0.0000 
     43 O           6.9480    0.2950   14.7510 O.2       7 ALL1        0.0000 
     44 O           7.7970   -2.1040   14.6740 O.2       4 ALP1        0.0000 
     45 CA          4.5295    2.1960   15.8845 C.3       3 GLC5        0.0000 
     46 CA          6.6720    2.6400   15.5510 C.3       9 GLL5        0.0000 
     47 CA          2.3870    1.7520   16.2180 C.3       6 GLP5        0.0000 
     48 N           4.6105    2.1540   14.2915 N.am      2 SEC2        0.0000 
     49 N           5.7770    2.9560   14.5050 N.am      8 SEL2        0.0000 
     50 N           3.4440    1.3520   14.0780 N.am      5 SEP2        0.0000 
     51 O           6.3205    3.4985   13.4090 O.2       1 ALC1        0.0000 
     52 O           5.7770    2.9560   14.5050 O.2       7 ALL1        0.0000 
     53 O           6.8640    4.0410   12.3130 O.2       4 ALP1        0.0000 
     54 CA          4.6180    5.2310   15.3020 C.3       3 GLC5        0.0000 
     55 CA          6.4340    4.9530   16.5130 C.3       9 GLL5        0.0000 
     56 CA          2.8020    5.5090   14.0910 C.3       6 GLP5        0.0000 
     57 CA          5.9060    6.8975   16.1625 C.3       3 GLC5        0.0000 
     58 CA          5.3780    8.8420   15.8120 C.3       6 GLP5        0.0000 
     59 N           6.8775    8.9465   18.1345 N.am      2 SEC2        0.0000 
     60 N           7.7980    7.9270   18.4120 N.am      8 SEL2        0.0000 
     61 N           5.9570    9.9660   17.8570 N.am      5 SEP2        0.0000 
     62 N           9.9940    6.1325   17.0630 N.am      2 SEC2        0.0000 
     63 N           8.9730    5.6830   18.3530 N.am      8 SEL2        0.0000 
     64 N          11.0150    6.5820   15.7730 N.am      5 SEP2        0.0000 
     65 N           8.8705    4.7245   19.5885 N.am      2 SEC2        0.0000 
     66 N           8.7680    3.7660   20.8240 N.am      5 SEP2        0.0000 
     67 N           9.8965    5.7300   19.3150 N.am      2 SEC2        0.0000 
     68 N          10.8200    5.7770   20.2770 N.am      5 SEP2        0.0000 
     69 N           6.3070    4.5060   19.5810 N.am      2 SEC2        0.0000 
     70 N           6.6520    5.8760   19.3140 N.am      8 SEL2        0.0000 
     71 N           5.9620    3.1360   19.8480 N.am      5 SEP2        0.0000 
     72 N           7.7100    4.8210   20.0690 N.am      2 SEC2        0.0000 
     73 CA         14.7573    1.3922   16.7638 C.3       3 GLC5        0.0000 
     74 CA         16.1930    2.5090   16.0960 C.3       6 GLP5        0.0000 
     75 CA         10.8870    0.7742   18.3833 C.3       3 GLC5        0.0000 
     76 CA         11.8970    1.4760   17.0100 C.3       9 GLL5        0.0000 
     77 CA         10.2912   -0.1808   16.4692 C.3       3 GLC5        0.0000 
     78 CA          5.8392    0.5653   16.2203 C.3       3 GLC5        0.0000 
     79 CA          4.5270   -0.9350   17.0890 C.3       6 GLP5        0.0000 
     80 CA          7.6865    5.8358   15.1743 C.3       3 GLC5        0.0000 
     81 CA          7.4220    3.9160   15.9740 C.3       9 GLL5        0.0000 
     82 CA          8.4450    7.2370   14.1050 C.3       6 GLP5        0.0000 
     83 CA          6.9573    3.2207   17.9229 C.3       3 GLC5        0.0000 
     84 CA          7.1740    2.3260   19.7080 C.3       6 GLP5        0.0000 
@<TRIPOS>BOND
@<TRIPOS>SUBSTRUCTURE
     1 ALC1        8 GROUP        1 X    ALC  0     ROOT ALC X 1
     2 SEC2        1 GROUP        1 X    SEC  0     **** SEC X 2
     3 GLC5       16 GROUP        1 X    GLC  0     **** GLC X 6
     4 ALP1       10 GROUP        1 Y    ALP  0     ROOT ALP Y 8
     5 SEP2        3 GROUP        1 Y    SEP  0     **** SEP Y 9
     6 GLP5       18 GROUP        1 Y    GLP  0     **** GLP Y 13
     7 ALL1        9 GROUP        1 Z    ALL  0     ROOT ALL Z 15
     8 SEL2        2 GROUP        1 Z    SEL  0     **** SEL Z 16
     9 GLL5       17 GROUP        1 Z    GLL  0     **** GLL Z 20
@<TRIPOS>SET

