#    Name: 2z6i_FMN_1_ligand
#    Modification time : Tue Mar 25 10:17:25 2014

@<TRIPOS>MOLECULE
2z6i_FMN_1_ligand
   50    52     1     0     0
SMALL
NO_CHARGES


@<TRIPOS>ATOM
      1 N1          8.5440   -0.0330   12.1520 N.2       1 FMN401      0.0000 
      2 C2          8.3390   -1.0110   11.1990 C.2       1 FMN401      0.0000 
      3 O2          7.3650   -0.9170   10.4490 O.2       1 FMN401      0.0000 
      4 N3          9.2090   -2.0950   11.1290 N.am      1 FMN401      0.0000 
      5 C4         10.2960   -2.1810   11.9870 C.2       1 FMN401      0.0000 
      6 O4         11.0760   -3.1540   11.9110 O.2       1 FMN401      0.0000 
      7 C4A        10.5120   -1.1640   12.9300 C.2       1 FMN401      0.0000 
      8 N5         11.5680   -1.2300   13.8180 N.2       1 FMN401      0.0000 
      9 C5A        11.6710   -0.3360   14.8690 C.ar      1 FMN401      0.0000 
     10 C6         12.6570   -0.5050   15.8440 C.ar      1 FMN401      0.0000 
     11 C7         12.7810    0.3890   16.9190 C.ar      1 FMN401      0.0000 
     12 C7M        13.8620    0.1620   17.9440 C.3       1 FMN401      0.0000 
     13 C8         11.8970    1.4760   17.0100 C.ar      1 FMN401      0.0000 
     14 C8M        11.9590    2.4830   18.1370 C.3       1 FMN401      0.0000 
     15 C9         10.9180    1.6430   16.0160 C.ar      1 FMN401      0.0000 
     16 C9A        10.7830    0.7480   14.9490 C.ar      1 FMN401      0.0000 
     17 N10         9.7960    0.9070   13.9730 N.pl3     1 FMN401      0.0000 
     18 C10         9.6600   -0.0540   12.9740 C.2       1 FMN401      0.0000 
     19 C1'         8.6950    1.9260   14.1260 C.3       1 FMN401      0.0000 
     20 C2'         7.6310    1.4910   15.1520 C.3       1 FMN401      0.0000 
     21 O2'         6.9480    0.2950   14.7510 O.3       1 FMN401      0.0000 
     22 C3'         6.6720    2.6400   15.5510 C.3       1 FMN401      0.0000 
     23 O3'         5.7770    2.9560   14.5050 O.3       1 FMN401      0.0000 
     24 C4'         7.4220    3.9160   15.9740 C.3       1 FMN401      0.0000 
     25 O4'         8.4110    3.5990   16.9480 O.3       1 FMN401      0.0000 
     26 C5'         6.4340    4.9530   16.5130 C.3       1 FMN401      0.0000 
     27 O5'         7.0450    6.1920   16.8520 O.3       1 FMN401      0.0000 
     28 P           7.6570    6.4230   18.3210 P.3       1 FMN401      0.0000 
     29 O1P         7.7980    7.9270   18.4120 O.co2     1 FMN401      0.0000 
     30 O2P         8.9730    5.6830   18.3530 O.co2     1 FMN401      0.0000 
     31 O3P         6.6520    5.8760   19.3140 O.co2     1 FMN401      0.0000 
     32 H           9.0429   -2.8389   10.4336 H         1 FMN401      0.0000 
     33 H          13.3102   -1.3041   15.7750 H         1 FMN401      0.0000 
     34 H          10.2755    2.4572   16.0775 H         1 FMN401      0.0000 
     35 H           8.2013    2.0864   13.1604 H         1 FMN401      0.0000 
     36 H           9.1186    2.8839   14.4498 H         1 FMN401      0.0000 
     37 H           8.2174    1.2580   16.0987 H         1 FMN401      0.0000 
     38 H           6.1125    2.2966   16.4373 H         1 FMN401      0.0000 
     39 H           7.8787    4.3314   15.0760 H         1 FMN401      0.0000 
     40 H           5.9242    4.4970   17.3897 H         1 FMN401      0.0000 
     41 H           5.6437    5.0861   15.7422 H         1 FMN401      0.0000 
     42 H          14.7732    0.1764   17.5322 H         1 FMN401      0.0000 
     43 H          13.8513    0.8634   18.6567 H         1 FMN401      0.0000 
     44 H          13.7608   -0.7217   18.4010 H         1 FMN401      0.0000 
     45 H          12.8427    2.9499   18.1697 H         1 FMN401      0.0000 
     46 H          11.2576    3.1895   18.0428 H         1 FMN401      0.0000 
     47 H          11.8224    2.0514   19.0286 H         1 FMN401      0.0000 
     48 H           7.6287   -0.4326   14.8364 H         1 FMN401      0.0000 
     49 H           6.3495    3.3455   13.7835 H         1 FMN401      0.0000 
     50 H           8.9024    4.4555   17.1059 H         1 FMN401      0.0000 
@<TRIPOS>BOND
     1    2    1 1    
     2   18    1 2    
     3    3    2 2    
     4    4    2 am   
     5    5    4 am   
     6   32    4 1    
     7    6    5 2    
     8    7    5 1    
     9    8    7 2    
    10   18    7 1    
    11    9    8 1    
    12   10    9 ar   
    13   16    9 ar   
    14   11   10 ar   
    15   33   10 1    
    16   12   11 1    
    17   13   11 ar   
    18   42   12 1    
    19   43   12 1    
    20   44   12 1    
    21   14   13 1    
    22   15   13 ar   
    23   45   14 1    
    24   46   14 1    
    25   47   14 1    
    26   16   15 ar   
    27   34   15 1    
    28   17   16 1    
    29   18   17 1    
    30   19   17 1    
    31   20   19 1    
    32   35   19 1    
    33   36   19 1    
    34   21   20 1    
    35   22   20 1    
    36   37   20 1    
    37   48   21 1    
    38   23   22 1    
    39   24   22 1    
    40   38   22 1    
    41   49   23 1    
    42   25   24 1    
    43   26   24 1    
    44   39   24 1    
    45   50   25 1    
    46   27   26 1    
    47   40   26 1    
    48   41   26 1    
    49   28   27 1    
    50   29   28 ar   
    51   30   28 ar   
    52   31   28 ar   
@<TRIPOS>SUBSTRUCTURE
     1 FMN401      1 GROUP   
@<TRIPOS>SET

