#    Name: 3qpp_PFW_1_INTS_M
#    Modification time : Mon Apr  7 19:47:11 2014

@<TRIPOS>MOLECULE
3qpp_PFW_1_INTS_M
   87     0     6     0     0
SMALL
NO_CHARGES


@<TRIPOS>ATOM
      1 CA         13.8330   18.1845   41.0405 C.3       2 GLC5        0.0000 
      2 CA         12.5170   17.2500   42.4480 C.3       6 GLL5        0.0000 
      3 CA         15.1490   19.1190   39.6330 C.3       4 GLP5        0.0000 
      4 CA         10.1865   18.9670   42.4330 C.3       2 GLC5        0.0000 
      5 CA         11.9910   18.3470   43.0870 C.3       6 GLL5        0.0000 
      6 CA          8.3820   19.5870   41.7790 C.3       4 GLP5        0.0000 
      7 CA         13.0000   21.2375   45.9255 C.3       2 GLC5        0.0000 
      8 CA         11.7260   19.7290   45.1680 C.3       6 GLL5        0.0000 
      9 CA         14.2740   22.7460   46.6830 C.3       4 GLP5        0.0000 
     10 CA         13.5310   20.8320   46.8780 C.3       2 GLC5        0.0000 
     11 CA         12.7880   18.9180   47.0730 C.3       6 GLL5        0.0000 
     12 CA         14.7510   18.8075   47.3825 C.3       2 GLC5        0.0000 
     13 CA         16.7140   18.6970   47.6920 C.3       4 GLP5        0.0000 
     14 CA         12.3630   22.2460   46.0720 C.3       2 GLC5        0.0000 
     15 CA         10.4520   21.7460   45.4610 C.3       6 GLL5        0.0000 
     16 CA         13.0915   22.0770   45.1615 C.3       2 GLC5        0.0000 
     17 CA         11.9090   21.4080   43.6400 C.3       6 GLL5        0.0000 
     18 CA         13.6395   20.6360   43.4885 C.3       2 GLC5        0.0000 
     19 CA         15.3700   19.8640   43.3370 C.3       4 GLP5        0.0000 
     20 CA         13.5905   20.5765   39.9915 C.3       2 GLC5        0.0000 
     21 CA         12.0320   22.0340   40.3500 C.3       6 GLL5        0.0000 
     22 N          13.3920   14.7295   41.0185 N.am      1 SEC2        0.0000 
     23 N          13.8080   15.2720   42.4170 N.am      5 SEL2        0.0000 
     24 N          12.9760   14.1870   39.6200 N.am      3 SEP2        0.0000 
     25 CA         16.8680   14.5625   42.9730 C.3       2 GLC5        0.0000 
     26 CA         15.0430   14.7340   42.9090 C.3       6 GLL5        0.0000 
     27 CA         18.6930   14.3910   43.0370 C.3       4 GLP5        0.0000 
     28 CA         14.1370   13.6105   44.3575 C.3       2 GLC5        0.0000 
     29 CA         13.2310   12.4870   45.8060 C.3       4 GLP5        0.0000 
     30 CA         15.9190   16.3445   42.8730 C.3       2 GLC5        0.0000 
     31 CA         16.7950   17.9550   42.8370 C.3       4 GLP5        0.0000 
     32 CA          9.8710   16.9240   42.2955 C.3       2 GLC5        0.0000 
     33 CA         10.9870   17.3770   40.6780 C.3       6 GLL5        0.0000 
     34 CA          8.7550   16.4710   43.9130 C.3       4 GLP5        0.0000 
     35 CA         12.8510   16.9350   37.9355 C.3       2 GLC5        0.0000 
     36 CA         11.2640   17.8040   39.2400 C.3       6 GLL5        0.0000 
     37 CA         14.4380   16.0660   36.6310 C.3       4 GLP5        0.0000 
     38 CA         13.2065   18.4615   39.4365 C.3       2 GLC5        0.0000 
     39 CA          8.6975   18.2460   39.5810 C.3       2 GLC5        0.0000 
     40 CA         10.0790   18.0490   38.3350 C.3       6 GLL5        0.0000 
     41 CA          7.3160   18.4430   40.8270 C.3       4 GLP5        0.0000 
     42 N           9.8640   15.7580   38.3450 N.am      1 SEC2        0.0000 
     43 N           9.3810   17.0310   37.9040 N.am      5 SEL2        0.0000 
     44 N          10.3470   14.4850   38.7860 N.am      3 SEP2        0.0000 
     45 CA          4.2540   16.9590   34.6330 C.3       2 GLC5        0.0000 
     46 CA          6.1710   17.5100   35.3820 C.3       6 GLL5        0.0000 
     47 CA          2.3370   16.4080   33.8840 C.3       4 GLP5        0.0000 
     48 CA         12.0077   15.0478   44.4138 C.3       2 GLC5        0.0000 
     49 CA         13.3440   16.3370   43.1300 C.3       6 GLL5        0.0000 
     50 CA         10.5390   13.6660   45.0190 C.3       4 GLP5        0.0000 
     51 CA          8.6898   21.1512   44.1313 C.3       2 GLC5        0.0000 
     52 CA          7.3050   19.9940   43.1770 C.3       4 GLP5        0.0000 
     53 CA          9.9525   20.7258   42.4718 C.3       2 GLC5        0.0000 
     54 CA         11.1370   22.3210   42.6890 C.3       6 GLL5        0.0000 
     55 CA         14.4935   21.6675   39.1132 C.3       2 GLC5        0.0000 
     56 CA         12.7970   22.4470   39.2680 C.3       6 GLL5        0.0000 
     57 CA         15.8150   20.3040   38.9190 C.3       4 GLP5        0.0000 
     58 CA         15.2757   24.6313   39.2060 C.3       2 GLC5        0.0000 
     59 CA         13.5470   23.6150   39.3470 C.3       6 GLL5        0.0000 
     60 CA         17.0190   25.2660   38.4870 C.3       4 GLP5        0.0000 
     61 CA         14.8074   23.7339   41.5010 C.3       2 GLC5        0.0000 
     62 CA         16.4710   23.4860   42.2430 C.3       4 GLP5        0.0000 
     63 CA         10.3068   15.6387   39.7295 C.3       2 GLC5        0.0000 
     64 CA          9.4880   13.6870   39.5000 C.3       4 GLP5        0.0000 
     65 CA          9.7538   18.5887   40.8690 C.3       2 GLC5        0.0000 
     66 CA         11.0362   17.8892   36.9823 C.3       2 GLC5        0.0000 
     67 CA         11.4010   17.8520   35.1770 C.3       4 GLP5        0.0000 
     68 CA          7.8815   19.3527   38.6755 C.3       2 GLC5        0.0000 
     69 CA          9.7850   19.3510   37.9440 C.3       6 GLL5        0.0000 
     70 CA          6.5030   19.2370   39.8330 C.3       4 GLP5        0.0000 
     71 CA         10.3305   18.6603   36.3475 C.3       2 GLC5        0.0000 
     72 CA          8.7350   19.5860   37.0920 C.3       6 GLL5        0.0000 
     73 CA          6.7832   18.1403   37.9682 C.3       2 GLC5        0.0000 
     74 CA          7.9690   18.4810   36.6440 C.3       6 GLL5        0.0000 
     75 CA          5.4180   18.4510   39.0650 C.3       4 GLP5        0.0000 
     76 CA          6.2435   17.2975   37.6590 C.3       2 GLC5        0.0000 
     77 CA          7.5920   16.0560   36.6790 C.3       6 GLL5        0.0000 
     78 CA          8.2165   14.7560   35.5595 C.3       2 GLC5        0.0000 
     79 CA          9.3640   13.3680   34.8660 C.3       4 GLP5        0.0000 
     80 CA          9.6356   17.3974   35.9761 C.3       2 GLC5        0.0000 
     81 CA          6.5382   16.4265   33.6342 C.3       2 GLC5        0.0000 
     82 CA          6.5460   16.2320   35.8270 C.3       6 GLL5        0.0000 
     83 CA          6.7180   15.9820   31.6640 C.3       4 GLP5        0.0000 
     84 CA          5.1363   19.3083   35.5565 C.3       2 GLC5        0.0000 
     85 CA          3.7550   20.5470   35.5360 C.3       4 GLP5        0.0000 
     86 CA          5.9678   18.2602   37.3210 C.3       2 GLC5        0.0000 
     87 CA          6.8640   18.6290   35.7720 C.3       6 GLL5        0.0000 
@<TRIPOS>BOND
@<TRIPOS>SUBSTRUCTURE
     1 SEC2       22 GROUP        1 X    SEC  0     ROOT SEC X 2
     2 GLC5        1 GROUP        1 X    GLC  0     **** GLC X 6
     3 SEP2       24 GROUP        1 Y    SEP  0     ROOT SEP Y 9
     4 GLP5        3 GROUP        1 Y    GLP  0     **** GLP Y 13
     5 SEL2       23 GROUP        1 Z    SEL  0     ROOT SEL Z 16
     6 GLL5        2 GROUP        1 Z    GLL  0     **** GLL Z 20
@<TRIPOS>SET

