#    Name: 3qpp_PFW_1_ligand
#    Modification time : Mon Apr  7 19:47:11 2014

@<TRIPOS>MOLECULE
3qpp_PFW_1_ligand
   67    72     1     0     0
SMALL
NO_CHARGES


@<TRIPOS>ATOM
      1 C1         13.3440   16.3370   43.1300 C.ar      1 PFW999      0.0000 
      2 C2         12.5170   17.2500   42.4480 C.ar      1 PFW999      0.0000 
      3 C3         11.9910   18.3470   43.0870 C.ar      1 PFW999      0.0000 
      4 C4         13.6090   16.5220   44.4870 C.ar      1 PFW999      0.0000 
      5 C5         13.0600   17.6450   45.1520 C.ar      1 PFW999      0.0000 
      6 C6         12.2500   18.5890   44.4550 C.ar      1 PFW999      0.0000 
      7 C7         11.7260   19.7290   45.1680 C.ar      1 PFW999      0.0000 
      8 N8         12.0130   19.8130   46.4680 N.ar      1 PFW999      0.0000 
      9 C9         12.7880   18.9180   47.0730 C.ar      1 PFW999      0.0000 
     10 N10        13.2930   17.8720   46.4570 N.ar      1 PFW999      0.0000 
     11 N11        10.9600   20.7050   44.5330 N.3       1 PFW999      0.0000 
     12 C12        10.4520   21.7460   45.4610 C.3       1 PFW999      0.0000 
     13 C13         9.6970   22.8710   44.7100 C.3       1 PFW999      0.0000 
     14 C14        10.5130   23.4610   43.5380 C.3       1 PFW999      0.0000 
     15 C15        11.1370   22.3210   42.6890 C.3       1 PFW999      0.0000 
     16 C16        11.9090   21.4080   43.6400 C.3       1 PFW999      0.0000 
     17 C17        11.9990   22.7890   41.5220 C.ar      1 PFW999      0.0000 
     18 C18        12.0320   22.0340   40.3500 C.ar      1 PFW999      0.0000 
     19 C19        12.7970   22.4470   39.2680 C.ar      1 PFW999      0.0000 
     20 C20        13.5470   23.6150   39.3470 C.ar      1 PFW999      0.0000 
     21 C21        13.5180   24.3780   40.5030 C.ar      1 PFW999      0.0000 
     22 C22        12.7550   23.9670   41.5930 C.ar      1 PFW999      0.0000 
     23 O23        13.8080   15.2720   42.4170 O.3       1 PFW999      0.0000 
     24 O24        12.2970   17.0210   41.1120 O.3       1 PFW999      0.0000 
     25 C25        15.0430   14.7340   42.9090 C.3       1 PFW999      0.0000 
     26 C26        10.9870   17.3770   40.6780 C.3       1 PFW999      0.0000 
     27 C27        11.2640   17.8040   39.2400 C.3       1 PFW999      0.0000 
     28 C28        10.0790   18.0490   38.3350 C.ar      1 PFW999      0.0000 
     29 N29         9.3810   17.0310   37.9040 N.ar      1 PFW999      0.0000 
     30 C30         8.7350   19.5860   37.0920 C.ar      1 PFW999      0.0000 
     31 C31         9.7850   19.3510   37.9440 C.ar      1 PFW999      0.0000 
     32 C32         7.9690   18.4810   36.6440 C.ar      1 PFW999      0.0000 
     33 C33         8.3280   17.1780   37.0990 C.ar      1 PFW999      0.0000 
     34 C34         7.5920   16.0560   36.6790 C.ar      1 PFW999      0.0000 
     35 C35         6.5460   16.2320   35.8270 C.ar      1 PFW999      0.0000 
     36 C36         6.1710   17.5100   35.3820 C.ar      1 PFW999      0.0000 
     37 C37         6.8640   18.6290   35.7720 C.ar      1 PFW999      0.0000 
     38 H          11.3930   19.0173   42.5725 H         1 PFW999      0.0000 
     39 H          14.1892   15.8627   45.0017 H         1 PFW999      0.0000 
     40 H          13.0079   19.0616   48.1123 H         1 PFW999      0.0000 
     41 H          11.2798   22.2054   46.0135 H         1 PFW999      0.0000 
     42 H           9.7631   21.3065   46.1916 H         1 PFW999      0.0000 
     43 H           9.4610   23.6705   45.4171 H         1 PFW999      0.0000 
     44 H           8.7580   22.4677   44.3221 H         1 PFW999      0.0000 
     45 H          11.3067   24.0817   43.9319 H         1 PFW999      0.0000 
     46 H           9.8599   24.0514   42.9093 H         1 PFW999      0.0000 
     47 H          10.2972   21.7257   42.2927 H         1 PFW999      0.0000 
     48 H          12.4788   20.6924   43.0492 H         1 PFW999      0.0000 
     49 H          12.6008   22.0161   44.2209 H         1 PFW999      0.0000 
     50 H          11.4831   21.1630   40.2896 H         1 PFW999      0.0000 
     51 H          12.8098   21.8872   38.4034 H         1 PFW999      0.0000 
     52 H          14.1220   23.9104   38.5469 H         1 PFW999      0.0000 
     53 H          14.0607   25.2513   40.5595 H         1 PFW999      0.0000 
     54 H          12.7436   24.5271   42.4549 H         1 PFW999      0.0000 
     55 H          10.5944   18.2111   41.2066 H         1 PFW999      0.0000 
     56 H          10.3232   16.5473   40.6603 H         1 PFW999      0.0000 
     57 H          11.9255   17.0311   38.7664 H         1 PFW999      0.0000 
     58 H          11.8958   18.7311   39.2655 H         1 PFW999      0.0000 
     59 H           8.4958   20.5223   36.7779 H         1 PFW999      0.0000 
     60 H          10.3581   20.1302   38.2971 H         1 PFW999      0.0000 
     61 H           7.8563   15.1273   37.0217 H         1 PFW999      0.0000 
     62 H           5.9998   15.4135   35.4867 H         1 PFW999      0.0000 
     63 H           5.3547   17.5955   34.7482 H         1 PFW999      0.0000 
     64 H           6.6023   19.5604   35.4494 H         1 PFW999      0.0000 
     65 H          15.7772   15.4127   42.8907 H         1 PFW999      0.0000 
     66 H          14.9599   14.4175   43.8539 H         1 PFW999      0.0000 
     67 H          15.3513   13.9539   42.3646 H         1 PFW999      0.0000 
@<TRIPOS>BOND
     1    2    1 ar   
     2    4    1 ar   
     3   23    1 1    
     4    3    2 ar   
     5   24    2 1    
     6    6    3 ar   
     7   38    3 1    
     8    5    4 ar   
     9   39    4 1    
    10    6    5 ar   
    11   10    5 ar   
    12    7    6 ar   
    13    8    7 ar   
    14   11    7 1    
    15    9    8 ar   
    16   10    9 ar   
    17   40    9 1    
    18   12   11 1    
    19   16   11 1    
    20   13   12 1    
    21   41   12 1    
    22   42   12 1    
    23   14   13 1    
    24   43   13 1    
    25   44   13 1    
    26   15   14 1    
    27   45   14 1    
    28   46   14 1    
    29   16   15 1    
    30   17   15 1    
    31   47   15 1    
    32   48   16 1    
    33   49   16 1    
    34   18   17 ar   
    35   22   17 ar   
    36   19   18 ar   
    37   50   18 1    
    38   20   19 ar   
    39   51   19 1    
    40   21   20 ar   
    41   52   20 1    
    42   22   21 ar   
    43   53   21 1    
    44   54   22 1    
    45   25   23 1    
    46   26   24 1    
    47   65   25 1    
    48   66   25 1    
    49   67   25 1    
    50   27   26 1    
    51   55   26 1    
    52   56   26 1    
    53   28   27 1    
    54   57   27 1    
    55   58   27 1    
    56   29   28 ar   
    57   31   28 ar   
    58   33   29 ar   
    59   31   30 ar   
    60   32   30 ar   
    61   59   30 1    
    62   60   31 1    
    63   33   32 ar   
    64   37   32 ar   
    65   34   33 ar   
    66   35   34 ar   
    67   61   34 1    
    68   36   35 ar   
    69   62   35 1    
    70   37   36 ar   
    71   63   36 1    
    72   64   37 1    
@<TRIPOS>SUBSTRUCTURE
     1 PFW999      1 GROUP   
@<TRIPOS>SET

