#    Name: 2v1u_ADP_1_INTS_M
#    Modification time : Tue Mar 25 00:44:08 2014

@<TRIPOS>MOLECULE
2v1u_ADP_1_INTS_M
   73     0    15     0     0
SMALL
NO_CHARGES


@<TRIPOS>ATOM
      1 NZ        -12.3610  -20.8605  -17.7000 N.4       3 LYC4        0.0000 
      2 NZ        -12.8300  -19.3380  -17.5960 N.4      13 LYL4        0.0000 
      3 NZ        -11.8920  -22.3830  -17.8040 N.4       8 LYP4        0.0000 
      4 Zn        -13.6635  -19.4600  -18.6235 Zn        4 ZIC7        0.0000 
      5 Zn        -12.8300  -19.3380  -17.5960 Zn       14 ZIL7        0.0000 
      6 Zn        -14.4970  -19.5820  -19.6510 Zn        9 ZIP7        0.0000 
      7 N         -12.3610  -20.8605  -17.7000 N.am      2 SEC2        0.0000 
      8 N         -12.8300  -19.3380  -17.5960 N.am     12 SEL2        0.0000 
      9 N         -11.8920  -22.3830  -17.8040 N.am      7 SEP2        0.0000 
     10 NZ        -11.1055  -21.0260  -17.8980 N.4       3 LYC4        0.0000 
     11 NZ        -10.3190  -19.6690  -17.9920 N.4      13 LYL4        0.0000 
     12 N          -9.3590  -18.9520  -16.9060 N.am      2 SEC2        0.0000 
     13 N         -10.3190  -19.6690  -17.9920 N.am     12 SEL2        0.0000 
     14 N          -8.3990  -18.2350  -15.8200 N.am      7 SEP2        0.0000 
     15 N          -9.1170  -18.9500  -18.2200 N.am      2 SEC2        0.0000 
     16 N          -7.9150  -18.2310  -18.4480 N.am      7 SEP2        0.0000 
     17 N          -9.4665  -19.9365  -19.1140 N.am      2 SEC2        0.0000 
     18 N          -8.6140  -20.2040  -20.2360 N.am      7 SEP2        0.0000 
     19 NZ        -11.9220  -20.9725  -18.8730 N.4       3 LYC4        0.0000 
     20 NZ        -11.9520  -19.5620  -19.9420 N.4      13 LYL4        0.0000 
     21 Zn        -13.2245  -19.5720  -19.7965 Zn        4 ZIC7        0.0000 
     22 Zn        -11.9520  -19.5620  -19.9420 Zn       14 ZIL7        0.0000 
     23 N         -11.3965  -20.1075  -20.9975 N.am      2 SEC2        0.0000 
     24 N         -11.9520  -19.5620  -19.9420 N.am     12 SEL2        0.0000 
     25 N         -10.8410  -20.6530  -22.0530 N.am      7 SEP2        0.0000 
     26 N         -10.1000  -17.8880  -22.1300 N.am      2 SEC2        0.0000 
     27 N          -9.8280  -17.5170  -20.6250 N.am     12 SEL2        0.0000 
     28 N         -10.3720  -18.2590  -23.6350 N.am      7 SEP2        0.0000 
     29 N          -9.6250  -17.9080  -18.4985 N.am      2 SEC2        0.0000 
     30 N         -11.3350  -17.5850  -18.5490 N.am     12 SEL2        0.0000 
     31 CA        -10.5800  -15.5160  -16.9545 C.3       5 GLC5        0.0000 
     32 CA        -11.1860  -14.5030  -18.7440 C.3      15 GLL5        0.0000 
     33 CA         -9.9740  -16.5290  -15.1650 C.3      10 GLP5        0.0000 
     34 CA        -12.5230  -13.8215  -17.7485 C.3       5 GLC5        0.0000 
     35 CA        -13.8600  -13.1400  -16.7530 C.3      10 GLP5        0.0000 
     36 CA        -11.4440  -12.4105  -17.6955 C.3       5 GLC5        0.0000 
     37 CA        -11.0040  -13.1370  -19.3900 C.3      15 GLL5        0.0000 
     38 CA        -11.8840  -11.6840  -16.0010 C.3      10 GLP5        0.0000 
     39 CA        -10.0190  -11.2365  -19.4240 C.3       5 GLC5        0.0000 
     40 CA         -9.0340   -9.3360  -19.4580 C.3      10 GLP5        0.0000 
     41 CA         -9.3305  -14.7285  -22.5965 C.3       5 GLC5        0.0000 
     42 CA         -9.9640  -12.9740  -21.5770 C.3      15 GLL5        0.0000 
     43 CA         -8.6970  -16.4830  -23.6160 C.3      10 GLP5        0.0000 
     44 N         -10.0665  -10.8690  -22.9100 N.am      2 SEC2        0.0000 
     45 N         -10.0670  -11.9000  -22.5130 N.am     12 SEL2        0.0000 
     46 N         -10.0660   -9.8380  -23.3070 N.am      7 SEP2        0.0000 
     47 CA         -8.1795  -12.5385  -18.4360 C.3       5 GLC5        0.0000 
     48 CA         -9.0030  -12.5430  -20.4840 C.3      15 GLL5        0.0000 
     49 CA         -7.3560  -12.5340  -16.3880 C.3      10 GLP5        0.0000 
     50 N          -5.2205  -15.7210  -19.3305 N.am      2 SEC2        0.0000 
     51 N          -6.2720  -14.9310  -20.0470 N.am     12 SEL2        0.0000 
     52 N          -4.1690  -16.5110  -18.6140 N.am      7 SEP2        0.0000 
     53 CA         -2.6940  -12.8080  -22.2560 C.3       5 GLC5        0.0000 
     54 CA         -4.2390  -13.8120  -21.2890 C.3      15 GLL5        0.0000 
     55 CA         -1.1490  -11.8040  -23.2230 C.3      10 GLP5        0.0000 
     56 O          -1.8545  -14.6480  -21.0040 O.2       1 ALC1        0.0000 
     57 O          -3.2710  -14.7370  -21.0810 O.2      11 ALL1        0.0000 
     58 O          -0.4380  -14.5590  -20.9270 O.2       6 ALP1        0.0000 
     59 CA         -5.9635  -11.7625  -24.1600 C.3       5 GLC5        0.0000 
     60 CA         -4.9400  -11.7660  -22.2210 C.3      15 GLL5        0.0000 
     61 CA         -6.9870  -11.7590  -26.0990 C.3      10 GLP5        0.0000 
     62 CA         -5.1475  -13.0090  -23.6245 C.3       5 GLC5        0.0000 
     63 CA         -5.3550  -14.2520  -25.0280 C.3      10 GLP5        0.0000 
     64 CA         -3.0445  -11.7850  -22.7220 C.3       5 GLC5        0.0000 
     65 CA         -4.6315  -10.7995  -20.7550 C.3       5 GLC5        0.0000 
     66 CA         -4.3230   -9.8330  -19.2890 C.3      10 GLP5        0.0000 
     67 CA         -5.4615  -11.3835  -20.1750 C.3       5 GLC5        0.0000 
     68 CA         -6.6000  -12.9340  -21.0610 C.3      15 GLL5        0.0000 
     69 CA         -9.2587  -11.0473  -20.2443 C.3       5 GLC5        0.0000 
     70 CA         -3.7070  -12.7135  -20.0135 C.3       5 GLC5        0.0000 
     71 CA         -2.4880  -11.5240  -19.0040 C.3      10 GLP5        0.0000 
     72 CA         -5.5590  -13.8353  -23.0350 C.3       5 GLC5        0.0000 
     73 CA         -5.6130  -13.9940  -20.7570 C.3      15 GLL5        0.0000 
@<TRIPOS>BOND
@<TRIPOS>SUBSTRUCTURE
     1 ALC1       56 GROUP        1 X    ALC  0     ROOT ALC X 1
     2 SEC2        7 GROUP        1 X    SEC  0     **** SEC X 2
     3 LYC4        1 GROUP        1 X    LYC  0     **** LYC X 4
     4 ZIC7        4 GROUP        1 X    ZIC  0     **** ZIC X 5
     5 GLC5       31 GROUP        1 X    GLC  0     **** GLC X 6
     6 ALP1       58 GROUP        1 Y    ALP  0     ROOT ALP Y 8
     7 SEP2        9 GROUP        1 Y    SEP  0     **** SEP Y 9
     8 LYP4        3 GROUP        1 Y    LYP  0     **** LYP Y 11
     9 ZIP7        6 GROUP        1 Y    ZIP  0     **** ZIP Y 12
    10 GLP5       33 GROUP        1 Y    GLP  0     **** GLP Y 13
    11 ALL1       57 GROUP        1 Z    ALL  0     ROOT ALL Z 15
    12 SEL2        8 GROUP        1 Z    SEL  0     **** SEL Z 16
    13 LYL4        2 GROUP        1 Z    LYL  0     **** LYL Z 18
    14 ZIL7        5 GROUP        1 Z    ZIL  0     **** ZIL Z 19
    15 GLL5       32 GROUP        1 Z    GLL  0     **** GLL Z 20
@<TRIPOS>SET

