#    Name: 2v1u_ADP_1_ligand
#    Modification time : Tue Mar 25 00:44:08 2014

@<TRIPOS>MOLECULE
2v1u_ADP_1_ligand
   39    41     1     0     0
SMALL
NO_CHARGES


@<TRIPOS>ATOM
      1 PB        -11.6440  -19.1670  -18.5170 P.3       1 ADP1400     0.0000 
      2 O1B       -12.8300  -19.3380  -17.5960 O.co2     1 ADP1400     0.0000 
      3 O2B       -10.3190  -19.6690  -17.9920 O.co2     1 ADP1400     0.0000 
      4 O3B       -11.9520  -19.5620  -19.9420 O.co2     1 ADP1400     0.0000 
      5 PA        -10.9600  -16.8180  -19.9140 P.3       1 ADP1400     0.0000 
      6 O1A       -12.2800  -16.5700  -20.6040 O.co2     1 ADP1400     0.0000 
      7 O2A        -9.8280  -17.5170  -20.6250 O.co2     1 ADP1400     0.0000 
      8 O3A       -11.3350  -17.5850  -18.5490 O.3       1 ADP1400     0.0000 
      9 O5'       -10.3280  -15.4340  -19.3970 O.3       1 ADP1400     0.0000 
     10 C5'       -11.1860  -14.5030  -18.7440 C.3       1 ADP1400     0.0000 
     11 C4'       -11.0040  -13.1370  -19.3900 C.3       1 ADP1400     0.0000 
     12 O4'        -9.6390  -12.7610  -19.2290 O.3       1 ADP1400     0.0000 
     13 C3'       -11.2960  -13.2020  -20.8820 C.3       1 ADP1400     0.0000 
     14 O3'       -12.2120  -12.1560  -21.2200 O.3       1 ADP1400     0.0000 
     15 C2'        -9.9640  -12.9740  -21.5770 C.3       1 ADP1400     0.0000 
     16 O2'       -10.0670  -11.9000  -22.5130 O.3       1 ADP1400     0.0000 
     17 C1'        -9.0030  -12.5430  -20.4840 C.3       1 ADP1400     0.0000 
     18 N9         -7.7490  -13.3310  -20.5100 N.pl3     1 ADP1400     0.0000 
     19 C8         -7.5490  -14.5050  -19.8920 C.2       1 ADP1400     0.0000 
     20 N7         -6.2720  -14.9310  -20.0470 N.2       1 ADP1400     0.0000 
     21 C5         -5.6130  -13.9940  -20.7570 C.ar      1 ADP1400     0.0000 
     22 C6         -4.2390  -13.8120  -21.2890 C.ar      1 ADP1400     0.0000 
     23 N6         -3.2710  -14.7370  -21.0810 N.pl3     1 ADP1400     0.0000 
     24 N1         -3.9930  -12.6920  -22.0020 N.ar      1 ADP1400     0.0000 
     25 C2         -4.9400  -11.7660  -22.2210 C.ar      1 ADP1400     0.0000 
     26 N3         -6.2040  -11.8610  -21.7850 N.ar      1 ADP1400     0.0000 
     27 C4         -6.6000  -12.9340  -21.0610 C.ar      1 ADP1400     0.0000 
     28 H         -10.9498  -14.4071  -17.6814 H         1 ADP1400     0.0000 
     29 H         -12.2381  -14.7827  -18.8387 H         1 ADP1400     0.0000 
     30 H         -11.6609  -12.4405  -18.9318 H         1 ADP1400     0.0000 
     31 H         -11.6544  -14.1638  -21.1197 H         1 ADP1400     0.0000 
     32 H          -9.6249  -13.8707  -21.9997 H         1 ADP1400     0.0000 
     33 H          -8.7795  -11.4993  -20.6179 H         1 ADP1400     0.0000 
     34 H          -8.2363  -14.9989  -19.3891 H         1 ADP1400     0.0000 
     35 H          -2.3412  -14.3846  -20.9749 H         1 ADP1400     0.0000 
     36 H          -3.5721  -15.6901  -21.0520 H         1 ADP1400     0.0000 
     37 H          -4.6662  -10.8924  -22.7822 H         1 ADP1400     0.0000 
     38 H         -12.8975  -12.5911  -21.8036 H         1 ADP1400     0.0000 
     39 H         -10.9898  -11.5355  -22.3879 H         1 ADP1400     0.0000 
@<TRIPOS>BOND
     1    2    1 ar   
     2    3    1 ar   
     3    4    1 ar   
     4    8    1 1    
     5    6    5 ar   
     6    7    5 ar   
     7    8    5 1    
     8    9    5 1    
     9   10    9 1    
    10   11   10 1    
    11   28   10 1    
    12   29   10 1    
    13   12   11 1    
    14   13   11 1    
    15   30   11 1    
    16   17   12 1    
    17   14   13 1    
    18   15   13 1    
    19   31   13 1    
    20   38   14 1    
    21   16   15 1    
    22   17   15 1    
    23   32   15 1    
    24   39   16 1    
    25   18   17 1    
    26   33   17 1    
    27   19   18 1    
    28   27   18 1    
    29   20   19 2    
    30   34   19 1    
    31   21   20 1    
    32   22   21 ar   
    33   27   21 ar   
    34   23   22 1    
    35   24   22 ar   
    36   35   23 1    
    37   36   23 1    
    38   25   24 ar   
    39   26   25 ar   
    40   37   25 1    
    41   27   26 ar   
@<TRIPOS>SUBSTRUCTURE
     1 ADP1400     1 GROUP   
@<TRIPOS>SET

