#    Name: 3w22_2RO_2_INTS_M
#    Modification time : Tue Mar 25 02:00:59 2014

@<TRIPOS>MOLECULE
3w22_2RO_2_INTS_M
   51     0    12     0     0
SMALL
NO_CHARGES


@<TRIPOS>ATOM
      1 NZ         -7.6665  -16.0750   14.9580 N.4       3 LYC4        0.0000 
      2 NZ         -6.3650  -15.7930   14.3300 N.4      11 LYL4        0.0000 
      3 NZ         -8.9680  -16.3570   15.5860 N.4       7 LYP4        0.0000 
      4 N          -5.9150  -17.0525   13.5780 N.am      2 SEC2        0.0000 
      5 N          -6.3650  -15.7930   14.3300 N.am     10 SEL2        0.0000 
      6 N          -5.4650  -18.3120   12.8260 N.am      6 SEP2        0.0000 
      7 N          -7.6665  -16.0750   14.9580 N.am      2 SEC2        0.0000 
      8 N          -8.9680  -16.3570   15.5860 N.am      6 SEP2        0.0000 
      9 N          -3.6050  -16.3770   14.3015 N.am      2 SEC2        0.0000 
     10 N          -4.2170  -15.0010   14.4340 N.am     10 SEL2        0.0000 
     11 N          -2.9930  -17.7530   14.1690 N.am      6 SEP2        0.0000 
     12 CA         -7.1720  -13.2735   15.9525 C.3       4 GLC5        0.0000 
     13 CA         -5.9770  -13.4690   14.2240 C.3      12 GLL5        0.0000 
     14 CA         -8.3670  -13.0780   17.6810 C.3       8 GLP5        0.0000 
     15 O          -4.5635  -12.9845   16.2880 O.2       1 ALC1        0.0000 
     16 O          -5.5380  -12.6020   15.2510 O.2       9 ALL1        0.0000 
     17 O          -3.5890  -13.3670   17.3250 O.2       5 ALP1        0.0000 
     18 N          -4.7320  -10.9980   17.2885 N.am      2 SEC2        0.0000 
     19 N          -5.4960  -10.5320   16.1760 N.am     10 SEL2        0.0000 
     20 N          -3.9680  -11.4640   18.4010 N.am      6 SEP2        0.0000 
     21 N          -4.8615   -9.2920   15.9790 N.am      2 SEC2        0.0000 
     22 N          -4.2270   -8.0520   15.7820 N.am      6 SEP2        0.0000 
     23 O          -7.0700   -9.4565   14.2590 O.2       1 ALC1        0.0000 
     24 O          -6.7580  -10.8140   14.2790 O.2       9 ALL1        0.0000 
     25 O          -7.3820   -8.0990   14.2390 O.2       5 ALP1        0.0000 
     26 N          -9.0610  -11.3200   11.4490 N.am      2 SEC2        0.0000 
     27 N          -7.9150  -11.0730   12.4330 N.am     10 SEL2        0.0000 
     28 N         -10.2070  -11.5670   10.4650 N.am      6 SEP2        0.0000 
     29 N          -8.2465   -9.6590   12.3685 N.am      2 SEC2        0.0000 
     30 N          -8.5780   -8.2450   12.3040 N.am      6 SEP2        0.0000 
     31 CA         -5.6705  -16.7880    6.7345 C.3       4 GLC5        0.0000 
     32 CA         -4.9910  -15.6460    8.2560 C.3      12 GLL5        0.0000 
     33 CA         -6.3500  -17.9300    5.2130 C.3       8 GLP5        0.0000 
     34 CA         -2.4340  -18.1425   11.0615 C.3       4 GLC5        0.0000 
     35 CA         -1.7960  -17.7330    9.2060 C.3      12 GLL5        0.0000 
     36 CA         -3.0720  -18.5520   12.9170 C.3       8 GLP5        0.0000 
     37 CA         -4.9665  -18.0340    6.3435 C.3       4 GLC5        0.0000 
     38 CA         -3.5830  -18.1380    7.4740 C.3      12 GLL5        0.0000 
     39 CA         -3.3475  -17.0505   11.5770 C.3       4 GLC5        0.0000 
     40 CA         -3.6230  -15.5490   10.2370 C.3      12 GLL5        0.0000 
     41 CA         -8.0243  -15.2742   11.2548 C.3       4 GLC5        0.0000 
     42 CA         -7.2360  -13.9240   12.1280 C.3      12 GLL5        0.0000 
     43 CA         -9.0640  -16.9060   11.0510 C.3       8 GLP5        0.0000 
     44 CA         -5.5760  -14.8070    6.5832 C.3       4 GLC5        0.0000 
     45 CA         -5.9410  -14.7600    8.8770 C.3      12 GLL5        0.0000 
     46 CA         -5.6860  -14.4110    4.6000 C.3       8 GLP5        0.0000 
     47 CA         -6.6851  -16.2407    8.8705 C.3       4 GLC5        0.0000 
     48 CA         -7.9530  -17.4070    8.8480 C.3       8 GLP5        0.0000 
     49 CA         -5.5401  -16.7680   10.5714 C.3       4 GLC5        0.0000 
     50 CA         -3.8040  -16.0730    8.9240 C.3      12 GLL5        0.0000 
     51 CA         -6.9400  -18.2890   10.9400 C.3       8 GLP5        0.0000 
@<TRIPOS>BOND
@<TRIPOS>SUBSTRUCTURE
     1 ALC1       15 GROUP        1 X    ALC  0     ROOT ALC X 1
     2 SEC2        4 GROUP        1 X    SEC  0     **** SEC X 2
     3 LYC4        1 GROUP        1 X    LYC  0     **** LYC X 4
     4 GLC5       12 GROUP        1 X    GLC  0     **** GLC X 6
     5 ALP1       17 GROUP        1 Y    ALP  0     ROOT ALP Y 8
     6 SEP2        6 GROUP        1 Y    SEP  0     **** SEP Y 9
     7 LYP4        3 GROUP        1 Y    LYP  0     **** LYP Y 11
     8 GLP5       14 GROUP        1 Y    GLP  0     **** GLP Y 13
     9 ALL1       16 GROUP        1 Z    ALL  0     ROOT ALL Z 15
    10 SEL2        5 GROUP        1 Z    SEL  0     **** SEL Z 16
    11 LYL4        2 GROUP        1 Z    LYL  0     **** LYL Z 18
    12 GLL5       13 GROUP        1 Z    GLL  0     **** GLL Z 20
@<TRIPOS>SET

