#    Name: 3w22_2RO_2_ligand
#    Modification time : Tue Mar 25 02:00:59 2014

@<TRIPOS>MOLECULE
3w22_2RO_2_ligand
   42    43     1     0     0
SMALL
NO_CHARGES


@<TRIPOS>ATOM
      1 OAD        -6.3650  -15.7930   14.3300 O.co2     1 2RO401      0.0000 
      2 CAP        -5.4960  -14.8230   14.3270 C.2       1 2RO401      0.0000 
      3 OAG        -4.2170  -15.0010   14.4340 O.co2     1 2RO401      0.0000 
      4 CAS        -5.9770  -13.4690   14.2240 C.2       1 2RO401      0.0000 
      5 NAN        -5.5380  -12.6020   15.2510 N.am      1 2RO401      0.0000 
      6 CAU        -5.9320  -11.2970   15.3120 C.2       1 2RO401      0.0000 
      7 OAE        -5.4960  -10.5320   16.1760 O.2       1 2RO401      0.0000 
      8 NAO        -6.7580  -10.8140   14.2790 N.am      1 2RO401      0.0000 
      9 CAV        -7.1940  -11.6470   13.2500 C.2       1 2RO401      0.0000 
     10 OAF        -7.9150  -11.0730   12.4330 O.2       1 2RO401      0.0000 
     11 CAT        -6.8260  -13.0050   13.1970 C.2       1 2RO401      0.0000 
     12 CAM        -7.2360  -13.9240   12.1280 C.3       1 2RO401      0.0000 
     13 CAL        -6.7330  -13.3610   10.7890 C.3       1 2RO401      0.0000 
     14 CAQ        -5.7460  -14.2460   10.1830 C.ar      1 2RO401      0.0000 
     15 CAH        -5.9410  -14.7600    8.8770 C.ar      1 2RO401      0.0000 
     16 CAJ        -4.9910  -15.6460    8.2560 C.ar      1 2RO401      0.0000 
     17 CAR        -3.8040  -16.0730    8.9240 C.ar      1 2RO401      0.0000 
     18 CAW        -2.8320  -17.0050    8.2480 C.3       1 2RO401      0.0000 
     19 CAB        -1.7960  -17.7330    9.2060 C.3       1 2RO401      0.0000 
     20 CAC        -3.5830  -18.1380    7.4740 C.3       1 2RO401      0.0000 
     21 CAA        -2.0320  -16.2070    7.1840 C.3       1 2RO401      0.0000 
     22 CAK        -3.6230  -15.5490   10.2370 C.ar      1 2RO401      0.0000 
     23 CAI        -4.5670  -14.6830   10.8250 C.ar      1 2RO401      0.0000 
     24 H          -4.8945  -12.9914   15.9732 H         1 2RO401      0.0000 
     25 H          -7.0437   -9.8200   14.2895 H         1 2RO401      0.0000 
     26 H          -8.3157  -14.0081   12.0782 H         1 2RO401      0.0000 
     27 H          -6.8005  -14.9067   12.2695 H         1 2RO401      0.0000 
     28 H          -6.3072  -12.3677   10.9800 H         1 2RO401      0.0000 
     29 H          -7.6017  -13.2301   10.1312 H         1 2RO401      0.0000 
     30 H          -6.7850  -14.4975    8.3478 H         1 2RO401      0.0000 
     31 H          -5.1783  -15.9789    7.3006 H         1 2RO401      0.0000 
     32 H          -2.7776  -15.8142   10.7649 H         1 2RO401      0.0000 
     33 H          -4.3827  -14.3412   11.8012 H         1 2RO401      0.0000 
     34 H          -1.1799  -18.3349    8.6979 H         1 2RO401      0.0000 
     35 H          -1.2243  -17.0785    9.7007 H         1 2RO401      0.0000 
     36 H          -2.2568  -18.2965    9.8917 H         1 2RO401      0.0000 
     37 H          -2.9470  -18.7641    7.0229 H         1 2RO401      0.0000 
     38 H          -4.1538  -18.6886    8.0832 H         1 2RO401      0.0000 
     39 H          -4.1831  -17.7684    6.7646 H         1 2RO401      0.0000 
     40 H          -1.5161  -15.4549    7.5942 H         1 2RO401      0.0000 
     41 H          -1.3736  -16.7860    6.7030 H         1 2RO401      0.0000 
     42 H          -2.6319  -15.8073    6.4910 H         1 2RO401      0.0000 
@<TRIPOS>BOND
     1    2    1 ar   
     2    3    2 ar   
     3    4    2 1    
     4    5    4 1    
     5   11    4 2    
     6    6    5 am   
     7   24    5 1    
     8    7    6 2    
     9    8    6 am   
    10    9    8 am   
    11   25    8 1    
    12   10    9 2    
    13   11    9 1    
    14   12   11 1    
    15   13   12 1    
    16   26   12 1    
    17   27   12 1    
    18   14   13 1    
    19   28   13 1    
    20   29   13 1    
    21   15   14 ar   
    22   23   14 ar   
    23   16   15 ar   
    24   30   15 1    
    25   17   16 ar   
    26   31   16 1    
    27   18   17 1    
    28   22   17 ar   
    29   19   18 1    
    30   20   18 1    
    31   21   18 1    
    32   34   19 1    
    33   35   19 1    
    34   36   19 1    
    35   37   20 1    
    36   38   20 1    
    37   39   20 1    
    38   40   21 1    
    39   41   21 1    
    40   42   21 1    
    41   23   22 ar   
    42   32   22 1    
    43   33   23 1    
@<TRIPOS>SUBSTRUCTURE
     1 2RO401      1 GROUP   
@<TRIPOS>SET

