#    Name: 2h9i_EAD_1_INTS_M
#    Modification time : Tue Mar 25 15:45:19 2014

@<TRIPOS>MOLECULE
2h9i_EAD_1_INTS_M
  102     0     9     0     0
SMALL
NO_CHARGES


@<TRIPOS>ATOM
      1 N           1.5060   34.9255   10.5000 N.am      2 SEC2        0.0000 
      2 N           0.3480   34.3390   10.3730 N.am      8 SEL2        0.0000 
      3 N           2.6640   35.5120   10.6270 N.am      5 SEP2        0.0000 
      4 CA          2.7935   31.5540   12.4670 C.3       3 GLC5        0.0000 
      5 CA          1.4960   31.2410   13.8070 C.3       9 GLL5        0.0000 
      6 CA          4.0910   31.8670   11.1270 C.3       6 GLP5        0.0000 
      7 CA          2.5255   29.6415   12.3955 C.3       3 GLC5        0.0000 
      8 CA          1.5930   29.8200   14.1880 C.3       9 GLL5        0.0000 
      9 CA          3.4580   29.4630   10.6030 C.3       6 GLP5        0.0000 
     10 CA          3.1055   28.5400   15.1870 C.3       3 GLC5        0.0000 
     11 CA          4.6180   27.2600   16.1860 C.3       6 GLP5        0.0000 
     12 CA         -0.2545   30.5700   16.9325 C.3       3 GLC5        0.0000 
     13 CA          0.4820   29.7770   15.2530 C.3       9 GLL5        0.0000 
     14 CA         -0.9910   31.3630   18.6120 C.3       6 GLP5        0.0000 
     15 CA          0.5235   26.5935   20.5675 C.3       3 GLC5        0.0000 
     16 CA          0.8370   26.2970   18.6190 C.3       9 GLL5        0.0000 
     17 CA          0.2100   26.8900   22.5160 C.3       6 GLP5        0.0000 
     18 CA         -0.1230   28.0190   19.5875 C.3       3 GLC5        0.0000 
     19 CA         -1.0830   29.7410   20.5560 C.3       6 GLP5        0.0000 
     20 N           2.0225   26.3485   20.7580 N.am      2 SEC2        0.0000 
     21 N           1.7430   26.9950   19.3860 N.am      8 SEL2        0.0000 
     22 N           2.3020   25.7020   22.1300 N.am      5 SEP2        0.0000 
     23 CA          3.4585   27.7245   17.5800 C.3       3 GLC5        0.0000 
     24 CA          2.2990   28.1890   18.9740 C.3       9 GLL5        0.0000 
     25 CA          1.2545   27.5395   20.7450 C.3       3 GLC5        0.0000 
     26 CA          0.6080   28.9650   19.7650 C.3       3 GLC5        0.0000 
     27 CA          0.0065   29.7015   17.7400 C.3       3 GLC5        0.0000 
     28 CA          1.0040   28.0400   16.8680 C.3       9 GLL5        0.0000 
     29 N          -0.6840   37.6695   11.7960 N.am      2 SEC2        0.0000 
     30 N          -1.4010   36.3840   11.9340 N.am      8 SEL2        0.0000 
     31 N           0.0330   38.9550   11.6580 N.am      5 SEP2        0.0000 
     32 CA         -2.7905   37.4880   13.3030 C.3       3 GLC5        0.0000 
     33 CA         -2.7650   35.5090   14.3660 C.3       9 GLL5        0.0000 
     34 CA         -2.8160   39.4670   12.2400 C.3       6 GLP5        0.0000 
     35 CA         -3.3820   33.4515   16.6795 C.3       3 GLC5        0.0000 
     36 CA         -4.9240   34.5510   15.5980 C.3       9 GLL5        0.0000 
     37 CA         -1.8400   32.3520   17.7610 C.3       6 GLP5        0.0000 
     38 CA         -4.8400   32.5060   15.9470 C.3       3 GLC5        0.0000 
     39 CA         -4.7560   30.4610   16.2960 C.3       6 GLP5        0.0000 
     40 N          -6.9405   34.3425   17.0870 N.am      2 SEC2        0.0000 
     41 N          -5.3810   34.3950   16.9350 N.am      8 SEL2        0.0000 
     42 N          -8.5000   34.2900   17.2390 N.am      5 SEP2        0.0000 
     43 N          -5.0165   34.8650   18.1805 N.am      2 SEC2        0.0000 
     44 N          -4.6520   35.3350   19.4260 N.am      5 SEP2        0.0000 
     45 O          -6.2095   33.3500   17.7970 O.2       1 ALC1        0.0000 
     46 O          -5.3810   34.3950   16.9350 O.2       7 ALL1        0.0000 
     47 O          -7.0380   32.3050   18.6590 O.2       4 ALP1        0.0000 
     48 CA         -7.9125   34.3825   15.6300 C.3       3 GLC5        0.0000 
     49 CA         -6.0070   34.8400   14.6030 C.3       9 GLL5        0.0000 
     50 CA         -9.8180   33.9250   16.6570 C.3       6 GLP5        0.0000 
     51 N          -7.8865   34.2365   15.9090 N.am      2 SEC2        0.0000 
     52 N          -7.2730   34.1830   14.5790 N.am      8 SEL2        0.0000 
     53 CA         -5.5525   37.2295   16.1670 C.3       3 GLC5        0.0000 
     54 CA         -6.0950   36.3430   14.7240 C.3       9 GLL5        0.0000 
     55 CA         -5.0100   38.1160   17.6100 C.3       6 GLP5        0.0000 
     56 O          -6.8710   38.2605    7.7120 O.2       1 ALC1        0.0000 
     57 O          -7.9460   38.0510    8.8840 O.2       7 ALL1        0.0000 
     58 O          -5.7960   38.4700    6.5400 O.2       4 ALP1        0.0000 
     59 CA         -8.4970   40.2380   13.3865 C.3       3 GLC5        0.0000 
     60 CA         -8.9470   38.1290   13.1150 C.3       9 GLL5        0.0000 
     61 CA         -8.0470   42.3470   13.6580 C.3       6 GLP5        0.0000 
     62 CA         -8.8470   37.7035   16.1035 C.3       3 GLC5        0.0000 
     63 CA         -8.0810   37.5550   14.0510 C.3       9 GLL5        0.0000 
     64 CA         -9.6130   37.8520   18.1560 C.3       6 GLP5        0.0000 
     65 CA        -12.5115   40.7070    9.5260 C.3       3 GLC5        0.0000 
     66 CA        -13.0990   39.5270   11.0570 C.3       9 GLL5        0.0000 
     67 CA        -11.9240   41.8870    7.9950 C.3       6 GLP5        0.0000 
     68 CA        -14.4860   36.1140   12.1020 C.3       3 GLC5        0.0000 
     69 CA        -14.9640   36.4000   10.0300 C.3       9 GLL5        0.0000 
     70 CA        -14.0080   35.8280   14.1740 C.3       6 GLP5        0.0000 
     71 CA        -16.5445   36.3660    7.2655 C.3       3 GLC5        0.0000 
     72 CA        -15.9170   37.0530    9.0110 C.3       9 GLL5        0.0000 
     73 CA        -17.1720   35.6790    5.5200 C.3       6 GLP5        0.0000 
     74 CA        -15.9335   39.0745    9.0635 C.3       3 GLC5        0.0000 
     75 CA        -15.9500   41.0960    9.1160 C.3       6 GLP5        0.0000 
     76 CA         -0.9500   32.3420   16.0065 C.3       3 GLC5        0.0000 
     77 CA          0.2950   31.7420   14.5780 C.3       9 GLL5        0.0000 
     78 CA          1.6240   33.0328   15.4192 C.3       3 GLC5        0.0000 
     79 CA         -0.4150   32.9220   13.9260 C.3       9 GLL5        0.0000 
     80 CA          2.5300   34.2790   16.8090 C.3       6 GLP5        0.0000 
     81 CA          2.6723   27.3495   16.6410 C.3       3 GLC5        0.0000 
     82 CA         -1.2065   26.6947   18.2338 C.3       3 GLC5        0.0000 
     83 CA          0.4490   26.8380   17.3240 C.3       9 GLL5        0.0000 
     84 CA         -3.0560   26.8220   18.4960 C.3       6 GLP5        0.0000 
     85 CA         -2.3818   35.8280   16.6677 C.3       3 GLC5        0.0000 
     86 CA         -1.4160   36.0330   18.4910 C.3       6 GLP5        0.0000 
     87 CA         -4.7185   36.6300   16.5352 C.3       3 GLC5        0.0000 
     88 CA         -3.9300   35.7370   15.3230 C.3       9 GLL5        0.0000 
     89 CA        -10.3239   37.7240   13.7427 C.3       3 GLC5        0.0000 
     90 CA        -12.1990   37.6120   14.2610 C.3       6 GLP5        0.0000 
     91 CA        -12.3165   38.4683   12.7012 C.3       3 GLC5        0.0000 
     92 CA        -11.7690   39.1220   11.2260 C.3       9 GLL5        0.0000 
     93 CA        -11.7510   41.2088   10.8773 C.3       3 GLC5        0.0000 
     94 CA        -11.0680   43.0930   10.6130 C.3       6 GLP5        0.0000 
     95 CA        -10.7588   39.4720    9.5723 C.3       3 GLC5        0.0000 
     96 CA         -9.9280   40.5080    8.0360 C.3       6 GLP5        0.0000 
     97 CA        -12.5251   37.4441   12.4355 C.3       3 GLC5        0.0000 
     98 CA        -11.4100   37.7500   10.9910 C.3       9 GLL5        0.0000 
     99 CA        -16.4682   35.5382   10.3402 C.3       3 GLC5        0.0000 
    100 CA        -17.4960   34.3500   11.1600 C.3       6 GLP5        0.0000 
    101 CA        -14.9038   35.4457    8.5627 C.3       3 GLC5        0.0000 
    102 CA        -14.3670   34.1650    7.6050 C.3       6 GLP5        0.0000 
@<TRIPOS>BOND
@<TRIPOS>SUBSTRUCTURE
     1 ALC1       45 GROUP        1 X    ALC  0     ROOT ALC X 1
     2 SEC2        1 GROUP        1 X    SEC  0     **** SEC X 2
     3 GLC5        4 GROUP        1 X    GLC  0     **** GLC X 6
     4 ALP1       47 GROUP        1 Y    ALP  0     ROOT ALP Y 8
     5 SEP2        3 GROUP        1 Y    SEP  0     **** SEP Y 9
     6 GLP5        6 GROUP        1 Y    GLP  0     **** GLP Y 13
     7 ALL1       46 GROUP        1 Z    ALL  0     ROOT ALL Z 15
     8 SEL2        2 GROUP        1 Z    SEL  0     **** SEL Z 16
     9 GLL5        5 GROUP        1 Z    GLL  0     **** GLL Z 20
@<TRIPOS>SET

