#    Name: 2h9i_EAD_1_ligand
#    Modification time : Tue Mar 25 15:45:19 2014

@<TRIPOS>MOLECULE
2h9i_EAD_1_ligand
   89    94     1     0     0
SMALL
NO_CHARGES


@<TRIPOS>ATOM
      1 P1         -0.6000   33.5150   11.1500 P.3       1 EAD300      0.0000 
      2 O1         -0.9360   32.1370   10.6240 O.co2     1 EAD300      0.0000 
      3 O2          0.3480   34.3390   10.3730 O.co2     1 EAD300      0.0000 
      4 O3          0.0520   33.5410   12.6680 O.3       1 EAD300      0.0000 
      5 C1         -0.4150   32.9220   13.9260 C.3       1 EAD300      0.0000 
      6 C2          0.2950   31.7420   14.5780 C.3       1 EAD300      0.0000 
      7 O4         -0.5220   30.5020   14.6370 O.3       1 EAD300      0.0000 
      8 C3          1.4960   31.2410   13.8070 C.3       1 EAD300      0.0000 
      9 O5          2.6270   31.9920   14.2030 O.3       1 EAD300      0.0000 
     10 C4          1.5930   29.8200   14.1880 C.3       1 EAD300      0.0000 
     11 O6          2.8850   29.3110   14.5130 O.3       1 EAD300      0.0000 
     12 C5          0.4820   29.7770   15.2530 C.3       1 EAD300      0.0000 
     13 N1          0.4660   28.2540   15.6100 N.pl3     1 EAD300      0.0000 
     14 C6         -0.3720   27.2020   15.4710 C.2       1 EAD300      0.0000 
     15 N2         -0.3790   26.3370   16.4870 N.2       1 EAD300      0.0000 
     16 C7          0.4490   26.8380   17.3240 C.ar      1 EAD300      0.0000 
     17 C8          0.8370   26.2970   18.6190 C.ar      1 EAD300      0.0000 
     18 N3          0.3490   25.2850   18.9320 N.pl3     1 EAD300      0.0000 
     19 N4          1.7430   26.9950   19.3860 N.ar      1 EAD300      0.0000 
     20 C9          2.2990   28.1890   18.9740 C.ar      1 EAD300      0.0000 
     21 N5          1.9750   28.7280   17.7600 N.ar      1 EAD300      0.0000 
     22 C10         1.0040   28.0400   16.8680 C.ar      1 EAD300      0.0000 
     23 O7         -1.9960   34.2570   11.0480 O.3       1 EAD300      0.0000 
     24 P2         -2.6300   35.5610   11.7080 P.3       1 EAD300      0.0000 
     25 O8         -3.7450   36.1180   10.8680 O.co2     1 EAD300      0.0000 
     26 O9         -1.4010   36.3840   11.9340 O.co2     1 EAD300      0.0000 
     27 O10        -3.2010   35.0250   13.1000 O.3       1 EAD300      0.0000 
     28 C11        -2.7650   35.5090   14.3660 C.3       1 EAD300      0.0000 
     29 C12        -3.9300   35.7370   15.3230 C.3       1 EAD300      0.0000 
     30 O11        -4.7420   36.8010   14.7470 O.3       1 EAD300      0.0000 
     31 C13        -4.9240   34.5510   15.5980 C.3       1 EAD300      0.0000 
     32 O12        -5.3810   34.3950   16.9350 O.3       1 EAD300      0.0000 
     33 C14        -6.0070   34.8400   14.6030 C.3       1 EAD300      0.0000 
     34 O13        -7.2730   34.1830   14.5790 O.3       1 EAD300      0.0000 
     35 C15        -6.0950   36.3430   14.7240 C.3       1 EAD300      0.0000 
     36 N6         -6.8950   36.9320   13.6090 N.4       1 EAD300      0.0000 
     37 C16        -6.5380   36.8950   12.2020 C.2       1 EAD300      0.0000 
     38 C17        -7.4170   37.4840   11.2180 C.2       1 EAD300      0.0000 
     39 C18        -7.0520   37.4700    9.6980 C.2       1 EAD300      0.0000 
     40 O14        -5.9960   36.9570    9.2890 O.2       1 EAD300      0.0000 
     41 N7         -7.9460   38.0510    8.8840 N.am      1 EAD300      0.0000 
     42 C19        -8.6860   38.1050   11.6810 C.3       1 EAD300      0.0000 
     43 C20        -8.9470   38.1290   13.1150 C.2       1 EAD300      0.0000 
     44 C21        -8.0810   37.5550   14.0510 C.2       1 EAD300      0.0000 
     45 C22        -9.9550   37.2320   11.1810 C.2       1 EAD300      0.0000 
     46 O15        -9.7680   35.9860   10.9450 O.2       1 EAD300      0.0000 
     47 N8        -14.0490   38.5950   10.6740 N.ar      1 EAD300      0.0000 
     48 C23       -13.0990   39.5270   11.0570 C.ar      1 EAD300      0.0000 
     49 C24       -11.7690   39.1220   11.2260 C.ar      1 EAD300      0.0000 
     50 C25       -11.4100   37.7500   10.9910 C.ar      1 EAD300      0.0000 
     51 C26       -12.4350   36.8010   10.5810 C.ar      1 EAD300      0.0000 
     52 C27       -13.7800   37.2770   10.4340 C.ar      1 EAD300      0.0000 
     53 C28       -14.9640   36.4000   10.0300 C.3       1 EAD300      0.0000 
     54 C29       -15.9170   37.0530    9.0110 C.3       1 EAD300      0.0000 
     55 H          -1.5168   32.6204   13.7996 H         1 EAD300      0.0000 
     56 H          -0.5051   33.7414   14.7268 H         1 EAD300      0.0000 
     57 H           0.6207   31.9841   15.5712 H         1 EAD300      0.0000 
     58 H           1.2730   31.3254   12.7716 H         1 EAD300      0.0000 
     59 H           1.1367   29.2613   13.3168 H         1 EAD300      0.0000 
     60 H           0.9507   30.3042   16.0970 H         1 EAD300      0.0000 
     61 H          -0.9517   27.0864   14.6477 H         1 EAD300      0.0000 
     62 H           0.6530   24.9009   19.8038 H         1 EAD300      0.0000 
     63 H          -0.3232   24.9055   18.2963 H         1 EAD300      0.0000 
     64 H           2.9704   28.6792   19.5971 H         1 EAD300      0.0000 
     65 H          -2.2210   36.4677   14.2693 H         1 EAD300      0.0000 
     66 H          -2.0674   34.8017   14.8532 H         1 EAD300      0.0000 
     67 H          -3.5533   36.0826   16.2798 H         1 EAD300      0.0000 
     68 H          -4.3973   33.6575   15.2198 H         1 EAD300      0.0000 
     69 H          -5.4858   34.7204   13.5805 H         1 EAD300      0.0000 
     70 H          -6.5780   36.5589   15.6735 H         1 EAD300      0.0000 
     71 H          -6.1882   38.1812   13.7874 H         1 EAD300      0.0000 
     72 H          -5.6756   36.4573   11.9146 H         1 EAD300      0.0000 
     73 H          -7.7183   38.0530    7.9103 H         1 EAD300      0.0000 
     74 H          -8.7602   38.4302    9.3237 H         1 EAD300      0.0000 
     75 H          -8.8560   39.0726   11.2523 H         1 EAD300      0.0000 
     76 H          -9.8165   38.5965   13.4290 H         1 EAD300      0.0000 
     77 H          -8.3002   37.5837   15.0467 H         1 EAD300      0.0000 
     78 H         -13.3590   40.5035   11.2167 H         1 EAD300      0.0000 
     79 H         -11.0506   39.7807   11.5123 H         1 EAD300      0.0000 
     80 H         -12.1984   35.8476   10.4093 H         1 EAD300      0.0000 
     81 H         -15.5409   36.1357   10.9314 H         1 EAD300      0.0000 
     82 H         -14.5850   35.4572    9.6026 H         1 EAD300      0.0000 
     83 H         -15.4476   37.2845    8.1589 H         1 EAD300      0.0000 
     84 H         -16.6765   36.4479    8.7722 H         1 EAD300      0.0000 
     85 H         -16.3162   37.8988    9.3649 H         1 EAD300      0.0000 
     86 H           3.3652   31.3228   14.2878 H         1 EAD300      0.0000 
     87 H           2.8469   29.1149   15.4928 H         1 EAD300      0.0000 
     88 H          -5.7754   33.4766   16.9681 H         1 EAD300      0.0000 
     89 H          -7.0736   33.2478   14.2863 H         1 EAD300      0.0000 
@<TRIPOS>BOND
     1    2    1 ar   
     2    3    1 ar   
     3    4    1 1    
     4   23    1 1    
     5    5    4 1    
     6    6    5 1    
     7   55    5 1    
     8   56    5 1    
     9    7    6 1    
    10    8    6 1    
    11   57    6 1    
    12   12    7 1    
    13    9    8 1    
    14   10    8 1    
    15   58    8 1    
    16   86    9 1    
    17   11   10 1    
    18   12   10 1    
    19   59   10 1    
    20   87   11 1    
    21   13   12 1    
    22   60   12 1    
    23   14   13 1    
    24   22   13 1    
    25   15   14 2    
    26   61   14 1    
    27   16   15 1    
    28   17   16 ar   
    29   22   16 ar   
    30   18   17 1    
    31   19   17 ar   
    32   62   18 1    
    33   63   18 1    
    34   20   19 ar   
    35   21   20 ar   
    36   64   20 1    
    37   22   21 ar   
    38   24   23 1    
    39   25   24 ar   
    40   26   24 ar   
    41   27   24 1    
    42   28   27 1    
    43   29   28 1    
    44   65   28 1    
    45   66   28 1    
    46   30   29 1    
    47   31   29 1    
    48   67   29 1    
    49   35   30 1    
    50   32   31 1    
    51   33   31 1    
    52   68   31 1    
    53   88   32 1    
    54   34   33 1    
    55   35   33 1    
    56   69   33 1    
    57   89   34 1    
    58   36   35 1    
    59   70   35 1    
    60   37   36 1    
    61   44   36 1    
    62   71   36 1    
    63   38   37 2    
    64   72   37 1    
    65   39   38 1    
    66   42   38 1    
    67   40   39 2    
    68   41   39 am   
    69   73   41 1    
    70   74   41 1    
    71   43   42 1    
    72   45   42 1    
    73   75   42 1    
    74   44   43 2    
    75   76   43 1    
    76   77   44 1    
    77   46   45 2    
    78   50   45 1    
    79   48   47 ar   
    80   52   47 ar   
    81   49   48 ar   
    82   78   48 1    
    83   50   49 ar   
    84   79   49 1    
    85   51   50 ar   
    86   52   51 ar   
    87   80   51 1    
    88   53   52 1    
    89   54   53 1    
    90   81   53 1    
    91   82   53 1    
    92   83   54 1    
    93   84   54 1    
    94   85   54 1    
@<TRIPOS>SUBSTRUCTURE
     1 EAD300      1 GROUP   
@<TRIPOS>SET

