#    Name: 1hto_AMP_16_INTS_M
#    Modification time : Tue Mar 25 05:59:08 2014

@<TRIPOS>MOLECULE
1hto_AMP_16_INTS_M
   39     0     9     0     0
SMALL
NO_CHARGES


@<TRIPOS>ATOM
      1 N         179.0670  -19.0580   24.4830 N.am      2 SEC2        0.0000 
      2 N         179.7070  -18.4530   23.5700 N.am      8 SEL2        0.0000 
      3 N         178.4270  -19.6630   25.3960 N.am      5 SEP2        0.0000 
      4 CA        180.8885  -20.9090   25.8705 C.3       3 GLC5        0.0000 
      5 CA        182.3110  -21.3500   24.3640 C.3       9 GLL5        0.0000 
      6 CA        179.4660  -20.4680   27.3770 C.3       6 GLP5        0.0000 
      7 O         184.4640  -21.8245   28.0295 O.2       1 ALC1        0.0000 
      8 O         183.3580  -22.2890   27.0800 O.2       7 ALL1        0.0000 
      9 O         185.5700  -21.3600   28.9790 O.2       4 ALP1        0.0000 
     10 CA        186.2610  -24.8400   25.5225 C.3       3 GLC5        0.0000 
     11 CA        184.6960  -23.6170   25.1920 C.3       9 GLL5        0.0000 
     12 CA        187.8260  -26.0630   25.8530 C.3       6 GLP5        0.0000 
     13 N         186.4590  -24.0855   27.2385 N.am      2 SEC2        0.0000 
     14 N         185.8890  -23.5750   25.9360 N.am      8 SEL2        0.0000 
     15 N         187.0290  -24.5960   28.5410 N.am      5 SEP2        0.0000 
     16 CA        184.8715  -25.7190   26.3600 C.3       3 GLC5        0.0000 
     17 CA        183.6570  -24.8080   25.1410 C.3       9 GLL5        0.0000 
     18 CA        186.0860  -26.6300   27.5790 C.3       6 GLP5        0.0000 
     19 CA        182.1590  -25.3895   24.5965 C.3       3 GLC5        0.0000 
     20 CA        180.6610  -25.9710   24.0520 C.3       6 GLP5        0.0000 
     21 CA        183.2455  -25.4970   23.1485 C.3       3 GLC5        0.0000 
     22 CA        182.8340  -26.1860   21.1560 C.3       6 GLP5        0.0000 
     23 O         185.6810  -31.0820   22.5130 O.2       1 ALC1        0.0000 
     24 O         186.2570  -30.1210   22.6640 O.2       7 ALL1        0.0000 
     25 O         185.1050  -32.0430   22.3620 O.2       4 ALP1        0.0000 
     26 CA        184.9605  -26.5000   21.6375 C.3       3 GLC5        0.0000 
     27 CA        187.0870  -26.8140   22.1190 C.3       9 GLL5        0.0000 
     28 CA        180.9898  -22.8370   24.4937 C.3       3 GLC5        0.0000 
     29 CA        182.5920  -22.6900   24.9550 C.3       9 GLL5        0.0000 
     30 CA        179.5280  -23.6540   24.3280 C.3       6 GLP5        0.0000 
     31 CA        185.8895  -29.8995   24.7453 C.3       3 GLC5        0.0000 
     32 CA        185.2470  -28.2750   23.6030 C.3       9 GLL5        0.0000 
     33 CA        186.0420  -31.2100   26.3180 C.3       6 GLP5        0.0000 
     34 CA        185.6753  -27.0847   25.6008 C.3       3 GLC5        0.0000 
     35 CA        184.7970  -30.2195   22.4808 C.3       3 GLC5        0.0000 
     36 CA        183.8570  -31.8500   21.7890 C.3       6 GLP5        0.0000 
     37 CA        184.0493  -26.8627   22.3893 C.3       3 GLC5        0.0000 
     38 CA        183.0485  -24.5244   26.6527 C.3       3 GLC5        0.0000 
     39 CA        182.4210  -25.6580   28.0510 C.3       6 GLP5        0.0000 
@<TRIPOS>BOND
@<TRIPOS>SUBSTRUCTURE
     1 ALC1        7 GROUP        1 X    ALC  0     ROOT ALC X 1
     2 SEC2        1 GROUP        1 X    SEC  0     **** SEC X 2
     3 GLC5        4 GROUP        1 X    GLC  0     **** GLC X 6
     4 ALP1        9 GROUP        1 Y    ALP  0     ROOT ALP Y 8
     5 SEP2        3 GROUP        1 Y    SEP  0     **** SEP Y 9
     6 GLP5        6 GROUP        1 Y    GLP  0     **** GLP Y 13
     7 ALL1        8 GROUP        1 Z    ALL  0     ROOT ALL Z 15
     8 SEL2        2 GROUP        1 Z    SEL  0     **** SEL Z 16
     9 GLL5        5 GROUP        1 Z    GLL  0     **** GLL Z 20
@<TRIPOS>SET

