#    Name: 1hto_AMP_16_ligand
#    Modification time : Tue Mar 25 05:59:08 2014

@<TRIPOS>MOLECULE
1hto_AMP_16_ligand
   35    37     1     0     0
SMALL
NO_CHARGES


@<TRIPOS>ATOM
      1 P         181.0230  -19.2670   22.7960 P.3       1 AMP7505     0.0000 
      2 O1P       180.6020  -19.6870   21.3100 O.co2     1 AMP7505     0.0000 
      3 O2P       182.3750  -18.3470   22.8180 O.co2     1 AMP7505     0.0000 
      4 O3P       179.7070  -18.4530   23.5700 O.co2     1 AMP7505     0.0000 
      5 O5'       181.3550  -20.7610   23.4860 O.3       1 AMP7505     0.0000 
      6 C5'       182.3110  -21.3500   24.3640 C.3       1 AMP7505     0.0000 
      7 C4'       182.5920  -22.6900   24.9550 C.3       1 AMP7505     0.0000 
      8 O4'       182.8660  -23.9690   24.1410 O.3       1 AMP7505     0.0000 
      9 C3'       183.7590  -22.4480   25.7300 C.3       1 AMP7505     0.0000 
     10 O3'       183.3580  -22.2890   27.0800 O.3       1 AMP7505     0.0000 
     11 C2'       184.6960  -23.6170   25.1920 C.3       1 AMP7505     0.0000 
     12 O2'       185.8890  -23.5750   25.9360 O.3       1 AMP7505     0.0000 
     13 C1'       183.6570  -24.8080   25.1410 C.3       1 AMP7505     0.0000 
     14 N9        184.2260  -26.3720   24.5650 N.pl3     1 AMP7505     0.0000 
     15 C8        183.6820  -27.7230   24.9450 C.2       1 AMP7505     0.0000 
     16 N7        184.2470  -28.8370   24.4080 N.2       1 AMP7505     0.0000 
     17 C5        185.2470  -28.2750   23.6030 C.ar      1 AMP7505     0.0000 
     18 C6        186.2270  -28.9030   22.7420 C.ar      1 AMP7505     0.0000 
     19 N6        186.2570  -30.1210   22.6640 N.pl3     1 AMP7505     0.0000 
     20 N1        187.1220  -28.1710   22.0270 N.ar      1 AMP7505     0.0000 
     21 C2        187.0870  -26.8140   22.1190 C.ar      1 AMP7505     0.0000 
     22 N3        186.2250  -26.0140   22.8910 N.ar      1 AMP7505     0.0000 
     23 C4        185.2820  -26.8040   23.6420 C.ar      1 AMP7505     0.0000 
     24 H         182.3857  -20.5876   25.3341 H         1 AMP7505     0.0000 
     25 H         183.4155  -20.9832   23.9474 H         1 AMP7505     0.0000 
     26 H         181.7866  -22.9223   25.6904 H         1 AMP7505     0.0000 
     27 H         184.2035  -21.5178   25.3104 H         1 AMP7505     0.0000 
     28 H         184.8330  -23.3005   24.1270 H         1 AMP7505     0.0000 
     29 H         183.1715  -24.8710   26.0184 H         1 AMP7505     0.0000 
     30 H         182.9083  -27.7322   25.5935 H         1 AMP7505     0.0000 
     31 H         187.1157  -30.5581   22.9317 H         1 AMP7505     0.0000 
     32 H         185.4200  -30.5619   22.3401 H         1 AMP7505     0.0000 
     33 H         187.8135  -26.2602   21.5245 H         1 AMP7505     0.0000 
     34 H         184.1871  -22.0109   27.5651 H         1 AMP7505     0.0000 
     35 H         186.6182  -23.6988   25.2629 H         1 AMP7505     0.0000 
@<TRIPOS>BOND
     1    2    1 ar   
     2    3    1 ar   
     3    4    1 ar   
     4    5    1 1    
     5    6    5 1    
     6    7    6 1    
     7   24    6 1    
     8   25    6 1    
     9    8    7 1    
    10    9    7 1    
    11   26    7 1    
    12   13    8 1    
    13   10    9 1    
    14   11    9 1    
    15   27    9 1    
    16   34   10 1    
    17   12   11 1    
    18   13   11 1    
    19   28   11 1    
    20   35   12 1    
    21   14   13 1    
    22   29   13 1    
    23   15   14 1    
    24   23   14 1    
    25   16   15 2    
    26   30   15 1    
    27   17   16 1    
    28   18   17 ar   
    29   23   17 ar   
    30   19   18 1    
    31   20   18 ar   
    32   31   19 1    
    33   32   19 1    
    34   21   20 ar   
    35   22   21 ar   
    36   33   21 1    
    37   23   22 ar   
@<TRIPOS>SUBSTRUCTURE
     1 AMP7505     1 GROUP   
@<TRIPOS>SET

