#    Name: 4gc9_SAM_1_INTS_M
#    Modification time : Mon Mar 24 21:40:01 2014

@<TRIPOS>MOLECULE
4gc9_SAM_1_INTS_M
   76     0     9     0     0
SMALL
NO_CHARGES


@<TRIPOS>ATOM
      1 O         -16.1795  -32.6620  -15.4035 O.2       1 ALC1        0.0000 
      2 O         -17.6850  -32.0930  -15.1370 O.2       7 ALL1        0.0000 
      3 O         -14.6740  -33.2310  -15.6700 O.2       4 ALP1        0.0000 
      4 O         -18.2845  -31.5935  -16.2450 O.2       1 ALC1        0.0000 
      5 O         -18.8840  -31.0940  -17.3530 O.2       4 ALP1        0.0000 
      6 N         -17.1015  -34.4805  -11.8135 N.am      2 SEC2        0.0000 
      7 N         -18.5480  -33.7770  -12.2530 N.am      8 SEL2        0.0000 
      8 N         -15.6550  -35.1840  -11.3740 N.am      5 SEP2        0.0000 
      9 N         -16.2625  -34.7510  -12.3930 N.am      2 SEC2        0.0000 
     10 N         -16.8700  -34.3180  -13.4120 N.am      8 SEL2        0.0000 
     11 CA        -20.6930  -32.9000  -16.2115 C.3       3 GLC5        0.0000 
     12 CA        -19.0000  -34.1140  -15.5800 C.3       9 GLL5        0.0000 
     13 CA        -22.3860  -31.6860  -16.8430 C.3       6 GLP5        0.0000 
     14 CA        -20.7855  -34.7225  -15.6550 C.3       3 GLC5        0.0000 
     15 CA        -22.5710  -35.3310  -15.7300 C.3       6 GLP5        0.0000 
     16 CA        -14.7625  -37.6565  -15.9430 C.3       3 GLC5        0.0000 
     17 CA        -16.2510  -36.7830  -16.9570 C.3       9 GLL5        0.0000 
     18 CA        -13.2740  -38.5300  -14.9290 C.3       6 GLP5        0.0000 
     19 CA        -17.5080  -38.1650  -18.9755 C.3       3 GLC5        0.0000 
     20 CA        -18.3450  -36.1380  -18.6460 C.3       9 GLL5        0.0000 
     21 CA        -16.6710  -40.1920  -19.3050 C.3       6 GLP5        0.0000 
     22 CA        -20.5715  -34.2625  -19.6835 C.3       3 GLC5        0.0000 
     23 CA        -19.8300  -36.0130  -18.9420 C.3       9 GLL5        0.0000 
     24 CA        -21.3130  -32.5120  -20.4250 C.3       6 GLP5        0.0000 
     25 CA        -22.9065  -38.7990  -20.2955 C.3       3 GLC5        0.0000 
     26 CA        -21.0940  -37.5110  -20.3490 C.3       9 GLL5        0.0000 
     27 CA        -24.7190  -40.0870  -20.2420 C.3       6 GLP5        0.0000 
     28 N         -23.9225  -38.1425  -21.1125 N.am      2 SEC2        0.0000 
     29 N         -22.4550  -37.8410  -20.2830 N.am      8 SEL2        0.0000 
     30 N         -25.3900  -38.4440  -21.9420 N.am      5 SEP2        0.0000 
     31 CA        -21.1325  -34.3245  -20.6970 C.3       3 GLC5        0.0000 
     32 CA        -20.9520  -36.1370  -20.9690 C.3       9 GLL5        0.0000 
     33 CA        -21.8555  -36.8530  -26.1000 C.3       3 GLC5        0.0000 
     34 CA        -20.9250  -35.3210  -25.7820 C.3       9 GLL5        0.0000 
     35 CA        -22.7860  -38.3850  -26.4180 C.3       6 GLP5        0.0000 
     36 CA        -22.5670  -34.7205  -27.0520 C.3       3 GLC5        0.0000 
     37 CA        -24.2090  -34.1200  -28.3220 C.3       6 GLP5        0.0000 
     38 O         -20.9535  -35.1545  -28.0385 O.2       1 ALC1        0.0000 
     39 O         -20.3270  -35.6460  -26.9250 O.2       7 ALL1        0.0000 
     40 O         -21.5800  -34.6630  -29.1520 O.2       4 ALP1        0.0000 
     41 N         -22.3010  -33.3965  -26.7400 N.am      2 SEC2        0.0000 
     42 N         -21.9640  -34.4140  -25.7810 N.am      8 SEL2        0.0000 
     43 N         -22.6380  -32.3790  -27.6990 N.am      5 SEP2        0.0000 
     44 CA        -24.1145  -32.5585  -24.8995 C.3       3 GLC5        0.0000 
     45 CA        -22.5900  -34.0720  -24.6000 C.3       9 GLL5        0.0000 
     46 CA        -25.6390  -31.0450  -25.1990 C.3       6 GLP5        0.0000 
     47 CA        -24.2020  -33.9695  -23.1115 C.3       3 GLC5        0.0000 
     48 CA        -25.8140  -33.8670  -21.6230 C.3       6 GLP5        0.0000 
     49 CA        -23.2775  -35.6495  -24.5680 C.3       3 GLC5        0.0000 
     50 CA        -23.9650  -37.2270  -24.5360 C.3       6 GLP5        0.0000 
     51 CA        -23.3995  -34.0960  -26.4610 C.3       3 GLC5        0.0000 
     52 CA        -22.1690  -32.4520  -24.9300 C.3       3 GLC5        0.0000 
     53 CA        -21.7480  -30.8320  -25.2600 C.3       6 GLP5        0.0000 
     54 N         -23.6510  -35.2315  -23.1470 N.am      2 SEC2        0.0000 
     55 N         -22.1790  -34.6360  -23.4110 N.am      8 SEL2        0.0000 
     56 N         -25.1230  -35.8270  -22.8830 N.am      5 SEP2        0.0000 
     57 CA        -21.2365  -34.0205  -21.9145 C.3       3 GLC5        0.0000 
     58 CA        -21.1600  -35.5290  -23.4040 C.3       9 GLL5        0.0000 
     59 CA        -20.0418  -34.8992  -14.1857 C.3       3 GLC5        0.0000 
     60 CA        -21.2890  -36.2050  -13.3080 C.3       6 GLP5        0.0000 
     61 CA        -16.5838  -38.3800  -17.4243 C.3       3 GLC5        0.0000 
     62 CA        -18.0060  -36.3590  -16.8860 C.3       9 GLL5        0.0000 
     63 CA        -16.0390  -40.1890  -17.9270 C.3       6 GLP5        0.0000 
     64 CA        -17.8588  -37.5025  -15.3643 C.3       3 GLC5        0.0000 
     65 CA        -18.5890  -38.4340  -13.8070 C.3       6 GLP5        0.0000 
     66 CA        -17.5963  -36.0643  -20.1220 C.3       3 GLC5        0.0000 
     67 CA        -16.1050  -36.0530  -21.4500 C.3       6 GLP5        0.0000 
     68 CA        -21.3720  -36.0105  -17.3395 C.3       3 GLC5        0.0000 
     69 CA        -22.4017  -36.4677  -24.2640 C.3       3 GLC5        0.0000 
     70 CA        -20.3330  -33.7677  -25.8945 C.3       3 GLC5        0.0000 
     71 CA        -20.5170  -35.8880  -24.5800 C.3       9 GLL5        0.0000 
     72 CA        -19.9450  -31.9310  -26.6080 C.3       6 GLP5        0.0000 
     73 CA        -19.4627  -34.3003  -23.2060 C.3       3 GLC5        0.0000 
     74 CA        -18.0870  -32.8920  -22.4200 C.3       6 GLP5        0.0000 
     75 CA        -18.7845  -34.9142  -25.7290 C.3       3 GLC5        0.0000 
     76 CA        -16.8480  -34.2240  -26.2770 C.3       6 GLP5        0.0000 
@<TRIPOS>BOND
@<TRIPOS>SUBSTRUCTURE
     1 ALC1        1 GROUP        1 X    ALC  0     ROOT ALC X 1
     2 SEC2        6 GROUP        1 X    SEC  0     **** SEC X 2
     3 GLC5       11 GROUP        1 X    GLC  0     **** GLC X 6
     4 ALP1        3 GROUP        1 Y    ALP  0     ROOT ALP Y 8
     5 SEP2        8 GROUP        1 Y    SEP  0     **** SEP Y 9
     6 GLP5       13 GROUP        1 Y    GLP  0     **** GLP Y 13
     7 ALL1        2 GROUP        1 Z    ALL  0     ROOT ALL Z 15
     8 SEL2        7 GROUP        1 Z    SEL  0     **** SEL Z 16
     9 GLL5       12 GROUP        1 Z    GLL  0     **** GLL Z 20
@<TRIPOS>SET

