#    Name: 4gc9_SAM_1_ligand
#    Modification time : Mon Mar 24 21:40:01 2014

@<TRIPOS>MOLECULE
4gc9_SAM_1_ligand
   50    52     1     0     0
SMALL
NO_CHARGES


@<TRIPOS>ATOM
      1 N         -17.6850  -32.0930  -15.1370 N.4       1 SAM401      0.0000 
      2 CA        -18.5890  -33.0730  -14.5470 C.3       1 SAM401      0.0000 
      3 C         -17.9660  -33.7630  -13.3380 C.2       1 SAM401      0.0000 
      4 O         -18.5480  -33.7770  -12.2530 O.co2     1 SAM401      0.0000 
      5 OXT       -16.8700  -34.3180  -13.4120 O.co2     1 SAM401      0.0000 
      6 CB        -19.0000  -34.1140  -15.5800 C.3       1 SAM401      0.0000 
      7 CG        -17.8350  -34.6270  -16.4100 C.3       1 SAM401      0.0000 
      8 SD        -18.0060  -36.3590  -16.8860 S.3       1 SAM401      0.0000 
      9 CE        -16.2510  -36.7830  -16.9570 C.3       1 SAM401      0.0000 
     10 C5'       -18.3450  -36.1380  -18.6460 C.3       1 SAM401      0.0000 
     11 C4'       -19.8300  -36.0130  -18.9420 C.3       1 SAM401      0.0000 
     12 O4'       -19.9800  -35.4410  -20.2220 O.3       1 SAM401      0.0000 
     13 C3'       -20.5160  -37.3670  -18.9560 C.3       1 SAM401      0.0000 
     14 O3'       -21.5400  -37.3590  -17.9890 O.3       1 SAM401      0.0000 
     15 C2'       -21.0940  -37.5110  -20.3490 C.3       1 SAM401      0.0000 
     16 O2'       -22.4550  -37.8410  -20.2830 O.3       1 SAM401      0.0000 
     17 C1'       -20.9520  -36.1370  -20.9690 C.3       1 SAM401      0.0000 
     18 N9        -20.5650  -36.2260  -22.3870 N.pl3     1 SAM401      0.0000 
     19 C8        -19.5740  -37.0000  -22.9320 C.2       1 SAM401      0.0000 
     20 N7        -19.5540  -36.7840  -24.2670 N.2       1 SAM401      0.0000 
     21 C5        -20.5170  -35.8880  -24.5800 C.ar      1 SAM401      0.0000 
     22 C6        -20.9250  -35.3210  -25.7820 C.ar      1 SAM401      0.0000 
     23 N6        -20.3270  -35.6460  -26.9250 N.pl3     1 SAM401      0.0000 
     24 N1        -21.9640  -34.4140  -25.7810 N.ar      1 SAM401      0.0000 
     25 C2        -22.5900  -34.0720  -24.6000 C.ar      1 SAM401      0.0000 
     26 N3        -22.1790  -34.6360  -23.4110 N.ar      1 SAM401      0.0000 
     27 C4        -21.1600  -35.5290  -23.4040 C.ar      1 SAM401      0.0000 
     28 H         -19.5038  -32.5754  -14.2064 H         1 SAM401      0.0000 
     29 H         -19.7543  -33.6749  -16.2503 H         1 SAM401      0.0000 
     30 H         -19.4760  -34.9617  -15.0642 H         1 SAM401      0.0000 
     31 H         -16.8964  -34.6241  -15.8813 H         1 SAM401      0.0000 
     32 H         -17.7361  -34.1341  -17.3627 H         1 SAM401      0.0000 
     33 H         -17.8920  -37.0100  -19.0792 H         1 SAM401      0.0000 
     34 H         -17.7839  -35.2526  -18.8793 H         1 SAM401      0.0000 
     35 H         -20.2846  -35.4032  -18.1857 H         1 SAM401      0.0000 
     36 H         -19.7872  -38.1154  -18.8018 H         1 SAM401      0.0000 
     37 H         -20.5074  -38.1931  -20.8979 H         1 SAM401      0.0000 
     38 H         -21.9185  -35.6446  -20.8862 H         1 SAM401      0.0000 
     39 H         -18.9983  -37.5909  -22.4413 H         1 SAM401      0.0000 
     40 H         -20.6951  -35.2193  -27.7511 H         1 SAM401      0.0000 
     41 H         -19.5633  -36.2877  -26.8551 H         1 SAM401      0.0000 
     42 H         -23.3676  -33.3924  -24.6071 H         1 SAM401      0.0000 
     43 H         -16.8312  -32.5131  -15.4445 H         1 SAM401      0.0000 
     44 H         -18.0928  -31.6425  -15.9312 H         1 SAM401      0.0000 
     45 H         -17.4402  -31.3744  -14.4861 H         1 SAM401      0.0000 
     46 H         -15.7962  -36.3526  -17.7367 H         1 SAM401      0.0000 
     47 H         -15.7642  -36.4886  -16.1346 H         1 SAM401      0.0000 
     48 H         -16.1104  -37.7693  -17.0435 H         1 SAM401      0.0000 
     49 H         -21.4630  -38.2406  -17.5233 H         1 SAM401      0.0000 
     50 H         -22.7087  -37.7022  -19.3257 H         1 SAM401      0.0000 
@<TRIPOS>BOND
     1    2    1 1    
     2   43    1 1    
     3   44    1 1    
     4   45    1 1    
     5    3    2 1    
     6    6    2 1    
     7   28    2 1    
     8    4    3 ar   
     9    5    3 ar   
    10    7    6 1    
    11   29    6 1    
    12   30    6 1    
    13    8    7 1    
    14   31    7 1    
    15   32    7 1    
    16    9    8 1    
    17   10    8 1    
    18   46    9 1    
    19   47    9 1    
    20   48    9 1    
    21   11   10 1    
    22   33   10 1    
    23   34   10 1    
    24   12   11 1    
    25   13   11 1    
    26   35   11 1    
    27   17   12 1    
    28   14   13 1    
    29   15   13 1    
    30   36   13 1    
    31   49   14 1    
    32   16   15 1    
    33   17   15 1    
    34   37   15 1    
    35   50   16 1    
    36   18   17 1    
    37   38   17 1    
    38   19   18 1    
    39   27   18 1    
    40   20   19 2    
    41   39   19 1    
    42   21   20 1    
    43   22   21 ar   
    44   27   21 ar   
    45   23   22 1    
    46   24   22 ar   
    47   40   23 1    
    48   41   23 1    
    49   25   24 ar   
    50   26   25 ar   
    51   42   25 1    
    52   27   26 ar   
@<TRIPOS>SUBSTRUCTURE
     1 SAM401      1 GROUP   
@<TRIPOS>SET

