#    Name: 1h61_PDN_1_INTS_M
#    Modification time : Tue Mar 25 04:45:16 2014

@<TRIPOS>MOLECULE
1h61_PDN_1_INTS_M
   37     0     9     0     0
SMALL
NO_CHARGES


@<TRIPOS>ATOM
      1 CA         18.6610   10.6125   23.1110 C.3       3 GLC5        0.0000 
      2 CA         19.8830   10.8510   21.7620 C.3       9 GLL5        0.0000 
      3 CA         17.4390   10.3740   24.4600 C.3       6 GLP5        0.0000 
      4 CA         23.3380    8.0165   18.2070 C.3       3 GLC5        0.0000 
      5 CA         22.6180    9.6090   18.3600 C.3       9 GLL5        0.0000 
      6 CA         24.0580    6.4240   18.0540 C.3       6 GLP5        0.0000 
      7 CA         23.6470    9.1495   20.0170 C.3       3 GLC5        0.0000 
      8 CA         24.6760    8.6900   21.6740 C.3       6 GLP5        0.0000 
      9 CA         23.2325    8.5755   16.9175 C.3       3 GLC5        0.0000 
     10 CA         22.3850   10.5890   17.2900 C.3       9 GLL5        0.0000 
     11 CA         24.0800    6.5620   16.5450 C.3       6 GLP5        0.0000 
     12 CA         24.5980   12.2985   16.1870 C.3       3 GLC5        0.0000 
     13 CA         22.9570   12.7100   15.0160 C.3       9 GLL5        0.0000 
     14 CA         26.2390   11.8870   17.3580 C.3       6 GLP5        0.0000 
     15 CA         25.2175   13.8600   16.7940 C.3       3 GLC5        0.0000 
     16 CA         23.4980   14.9490   17.0280 C.3       9 GLL5        0.0000 
     17 CA         26.9370   12.7710   16.5600 C.3       6 GLP5        0.0000 
     18 CA         23.6930   13.7510   21.1305 C.3       3 GLC5        0.0000 
     19 CA         22.9490   11.9490   20.5810 C.3       9 GLL5        0.0000 
     20 CA         24.4370   15.5530   21.6800 C.3       6 GLP5        0.0000 
     21 CA         23.7165   10.7505   21.7020 C.3       3 GLC5        0.0000 
     22 CA         24.4840    9.5520   22.8230 C.3       6 GLP5        0.0000 
     23 N          18.4310    7.4170   22.2850 N.am      2 SEC2        0.0000 
     24 N          19.3140    8.6000   21.8930 N.am      8 SEL2        0.0000 
     25 N          17.5480    6.2340   22.6770 N.am      5 SEP2        0.0000 
     26 N          18.9500    9.1040   23.1765 N.am      2 SEC2        0.0000 
     27 N          18.5860    9.6080   24.4600 N.am      5 SEP2        0.0000 
     28 O          19.9055   14.7360   13.6720 O.2       1 ALC1        0.0000 
     29 O          20.3400   14.4000   14.8300 O.2       7 ALL1        0.0000 
     30 O          19.4710   15.0720   12.5140 O.2       4 ALP1        0.0000 
     31 CA         24.3332   10.3215   17.4230 C.3       3 GLC5        0.0000 
     32 CA         26.1650   10.5440   17.0210 C.3       6 GLP5        0.0000 
     33 CA         21.2867   10.6152   15.8395 C.3       3 GLC5        0.0000 
     34 CA         20.1860    9.9510   14.2540 C.3       6 GLP5        0.0000 
     35 CA         24.2370   12.1463   17.1475 C.3       3 GLC5        0.0000 
     36 CA         22.0800   12.8410   16.3140 C.3       9 GLL5        0.0000 
     37 CA         21.3522   11.3633   14.9595 C.3       3 GLC5        0.0000 
@<TRIPOS>BOND
@<TRIPOS>SUBSTRUCTURE
     1 ALC1       28 GROUP        1 X    ALC  0     ROOT ALC X 1
     2 SEC2       23 GROUP        1 X    SEC  0     **** SEC X 2
     3 GLC5        1 GROUP        1 X    GLC  0     **** GLC X 6
     4 ALP1       30 GROUP        1 Y    ALP  0     ROOT ALP Y 8
     5 SEP2       25 GROUP        1 Y    SEP  0     **** SEP Y 9
     6 GLP5        3 GROUP        1 Y    GLP  0     **** GLP Y 13
     7 ALL1       29 GROUP        1 Z    ALL  0     ROOT ALL Z 15
     8 SEL2       24 GROUP        1 Z    SEL  0     **** SEL Z 16
     9 GLL5        2 GROUP        1 Z    GLL  0     **** GLL Z 20
@<TRIPOS>SET

