#    Name: 1h61_PDN_1_ligand
#    Modification time : Tue Mar 25 04:45:16 2014

@<TRIPOS>MOLECULE
1h61_PDN_1_ligand
   52    55     1     0     0
SMALL
NO_CHARGES


@<TRIPOS>ATOM
      1 C1         20.6360   11.8580   21.1480 C.2       1 PDN1366     0.0000 
      2 C2         19.8830   10.8510   21.7620 C.2       1 PDN1366     0.0000 
      3 C3         19.9560    9.4330   21.3450 C.2       1 PDN1366     0.0000 
      4 C4         20.8590    9.1250   20.2320 C.2       1 PDN1366     0.0000 
      5 C5         21.6370   10.0390   19.5700 C.2       1 PDN1366     0.0000 
      6 C6         22.6180    9.6090   18.3600 C.3       1 PDN1366     0.0000 
      7 C7         22.3850   10.5890   17.2900 C.3       1 PDN1366     0.0000 
      8 C8         22.3900   11.9700   17.5600 C.3       1 PDN1366     0.0000 
      9 C9         21.3410   12.3580   18.7210 C.3       1 PDN1366     0.0000 
     10 C10        21.6120   11.5620   19.9810 C.3       1 PDN1366     0.0000 
     11 C11        21.3300   13.9430   18.9380 C.2       1 PDN1366     0.0000 
     12 C12        21.1010   14.6660   17.5930 C.3       1 PDN1366     0.0000 
     13 C13        22.1010   14.3630   16.5440 C.3       1 PDN1366     0.0000 
     14 C14        22.0800   12.8410   16.3140 C.3       1 PDN1366     0.0000 
     15 C15        22.9570   12.7100   15.0160 C.3       1 PDN1366     0.0000 
     16 C16        22.7770   13.8840   14.2620 C.3       1 PDN1366     0.0000 
     17 C17        21.7920   14.7760   15.0640 C.3       1 PDN1366     0.0000 
     18 C18        23.4980   14.9490   17.0280 C.3       1 PDN1366     0.0000 
     19 C19        22.9490   11.9490   20.5810 C.3       1 PDN1366     0.0000 
     20 C20        21.8410   16.3270   14.9370 C.2       1 PDN1366     0.0000 
     21 C21        20.8270   16.7680   14.7030 C.2       1 PDN1366     0.0000 
     22 O1         19.3140    8.6000   21.8930 O.2       1 PDN1366     0.0000 
     23 O2         21.4680   14.5740   20.1450 O.2       1 PDN1366     0.0000 
     24 O3         20.3400   14.4000   14.8300 O.3       1 PDN1366     0.0000 
     25 O4         22.8720   16.6590   14.2070 O.3       1 PDN1366     0.0000 
     26 O5         20.9220   18.1250   15.1440 O.3       1 PDN1366     0.0000 
     27 H          20.5857   12.8349   21.4311 H         1 PDN1366     0.0000 
     28 H          19.2416   11.0720   22.5394 H         1 PDN1366     0.0000 
     29 H          20.8859    8.1077   19.9451 H         1 PDN1366     0.0000 
     30 H          22.3358    8.6205   18.0765 H         1 PDN1366     0.0000 
     31 H          23.6118    9.6529   18.7442 H         1 PDN1366     0.0000 
     32 H          21.3955   10.2999   16.7722 H         1 PDN1366     0.0000 
     33 H          23.1363   10.3574   16.4458 H         1 PDN1366     0.0000 
     34 H          23.3638   12.3119   17.9454 H         1 PDN1366     0.0000 
     35 H          20.3535   12.0886   18.3236 H         1 PDN1366     0.0000 
     36 H          21.0790   15.7572   17.7967 H         1 PDN1366     0.0000 
     37 H          20.0826   14.4025   17.2381 H         1 PDN1366     0.0000 
     38 H          21.0319   12.6284   15.9689 H         1 PDN1366     0.0000 
     39 H          22.6175   11.8151   14.5027 H         1 PDN1366     0.0000 
     40 H          23.9811   12.5672   15.3482 H         1 PDN1366     0.0000 
     41 H          22.3254   13.7010   13.2941 H         1 PDN1366     0.0000 
     42 H          23.6914   14.4518   14.1369 H         1 PDN1366     0.0000 
     43 H          19.9809   16.4706   14.3083 H         1 PDN1366     0.0000 
     44 H          24.2239   14.7762   16.3623 H         1 PDN1366     0.0000 
     45 H          23.4575   15.9384   17.1672 H         1 PDN1366     0.0000 
     46 H          23.7913   14.5430   17.8935 H         1 PDN1366     0.0000 
     47 H          23.6706   11.9828   19.8895 H         1 PDN1366     0.0000 
     48 H          22.9151   12.8500   21.0135 H         1 PDN1366     0.0000 
     49 H          23.2441   11.2987   21.2810 H         1 PDN1366     0.0000 
     50 H          20.0030   15.0693   14.1678 H         1 PDN1366     0.0000 
     51 H          23.6155   16.0718   14.5271 H         1 PDN1366     0.0000 
     52 H          21.6306   18.1187   15.8496 H         1 PDN1366     0.0000 
@<TRIPOS>BOND
     1    2    1 2    
     2   10    1 1    
     3   27    1 1    
     4    3    2 1    
     5   28    2 1    
     6    4    3 1    
     7   22    3 2    
     8    5    4 2    
     9   29    4 1    
    10    6    5 1    
    11   10    5 1    
    12    7    6 1    
    13   30    6 1    
    14   31    6 1    
    15    8    7 1    
    16   32    7 1    
    17   33    7 1    
    18    9    8 1    
    19   14    8 1    
    20   34    8 1    
    21   10    9 1    
    22   11    9 1    
    23   35    9 1    
    24   19   10 1    
    25   12   11 1    
    26   23   11 2    
    27   13   12 1    
    28   36   12 1    
    29   37   12 1    
    30   14   13 1    
    31   17   13 1    
    32   18   13 1    
    33   15   14 1    
    34   38   14 1    
    35   16   15 1    
    36   39   15 1    
    37   40   15 1    
    38   17   16 1    
    39   41   16 1    
    40   42   16 1    
    41   20   17 1    
    42   24   17 1    
    43   44   18 1    
    44   45   18 1    
    45   46   18 1    
    46   47   19 1    
    47   48   19 1    
    48   49   19 1    
    49   21   20 2    
    50   25   20 1    
    51   26   21 1    
    52   43   21 1    
    53   50   24 1    
    54   51   25 1    
    55   52   26 1    
@<TRIPOS>SUBSTRUCTURE
     1 PDN1366     1 GROUP   
@<TRIPOS>SET

