#    Name: 3zpo_K0I_2_INTS_M
#    Modification time : Tue Mar 25 03:46:38 2014

@<TRIPOS>MOLECULE
3zpo_K0I_2_INTS_M
   63     0    12     0     0
SMALL
NO_CHARGES


@<TRIPOS>ATOM
      1 NZ        -41.3375  -51.8205   26.3005 N.4       2 LYC4        0.0000 
      2 NZ        -40.6280  -51.6370   25.0310 N.4      10 LYL4        0.0000 
      3 NZ        -42.0470  -52.0040   27.5700 N.4       6 LYP4        0.0000 
      4 N         -41.3375  -51.8205   26.3005 N.am      1 SEC2        0.0000 
      5 N         -40.6280  -51.6370   25.0310 N.am      9 SEL2        0.0000 
      6 N         -42.0470  -52.0040   27.5700 N.am      5 SEP2        0.0000 
      7 N         -40.8150  -51.3305   23.5780 N.am      1 SEC2        0.0000 
      8 N         -41.0020  -51.0240   22.1250 N.am      5 SEP2        0.0000 
      9 NZ        -40.8425  -51.3485   27.1785 N.4       2 LYC4        0.0000 
     10 NZ        -39.6380  -50.6930   26.7870 N.4      10 LYL4        0.0000 
     11 N         -38.8160  -50.2520   27.6330 N.am      1 SEC2        0.0000 
     12 N         -39.6380  -50.6930   26.7870 N.am      9 SEL2        0.0000 
     13 N         -37.9940  -49.8110   28.4790 N.am      5 SEP2        0.0000 
     14 N         -40.2915  -50.5705   28.3130 N.am      1 SEC2        0.0000 
     15 N         -40.9450  -50.4480   29.8390 N.am      5 SEP2        0.0000 
     16 CA        -36.5115  -52.5930   24.7240 C.3       4 GLC5        0.0000 
     17 CA        -37.2250  -50.9160   25.2090 C.3      12 GLL5        0.0000 
     18 CA        -35.7980  -54.2700   24.2390 C.3       8 GLP5        0.0000 
     19 Zn        -33.9805  -48.9920   23.3805 Zn        3 ZIC7        0.0000 
     20 Zn        -33.9080  -49.7350   24.2030 Zn       11 ZIL7        0.0000 
     21 Zn        -34.0530  -48.2490   22.5580 Zn        7 ZIP7        0.0000 
     22 Zn        -33.0010  -48.4205   22.6190 Zn        3 ZIC7        0.0000 
     23 Zn        -31.9490  -48.5920   22.6800 Zn       11 ZIL7        0.0000 
     24 CA        -31.2890  -46.4745   20.6970 C.3       4 GLC5        0.0000 
     25 CA        -30.9930  -48.0350   21.9200 C.3      12 GLL5        0.0000 
     26 CA        -31.5850  -44.9140   19.4740 C.3       8 GLP5        0.0000 
     27 CA        -35.7575  -51.8950   30.1925 C.3       4 GLC5        0.0000 
     28 CA        -34.0400  -51.3120   29.5300 C.3      12 GLL5        0.0000 
     29 CA        -37.4750  -52.4780   30.8550 C.3       8 GLP5        0.0000 
     30 CA        -34.4195  -53.3370   29.9330 C.3       4 GLC5        0.0000 
     31 CA        -34.7990  -55.3620   30.3360 C.3       8 GLP5        0.0000 
     32 CA        -35.5005  -49.7700   29.7330 C.3       4 GLC5        0.0000 
     33 CA        -36.9610  -48.2280   29.9360 C.3       8 GLP5        0.0000 
     34 CA        -33.8310  -54.1815   28.8430 C.3       4 GLC5        0.0000 
     35 CA        -33.5200  -52.3920   28.5890 C.3      12 GLL5        0.0000 
     36 CA        -34.1420  -55.9710   29.0970 C.3       8 GLP5        0.0000 
     37 CA        -34.6115  -53.4065   27.0940 C.3       4 GLC5        0.0000 
     38 CA        -35.7030  -54.4210   25.5990 C.3       8 GLP5        0.0000 
     39 CA        -32.6480  -48.7610   31.1995 C.3       4 GLC5        0.0000 
     40 CA        -30.9790  -49.9600   31.3700 C.3      12 GLL5        0.0000 
     41 CA        -34.3170  -47.5620   31.0290 C.3       8 GLP5        0.0000 
     42 CA        -32.4800  -48.4255   32.3660 C.3       4 GLC5        0.0000 
     43 CA        -31.4100  -50.0420   32.6760 C.3      12 GLL5        0.0000 
     44 CA        -33.5500  -46.8090   32.0560 C.3       8 GLP5        0.0000 
     45 CA        -37.2030  -49.4180   26.2000 C.3       4 GLC5        0.0000 
     46 CA        -36.5130  -48.1390   27.4460 C.3       8 GLP5        0.0000 
     47 CA        -35.5842  -49.4530   26.4765 C.3       4 GLC5        0.0000 
     48 CA        -34.8230  -50.3840   24.9400 C.3      12 GLL5        0.0000 
     49 CA        -31.5775  -46.8550   23.0095 C.3       4 GLC5        0.0000 
     50 CA        -32.8290  -45.6920   23.9230 C.3       8 GLP5        0.0000 
     51 CA        -32.0021  -47.5199   24.0839 C.3       4 GLC5        0.0000 
     52 CA        -30.2460  -49.1880   24.2610 C.3      12 GLL5        0.0000 
     53 CA        -33.7760  -49.2661   30.5125 C.3       4 GLC5        0.0000 
     54 CA        -31.7900  -50.3800   30.3190 C.3      12 GLL5        0.0000 
     55 CA        -30.9763  -51.8665   32.7410 C.3       4 GLC5        0.0000 
     56 CA        -30.7580  -53.7320   33.4590 C.3       8 GLP5        0.0000 
     57 CA        -31.6750  -50.6025   34.6985 C.3       4 GLC5        0.0000 
     58 CA        -31.3180  -50.9100   36.5800 C.3       8 GLP5        0.0000 
     59 CA        -32.5491  -52.4600   32.5535 C.3       4 GLC5        0.0000 
     60 CA        -32.6540  -50.5480   32.9580 C.3      12 GLL5        0.0000 
     61 CA        -32.1340  -54.1860   32.9940 C.3       8 GLP5        0.0000 
     62 CA        -33.6917  -49.1587   31.7368 C.3       4 GLC5        0.0000 
     63 CA        -33.4790  -50.9630   31.9310 C.3      12 GLL5        0.0000 
@<TRIPOS>BOND
@<TRIPOS>SUBSTRUCTURE
     1 SEC2        4 GROUP        1 X    SEC  0     ROOT SEC X 2
     2 LYC4        1 GROUP        1 X    LYC  0     **** LYC X 4
     3 ZIC7       19 GROUP        1 X    ZIC  0     **** ZIC X 5
     4 GLC5       16 GROUP        1 X    GLC  0     **** GLC X 6
     5 SEP2        6 GROUP        1 Y    SEP  0     ROOT SEP Y 9
     6 LYP4        3 GROUP        1 Y    LYP  0     **** LYP Y 11
     7 ZIP7       21 GROUP        1 Y    ZIP  0     **** ZIP Y 12
     8 GLP5       18 GROUP        1 Y    GLP  0     **** GLP Y 13
     9 SEL2        5 GROUP        1 Z    SEL  0     ROOT SEL Z 16
    10 LYL4        2 GROUP        1 Z    LYL  0     **** LYL Z 18
    11 ZIL7       20 GROUP        1 Z    ZIL  0     **** ZIL Z 19
    12 GLL5       17 GROUP        1 Z    GLL  0     **** GLL Z 20
@<TRIPOS>SET

