#    Name: 3zpo_K0I_2_ligand
#    Modification time : Tue Mar 25 03:46:38 2014

@<TRIPOS>MOLECULE
3zpo_K0I_2_ligand
   51    54     1     0     0
SMALL
NO_CHARGES


@<TRIPOS>ATOM
      1 O2        -40.6280  -51.6370   25.0310 O.co2     1 K0I1900     0.0000 
      2 C1        -39.7130  -50.9880   25.5230 C.2       1 K0I1900     0.0000 
      3 O1        -39.6380  -50.6930   26.7870 O.co2     1 K0I1900     0.0000 
      4 C2        -38.5610  -50.4780   24.6990 C.3       1 K0I1900     0.0000 
      5 C3        -37.2250  -50.9160   25.2090 C.3       1 K0I1900     0.0000 
      6 N1        -36.1170  -50.2440   24.5400 N.pl3     1 K0I1900     0.0000 
      7 C4        -34.8230  -50.3840   24.9400 C.ar      1 K0I1900     0.0000 
      8 N3        -33.9080  -49.7350   24.2030 N.ar      1 K0I1900     0.0000 
      9 C7        -32.6340  -49.8530   24.6210 C.ar      1 K0I1900     0.0000 
     10 C8        -31.5750  -49.1620   23.8360 C.ar      1 K0I1900     0.0000 
     11 N4        -31.9490  -48.5920   22.6800 N.ar      1 K0I1900     0.0000 
     12 C12       -30.9930  -48.0350   21.9200 C.ar      1 K0I1900     0.0000 
     13 C11       -29.6590  -48.0010   22.2720 C.ar      1 K0I1900     0.0000 
     14 C10       -29.2830  -48.6010   23.4600 C.ar      1 K0I1900     0.0000 
     15 C9        -30.2460  -49.1880   24.2610 C.ar      1 K0I1900     0.0000 
     16 N2        -32.2230  -50.5590   25.6850 N.ar      1 K0I1900     0.0000 
     17 C6        -33.1280  -51.1900   26.4180 C.ar      1 K0I1900     0.0000 
     18 C5        -34.4880  -51.1500   26.0740 C.ar      1 K0I1900     0.0000 
     19 N5        -32.6690  -51.7320   27.5990 N.3       1 K0I1900     0.0000 
     20 C22       -31.2810  -51.5290   28.0190 C.3       1 K0I1900     0.0000 
     21 C21       -31.2290  -50.2810   28.9180 C.3       1 K0I1900     0.0000 
     22 C20       -31.7900  -50.3800   30.3190 C.ar      1 K0I1900     0.0000 
     23 C15       -33.0700  -50.8770   30.6050 C.ar      1 K0I1900     0.0000 
     24 C14       -34.0400  -51.3120   29.5300 C.3       1 K0I1900     0.0000 
     25 C13       -33.5200  -52.3920   28.5890 C.3       1 K0I1900     0.0000 
     26 C19       -30.9790  -49.9600   31.3700 C.ar      1 K0I1900     0.0000 
     27 C18       -31.4100  -50.0420   32.6760 C.ar      1 K0I1900     0.0000 
     28 C17       -32.6540  -50.5480   32.9580 C.ar      1 K0I1900     0.0000 
     29 C16       -33.4790  -50.9630   31.9310 C.ar      1 K0I1900     0.0000 
     30 H         -38.5992  -49.3730   24.6724 H         1 K0I1900     0.0000 
     31 H         -38.6856  -50.8213   23.6550 H         1 K0I1900     0.0000 
     32 H         -37.1389  -52.0138   25.0818 H         1 K0I1900     0.0000 
     33 H         -37.1827  -50.7282   26.3006 H         1 K0I1900     0.0000 
     34 H         -36.3673  -49.6416   23.7277 H         1 K0I1900     0.0000 
     35 H         -31.2628  -47.5910   20.9920 H         1 K0I1900     0.0000 
     36 H         -28.9701  -47.5474   21.6750 H         1 K0I1900     0.0000 
     37 H         -28.2963  -48.6108   23.7455 H         1 K0I1900     0.0000 
     38 H         -29.9960  -49.6314   25.1436 H         1 K0I1900     0.0000 
     39 H         -35.1809  -51.6360   26.6013 H         1 K0I1900     0.0000 
     40 H         -30.6334  -51.3596   27.1663 H         1 K0I1900     0.0000 
     41 H         -30.9162  -52.3743   28.5912 H         1 K0I1900     0.0000 
     42 H         -31.7492  -49.4456   28.3770 H         1 K0I1900     0.0000 
     43 H         -30.1590  -49.9451   28.9784 H         1 K0I1900     0.0000 
     44 H         -34.3333  -50.4281   28.9268 H         1 K0I1900     0.0000 
     45 H         -34.9717  -51.6780   30.0086 H         1 K0I1900     0.0000 
     46 H         -32.9581  -53.1134   29.1674 H         1 K0I1900     0.0000 
     47 H         -34.3650  -52.8754   28.1167 H         1 K0I1900     0.0000 
     48 H         -30.0368  -49.5804   31.1598 H         1 K0I1900     0.0000 
     49 H         -30.7943  -49.7216   33.4420 H         1 K0I1900     0.0000 
     50 H         -32.9768  -50.6201   33.9363 H         1 K0I1900     0.0000 
     51 H         -34.4181  -51.3450   32.1480 H         1 K0I1900     0.0000 
@<TRIPOS>BOND
     1    2    1 ar   
     2    3    2 ar   
     3    4    2 1    
     4    5    4 1    
     5   30    4 1    
     6   31    4 1    
     7    6    5 1    
     8   32    5 1    
     9   33    5 1    
    10    7    6 1    
    11   34    6 1    
    12    8    7 ar   
    13   18    7 ar   
    14    9    8 ar   
    15   10    9 1    
    16   16    9 ar   
    17   11   10 ar   
    18   15   10 ar   
    19   12   11 ar   
    20   13   12 ar   
    21   35   12 1    
    22   14   13 ar   
    23   36   13 1    
    24   15   14 ar   
    25   37   14 1    
    26   38   15 1    
    27   17   16 ar   
    28   18   17 ar   
    29   19   17 1    
    30   39   18 1    
    31   20   19 1    
    32   25   19 1    
    33   21   20 1    
    34   40   20 1    
    35   41   20 1    
    36   22   21 1    
    37   42   21 1    
    38   43   21 1    
    39   23   22 ar   
    40   26   22 ar   
    41   24   23 1    
    42   29   23 ar   
    43   25   24 1    
    44   44   24 1    
    45   45   24 1    
    46   46   25 1    
    47   47   25 1    
    48   27   26 ar   
    49   48   26 1    
    50   28   27 ar   
    51   49   27 1    
    52   29   28 ar   
    53   50   28 1    
    54   51   29 1    
@<TRIPOS>SUBSTRUCTURE
     1 K0I1900     1 GROUP   
@<TRIPOS>SET

