#    Name: 2xvu_9DN_2_INTS_M
#    Modification time : Tue Mar 25 06:58:14 2014

@<TRIPOS>MOLECULE
2xvu_9DN_2_INTS_M
   68     0     9     0     0
SMALL
NO_CHARGES


@<TRIPOS>ATOM
      1 NZ          5.7565    3.8495  -20.7230 N.4       2 LYC4        0.0000 
      2 NZ          5.7410    3.9470  -19.1670 N.4       8 LYL4        0.0000 
      3 NZ          5.8210    5.0190  -22.6720 N.4       5 LYP4        0.0000 
      4 NZ          4.1620    3.2565  -19.9020 N.4       2 LYC4        0.0000 
      5 NZ          2.5830    2.5660  -20.6370 N.4       5 LYP4        0.0000 
      6 N           5.9765    4.9535  -20.4930 N.am      1 SEC2        0.0000 
      7 N           5.7410    3.9470  -19.1670 N.am      7 SEL2        0.0000 
      8 N           6.2120    5.9600  -21.8190 N.am      4 SEP2        0.0000 
      9 N           5.7565    3.8495  -20.7230 N.am      1 SEC2        0.0000 
     10 N           5.7720    3.7520  -22.2790 N.am      4 SEP2        0.0000 
     11 CA          9.2700    0.1480  -19.6560 C.3       3 GLC5        0.0000 
     12 CA          8.2020    1.6890  -19.3820 C.3       9 GLL5        0.0000 
     13 CA         10.3380   -1.3930  -19.9300 C.3       6 GLP5        0.0000 
     14 NZ          3.8050    2.2260  -19.8315 N.4       2 LYC4        0.0000 
     15 NZ          5.0270    1.8860  -19.0260 N.4       8 LYL4        0.0000 
     16 N           3.8050    2.2260  -19.8315 N.am      1 SEC2        0.0000 
     17 N           5.0270    1.8860  -19.0260 N.am      7 SEL2        0.0000 
     18 N           2.5830    2.5660  -20.6370 N.am      4 SEP2        0.0000 
     19 N           5.3785    0.3690  -18.7805 N.am      1 SEC2        0.0000 
     20 N           5.7300   -1.1480  -18.5350 N.am      4 SEP2        0.0000 
     21 N           4.1205    2.5995  -15.8320 N.am      1 SEC2        0.0000 
     22 N           5.5730    2.6310  -15.8930 N.am      7 SEL2        0.0000 
     23 N           2.6680    2.5680  -15.7710 N.am      4 SEP2        0.0000 
     24 CA          7.5925    5.0760  -14.8705 C.3       3 GLC5        0.0000 
     25 CA          7.6140    3.3710  -13.8690 C.3       9 GLL5        0.0000 
     26 CA          7.5710    6.7810  -15.8720 C.3       6 GLP5        0.0000 
     27 CA          8.2060    5.8275  -13.2645 C.3       3 GLC5        0.0000 
     28 CA          8.5530    3.9260  -12.9580 C.3       9 GLL5        0.0000 
     29 CA          7.8590    7.7290  -13.5710 C.3       6 GLP5        0.0000 
     30 CA          9.8090    3.2235  -10.6675 C.3       3 GLC5        0.0000 
     31 CA          9.7730    3.3340  -12.7860 C.3       9 GLL5        0.0000 
     32 CA          9.8450    3.1130   -8.5490 C.3       6 GLP5        0.0000 
     33 CA         15.0405    1.4905  -11.7775 C.3       3 GLC5        0.0000 
     34 CA         13.0780    1.2700  -11.4100 C.3       9 GLL5        0.0000 
     35 CA         17.0030    1.7110  -12.1450 C.3       6 GLP5        0.0000 
     36 CA         11.7675    1.5040  -10.0995 C.3       3 GLC5        0.0000 
     37 CA         10.4570    1.7380   -8.7890 C.3       6 GLP5        0.0000 
     38 CA         14.8475    2.3120  -11.2075 C.3       3 GLC5        0.0000 
     39 CA         16.6170    3.3540  -11.0050 C.3       6 GLP5        0.0000 
     40 CA         12.6430   -0.4720  -10.6590 C.3       3 GLC5        0.0000 
     41 CA         12.2080   -2.2140   -9.9080 C.3       6 GLP5        0.0000 
     42 CA         13.3420    2.8435  -14.6330 C.3       3 GLC5        0.0000 
     43 CA         13.4320    3.0720  -12.9480 C.3       9 GLL5        0.0000 
     44 CA         13.2520    2.6150  -16.3180 C.3       6 GLP5        0.0000 
     45 CA         15.2175    2.3915  -12.5465 C.3       3 GLC5        0.0000 
     46 CA         12.6030    4.7960  -13.8080 C.3       3 GLC5        0.0000 
     47 CA         11.7740    6.5200  -14.6680 C.3       6 GLP5        0.0000 
     48 CA         13.5920    4.1450  -11.1315 C.3       3 GLC5        0.0000 
     49 CA         13.7520    5.2180   -9.3150 C.3       6 GLP5        0.0000 
     50 CA         15.0245    3.2130  -11.9765 C.3       3 GLC5        0.0000 
     51 CA          7.4032    1.8785  -12.6273 C.3       3 GLC5        0.0000 
     52 CA          7.0530    0.9540  -11.0210 C.3       6 GLP5        0.0000 
     53 CA          6.8108    4.7737  -12.2948 C.3       3 GLC5        0.0000 
     54 CA          5.5380    5.8990  -11.1760 C.3       6 GLP5        0.0000 
     55 CA          8.1080    2.2920  -11.9465 C.3       3 GLC5        0.0000 
     56 CA          8.7767    0.4065  -13.1020 C.3       3 GLC5        0.0000 
     57 CA         10.1600    2.1530  -13.4930 C.3       9 GLL5        0.0000 
     58 CA          7.8710   -1.0380  -12.2310 C.3       6 GLP5        0.0000 
     59 CA          9.7185   -0.9888  -16.4210 C.3       3 GLC5        0.0000 
     60 CA          9.6140    0.3710  -15.1450 C.3       9 GLL5        0.0000 
     61 CA          9.1910   -2.0630  -17.8000 C.3       6 GLP5        0.0000 
     62 CA         11.7490    1.3502  -15.6800 C.3       3 GLC5        0.0000 
     63 CA          9.0585   -0.4763  -13.6365 C.3       3 GLC5        0.0000 
     64 CA         10.8780   -0.2000  -14.9390 C.3       9 GLL5        0.0000 
     65 CA         12.0158   -1.4293  -13.7545 C.3       3 GLC5        0.0000 
     66 CA         12.6830   -2.9530  -13.0380 C.3       6 GLP5        0.0000 
     67 CA         12.2864    1.8711  -15.0038 C.3       3 GLC5        0.0000 
     68 CA         11.8190    0.3890  -14.0030 C.3       9 GLL5        0.0000 
@<TRIPOS>BOND
@<TRIPOS>SUBSTRUCTURE
     1 SEC2        6 GROUP        1 X    SEC  0     ROOT SEC X 2
     2 LYC4        1 GROUP        1 X    LYC  0     **** LYC X 4
     3 GLC5       11 GROUP        1 X    GLC  0     **** GLC X 6
     4 SEP2        8 GROUP        1 Y    SEP  0     ROOT SEP Y 9
     5 LYP4        3 GROUP        1 Y    LYP  0     **** LYP Y 11
     6 GLP5       13 GROUP        1 Y    GLP  0     **** GLP Y 13
     7 SEL2        7 GROUP        1 Z    SEL  0     ROOT SEL Z 16
     8 LYL4        2 GROUP        1 Z    LYL  0     **** LYL Z 18
     9 GLL5       12 GROUP        1 Z    GLL  0     **** GLL Z 20
@<TRIPOS>SET

