#    Name: 2xvu_9DN_2_ligand
#    Modification time : Tue Mar 25 06:58:14 2014

@<TRIPOS>MOLECULE
2xvu_9DN_2_ligand
   43    44     1     0     0
SMALL
NO_CHARGES


@<TRIPOS>ATOM
      1 N           7.2840    1.3250  -17.1760 N.pl3     1 9DN2002     0.0000 
      2 CA          7.2910    2.2830  -18.2830 C.3       1 9DN2002     0.0000 
      3 C           5.9260    2.6970  -18.8600 C.2       1 9DN2002     0.0000 
      4 O           5.7410    3.9470  -19.1670 O.co2     1 9DN2002     0.0000 
      5 CB          8.2020    1.6890  -19.3820 C.3       1 9DN2002     0.0000 
      6 CG          8.7910    2.7590  -20.2690 C.2       1 9DN2002     0.0000 
      7 OD1         8.8510    2.5720  -21.4920 O.2       1 9DN2002     0.0000 
      8 ND2         9.2240    3.8860  -19.6840 N.am      1 9DN2002     0.0000 
      9 OXT         5.0270    1.8860  -19.0260 O.co2     1 9DN2002     0.0000 
     10 S1          6.5910    1.6350  -15.7260 S.o2      1 9DN2002     0.0000 
     11 O2          5.5730    2.6310  -15.8930 O.2       1 9DN2002     0.0000 
     12 O3          6.1550    0.3430  -15.2610 O.2       1 9DN2002     0.0000 
     13 N1         12.3770    2.2320  -12.2970 N.3       1 9DN2002     0.0000 
     14 C1          7.8930    2.2350  -14.5980 C.ar      1 9DN2002     0.0000 
     15 C2          7.6140    3.3710  -13.8690 C.ar      1 9DN2002     0.0000 
     16 C3          8.5530    3.9260  -12.9580 C.ar      1 9DN2002     0.0000 
     17 C4          9.7730    3.3340  -12.7860 C.ar      1 9DN2002     0.0000 
     18 C5         10.1600    2.1530  -13.4930 C.ar      1 9DN2002     0.0000 
     19 C6          9.2050    1.5490  -14.4530 C.ar      1 9DN2002     0.0000 
     20 C7          9.6140    0.3710  -15.1450 C.ar      1 9DN2002     0.0000 
     21 C8         10.8780   -0.2000  -14.9390 C.ar      1 9DN2002     0.0000 
     22 C9         11.8190    0.3890  -14.0030 C.ar      1 9DN2002     0.0000 
     23 C10        11.4850    1.5780  -13.2590 C.ar      1 9DN2002     0.0000 
     24 C11        13.0780    1.2700  -11.4100 C.3       1 9DN2002     0.0000 
     25 C12        13.4320    3.0720  -12.9480 C.3       1 9DN2002     0.0000 
     26 H           7.7057    0.4171  -17.2408 H         1 9DN2002     0.0000 
     27 H           7.8114    3.2082  -17.9512 H         1 9DN2002     0.0000 
     28 H           7.6095    0.9927  -19.9828 H         1 9DN2002     0.0000 
     29 H           9.0043    1.1243  -18.8978 H         1 9DN2002     0.0000 
     30 H           9.1285    3.9303  -18.6896 H         1 9DN2002     0.0000 
     31 H           9.6035    4.5810  -20.2947 H         1 9DN2002     0.0000 
     32 H           6.6979    3.8478  -13.9753 H         1 9DN2002     0.0000 
     33 H           8.2915    4.7741  -12.4392 H         1 9DN2002     0.0000 
     34 H          10.4666    3.7390  -12.1196 H         1 9DN2002     0.0000 
     35 H           8.9568   -0.0638  -15.8110 H         1 9DN2002     0.0000 
     36 H          11.1615   -1.0429  -15.4445 H         1 9DN2002     0.0000 
     37 H          12.7288   -0.0483  -13.8730 H         1 9DN2002     0.0000 
     38 H          13.6458    0.6315  -11.9296 H         1 9DN2002     0.0000 
     39 H          13.6792    1.7345  -10.7598 H         1 9DN2002     0.0000 
     40 H          12.4352    0.7219  -10.8748 H         1 9DN2002     0.0000 
     41 H          14.0268    3.5097  -12.2737 H         1 9DN2002     0.0000 
     42 H          14.0195    2.5303  -13.5492 H         1 9DN2002     0.0000 
     43 H          13.0347    3.8010  -13.5055 H         1 9DN2002     0.0000 
@<TRIPOS>BOND
     1    2    1 1    
     2   10    1 1    
     3   26    1 1    
     4    3    2 1    
     5    5    2 1    
     6   27    2 1    
     7    4    3 ar   
     8    9    3 ar   
     9    6    5 1    
    10   28    5 1    
    11   29    5 1    
    12    7    6 2    
    13    8    6 am   
    14   30    8 1    
    15   31    8 1    
    16   11   10 2    
    17   12   10 2    
    18   14   10 1    
    19   23   13 1    
    20   24   13 1    
    21   25   13 1    
    22   15   14 ar   
    23   19   14 ar   
    24   16   15 ar   
    25   32   15 1    
    26   17   16 ar   
    27   33   16 1    
    28   18   17 ar   
    29   34   17 1    
    30   19   18 ar   
    31   23   18 ar   
    32   20   19 ar   
    33   21   20 ar   
    34   35   20 1    
    35   22   21 ar   
    36   36   21 1    
    37   23   22 ar   
    38   37   22 1    
    39   38   24 1    
    40   39   24 1    
    41   40   24 1    
    42   41   25 1    
    43   42   25 1    
    44   43   25 1    
@<TRIPOS>SUBSTRUCTURE
     1 9DN2002     1 GROUP   
@<TRIPOS>SET

