#    Name: 2f2u_M77_1_INTS_M
#    Modification time : Mon Apr  7 18:02:48 2014

@<TRIPOS>MOLECULE
2f2u_M77_1_INTS_M
   45     0     6     0     0
SMALL
NO_CHARGES


@<TRIPOS>ATOM
      1 CA         16.9150   72.4135  119.6530 C.3       2 GLC5        0.0000 
      2 CA         17.1510   73.5750  121.4140 C.3       6 GLL5        0.0000 
      3 CA         16.6790   71.2520  117.8920 C.3       4 GLP5        0.0000 
      4 CA         15.7175   74.3355  120.0630 C.3       2 GLC5        0.0000 
      5 CA         14.2840   75.0960  118.7120 C.3       4 GLP5        0.0000 
      6 CA         16.1995   75.3245  125.8675 C.3       2 GLC5        0.0000 
      7 CA         16.9800   74.8140  124.2160 C.3       6 GLL5        0.0000 
      8 CA         15.4190   75.8350  127.5190 C.3       4 GLP5        0.0000 
      9 CA         14.6855   74.4405  125.9920 C.3       2 GLC5        0.0000 
     10 CA         13.9520   73.0460  124.4650 C.3       6 GLL5        0.0000 
     11 CA          9.8795   71.3970  124.3030 C.3       2 GLC5        0.0000 
     12 CA         11.8280   71.9070  125.0320 C.3       6 GLL5        0.0000 
     13 CA          7.9310   70.8870  123.5740 C.3       4 GLP5        0.0000 
     14 CA         10.8335   68.7170  127.7445 C.3       2 GLC5        0.0000 
     15 CA         11.9210   69.9280  126.4430 C.3       6 GLL5        0.0000 
     16 CA          9.7460   67.5060  129.0460 C.3       4 GLP5        0.0000 
     17 CA         11.3785   68.3710  125.4900 C.3       2 GLC5        0.0000 
     18 CA         10.8360   66.8140  124.5370 C.3       4 GLP5        0.0000 
     19 N          11.9465   67.6940  127.2930 N.am      1 SEC2        0.0000 
     20 N          12.6330   68.9890  127.1430 N.am      5 SEL2        0.0000 
     21 N          11.2600   66.3990  127.4430 N.am      3 SEP2        0.0000 
     22 CA         12.6680   70.2295  128.3490 C.3       2 GLC5        0.0000 
     23 CA         14.0030   69.0630  127.2770 C.3       6 GLL5        0.0000 
     24 CA         11.3330   71.3960  129.4210 C.3       4 GLP5        0.0000 
     25 CA         12.9975   67.5560  126.2110 C.3       2 GLC5        0.0000 
     26 CA         11.9920   66.0490  125.1450 C.3       4 GLP5        0.0000 
     27 CA         14.0630   70.6763  124.1105 C.3       2 GLC5        0.0000 
     28 CA         14.7520   72.1410  125.2050 C.3       6 GLL5        0.0000 
     29 CA         13.7740   68.7590  123.3860 C.3       4 GLP5        0.0000 
     30 CA         11.9047   73.9278  125.6188 C.3       2 GLC5        0.0000 
     31 CA         10.5670   74.8580  126.8090 C.3       4 GLP5        0.0000 
     32 CA         12.9772   70.5935  124.0490 C.3       2 GLC5        0.0000 
     33 CA         12.5330   72.9490  124.3920 C.3       6 GLL5        0.0000 
     34 CA         11.3860   73.1497  126.1068 C.3       2 GLC5        0.0000 
     35 CA         12.5820   70.9760  125.7770 C.3       6 GLL5        0.0000 
     36 CA         12.4896   71.7101  122.9371 C.3       2 GLC5        0.0000 
     37 CA         12.4440   70.9680  121.1440 C.3       4 GLP5        0.0000 
     38 CA         14.9147   69.8278  128.7675 C.3       2 GLC5        0.0000 
     39 CA         14.7440   70.0880  126.6190 C.3       6 GLL5        0.0000 
     40 CA         15.4560   70.0800  130.5870 C.3       4 GLP5        0.0000 
     41 CA         14.4819   72.3875  127.4415 C.3       2 GLC5        0.0000 
     42 CA         14.3860   73.9310  128.8060 C.3       4 GLP5        0.0000 
     43 CA         14.0738   69.1672  125.1670 C.3       2 GLC5        0.0000 
     44 CA         11.6980   71.0404  127.6724 C.3       2 GLC5        0.0000 
     45 CA         13.1989   69.6159  124.7590 C.3       2 GLC5        0.0000 
@<TRIPOS>BOND
@<TRIPOS>SUBSTRUCTURE
     1 SEC2       19 GROUP        1 X    SEC  0     ROOT SEC X 2
     2 GLC5        1 GROUP        1 X    GLC  0     **** GLC X 6
     3 SEP2       21 GROUP        1 Y    SEP  0     ROOT SEP Y 9
     4 GLP5        3 GROUP        1 Y    GLP  0     **** GLP Y 13
     5 SEL2       20 GROUP        1 Z    SEL  0     ROOT SEL Z 16
     6 GLL5        2 GROUP        1 Z    GLL  0     **** GLL Z 20
@<TRIPOS>SET

