#    Name: 2f2u_M77_1_ligand
#    Modification time : Mon Apr  7 18:02:48 2014

@<TRIPOS>MOLECULE
2f2u_M77_1_ligand
   36    38     1     0     0
SMALL
NO_CHARGES


@<TRIPOS>ATOM
      1 O1         17.1510   71.1130  124.8810 O.2       1 M77501      0.0000 
      2 S1         16.5020   72.3460  125.2090 S.o2      1 M77501      0.0000 
      3 O2         16.9160   72.8250  126.4780 O.2       1 M77501      0.0000 
      4 N4         16.7550   73.3460  123.9910 N.pl3     1 M77501      0.0000 
      5 C22        16.7570   72.7270  122.6390 C.3       1 M77501      0.0000 
      6 C21        17.1510   73.5750  121.4140 C.3       1 M77501      0.0000 
      7 N17        18.1140   74.7050  121.5530 N.4       1 M77501      0.0000 
      8 C16        19.0800   74.9180  122.6560 C.3       1 M77501      0.0000 
      9 C20        18.4190   75.3220  123.9770 C.3       1 M77501      0.0000 
     10 C15        16.9800   74.8140  124.2160 C.3       1 M77501      0.0000 
     11 C5         14.7520   72.1410  125.2050 C.ar      1 M77501      0.0000 
     12 C6         13.9520   73.0460  124.4650 C.ar      1 M77501      0.0000 
     13 C7         12.5330   72.9490  124.3920 C.ar      1 M77501      0.0000 
     14 C8         11.8280   71.9070  125.0320 C.ar      1 M77501      0.0000 
     15 C9         12.5820   70.9760  125.7770 C.ar      1 M77501      0.0000 
     16 C10        14.0710   71.0590  125.8650 C.ar      1 M77501      0.0000 
     17 C11        14.7440   70.0880  126.6190 C.ar      1 M77501      0.0000 
     18 C14        11.9210   69.9280  126.4430 C.ar      1 M77501      0.0000 
     19 N13        12.6330   68.9890  127.1430 N.ar      1 M77501      0.0000 
     20 C12        14.0030   69.0630  127.2770 C.ar      1 M77501      0.0000 
     21 H          15.7355   72.2889  122.4276 H         1 M77501      0.0000 
     22 H          17.4296   71.8173  122.6461 H         1 M77501      0.0000 
     23 H          16.1889   73.9635  120.9533 H         1 M77501      0.0000 
     24 H          17.5336   72.8585  120.6208 H         1 M77501      0.0000 
     25 H          19.8051   75.7048  122.3794 H         1 M77501      0.0000 
     26 H          19.6653   73.9972  122.8317 H         1 M77501      0.0000 
     27 H          18.4131   76.4320  124.0494 H         1 M77501      0.0000 
     28 H          19.0566   74.9709  124.8183 H         1 M77501      0.0000 
     29 H          16.6933   75.0787  125.2577 H         1 M77501      0.0000 
     30 H          16.2982   75.3995  123.5604 H         1 M77501      0.0000 
     31 H          14.4202   73.8192  123.9494 H         1 M77501      0.0000 
     32 H          12.0126   73.6603  123.8570 H         1 M77501      0.0000 
     33 H          10.8306   71.8317  124.9598 H         1 M77501      0.0000 
     34 H          15.7595   70.1052  126.7033 H         1 M77501      0.0000 
     35 H          10.8905   69.8796  126.3946 H         1 M77501      0.0000 
     36 H          14.5153   68.3810  127.8534 H         1 M77501      0.0000 
@<TRIPOS>BOND
     1    2    1 2    
     2    3    2 2    
     3    4    2 1    
     4   11    2 1    
     5    5    4 1    
     6   10    4 1    
     7    6    5 1    
     8   21    5 1    
     9   22    5 1    
    10    7    6 1    
    11   23    6 1    
    12   24    6 1    
    13    8    7 1    
    14    9    8 1    
    15   25    8 1    
    16   26    8 1    
    17   10    9 1    
    18   27    9 1    
    19   28    9 1    
    20   29   10 1    
    21   30   10 1    
    22   12   11 ar   
    23   16   11 ar   
    24   13   12 ar   
    25   31   12 1    
    26   14   13 ar   
    27   32   13 1    
    28   15   14 ar   
    29   33   14 1    
    30   16   15 ar   
    31   18   15 ar   
    32   17   16 ar   
    33   20   17 ar   
    34   34   17 1    
    35   19   18 ar   
    36   35   18 1    
    37   20   19 ar   
    38   36   20 1    
@<TRIPOS>SUBSTRUCTURE
     1 M77501      1 GROUP   
@<TRIPOS>SET

