#    Name: 2fre_FMN_2_INTS_M
#    Modification time : Tue Mar 25 13:05:16 2014

@<TRIPOS>MOLECULE
2fre_FMN_2_INTS_M
   90     0    12     0     0
SMALL
NO_CHARGES


@<TRIPOS>ATOM
      1 N          25.4000   16.7955   22.6765 N.am      2 SEC2        0.0000 
      2 N          26.0680   15.5640   22.5600 N.am     10 SEL2        0.0000 
      3 N          24.7320   18.0270   22.7930 N.am      6 SEP2        0.0000 
      4 N          25.1585   16.8900   19.5595 N.am      2 SEC2        0.0000 
      5 N          26.2020   16.1720   20.4110 N.am     10 SEL2        0.0000 
      6 N          24.1150   17.6080   18.7080 N.am      6 SEP2        0.0000 
      7 N          24.8355   15.9560   20.1520 N.am      2 SEC2        0.0000 
      8 N          23.4690   15.7400   19.8930 N.am      6 SEP2        0.0000 
      9 N          25.4670   17.0995   21.6020 N.am      2 SEC2        0.0000 
     10 O          28.8640   16.1535   20.4435 O.2       1 ALC1        0.0000 
     11 O          28.0780   15.2480   21.2820 O.2       9 ALL1        0.0000 
     12 O          29.6500   17.0590   19.6050 O.2       5 ALP1        0.0000 
     13 N          30.7115   15.5555   21.5915 N.am      2 SEC2        0.0000 
     14 N          29.9410   14.5860   22.3920 N.am     10 SEL2        0.0000 
     15 N          31.4820   16.5250   20.7910 N.am      6 SEP2        0.0000 
     16 N          30.6110   14.6270   23.8495 N.am      2 SEC2        0.0000 
     17 N          31.2810   14.6680   25.3070 N.am      6 SEP2        0.0000 
     18 N          31.3630   14.3170   22.7925 N.am      2 SEC2        0.0000 
     19 N          32.7850   14.0480   23.1930 N.am      6 SEP2        0.0000 
     20 N          29.9305   14.3565   24.9985 N.am      2 SEC2        0.0000 
     21 N          28.5800   14.0450   24.6900 N.am     10 SEL2        0.0000 
     22 CA         28.1385   11.7700   27.1605 C.3       4 GLC5        0.0000 
     23 CA         28.5120   13.5060   27.0210 C.3      12 GLL5        0.0000 
     24 CA         27.7650   10.0340   27.3000 C.3       8 GLP5        0.0000 
     25 CA         28.2370   11.7180   28.3870 C.3       4 GLC5        0.0000 
     26 CA         28.7090   13.4020   29.4740 C.3      12 GLL5        0.0000 
     27 CA         29.9385   11.8490   29.6035 C.3       4 GLC5        0.0000 
     28 CA         31.1680   10.2960   29.7330 C.3       8 GLP5        0.0000 
     29 CA         28.9655   14.1640   31.2920 C.3       4 GLC5        0.0000 
     30 CA         29.2220   14.9260   33.1100 C.3       8 GLP5        0.0000 
     31 CA         30.2090   14.9460   29.8445 C.3       4 GLC5        0.0000 
     32 CA         31.7090   16.4900   30.2150 C.3       8 GLP5        0.0000 
     33 CA         23.9180   14.8845   29.9325 C.3       4 GLC5        0.0000 
     34 CA         25.9850   14.4520   29.6680 C.3      12 GLL5        0.0000 
     35 CA         21.8510   15.3170   30.1970 C.3       8 GLP5        0.0000 
     36 CA         25.5095   16.2580   30.2560 C.3       4 GLC5        0.0000 
     37 CA         25.0340   18.0640   30.8440 C.3       8 GLP5        0.0000 
     38 CA         24.8530   16.9270   24.3365 C.3       4 GLC5        0.0000 
     39 CA         24.4570   15.0950   24.8340 C.3      12 GLL5        0.0000 
     40 CA         25.2490   18.7590   23.8390 C.3       8 GLP5        0.0000 
     41 CA         20.6735   11.3275   25.4720 C.3       4 GLC5        0.0000 
     42 CA         21.2070   13.2390   25.8950 C.3      12 GLL5        0.0000 
     43 CA         20.1400    9.4160   25.0490 C.3       8 GLP5        0.0000 
     44 CA         20.5695   13.8120   28.5585 C.3       4 GLC5        0.0000 
     45 CA         19.9370   13.6450   26.6030 C.3      12 GLL5        0.0000 
     46 CA         21.2020   13.9790   30.5140 C.3       8 GLP5        0.0000 
     47 CA         18.2840   13.3885   25.2915 C.3       4 GLC5        0.0000 
     48 CA         16.6310   13.1320   23.9800 C.3       8 GLP5        0.0000 
     49 N          18.1610   14.2290   25.6010 N.am      2 SEC2        0.0000 
     50 N          19.3530   14.7370   25.9590 N.am     10 SEL2        0.0000 
     51 N          16.9690   13.7210   25.2430 N.am      6 SEP2        0.0000 
     52 NZ         16.5880   15.9080   27.1535 N.4       3 LYC4        0.0000 
     53 NZ         17.8540   15.9030   27.6380 N.4      11 LYL4        0.0000 
     54 NZ         14.2020   16.3460   27.2270 N.4       7 LYP4        0.0000 
     55 NZ         17.9755   16.2540   29.0570 N.4       3 LYC4        0.0000 
     56 NZ         18.6350   17.8060   30.6840 N.4       7 LYP4        0.0000 
     57 NZ         17.5705   14.7215   28.4195 N.4       3 LYC4        0.0000 
     58 NZ         16.7310   12.3770   28.8730 N.4       7 LYP4        0.0000 
     59 N          16.5880   15.9080   27.1535 N.am      2 SEC2        0.0000 
     60 N          17.8540   15.9030   27.6380 N.am     10 SEL2        0.0000 
     61 N          15.3220   15.9130   26.6690 N.am      6 SEP2        0.0000 
     62 N          17.9755   16.2540   29.0570 N.am      2 SEC2        0.0000 
     63 N          18.0970   16.6050   30.4760 N.am      6 SEP2        0.0000 
     64 N          17.5705   14.7215   28.4195 N.am      2 SEC2        0.0000 
     65 N          17.2870   13.5400   29.2010 N.am      6 SEP2        0.0000 
     66 NZ         19.8190   17.4530   28.5975 N.4       3 LYC4        0.0000 
     67 NZ         20.2280   16.5580   27.4330 N.4      11 LYL4        0.0000 
     68 N          19.8190   17.4530   28.5975 N.am      2 SEC2        0.0000 
     69 N          20.2280   16.5580   27.4330 N.am     10 SEL2        0.0000 
     70 N          19.4100   18.3480   29.7620 N.am      6 SEP2        0.0000 
     71 N          20.9235   17.6450   27.1010 N.am      2 SEC2        0.0000 
     72 N          21.6190   18.7320   26.7690 N.am      6 SEP2        0.0000 
     73 N          18.8920   18.4120   25.6150 N.am      2 SEC2        0.0000 
     74 N          18.5380   17.1070   25.6700 N.am     10 SEL2        0.0000 
     75 N          19.2460   19.7170   25.5600 N.am      6 SEP2        0.0000 
     76 CA         30.2732   13.7447   26.0115 C.3       4 GLC5        0.0000 
     77 CA         27.8910   14.0090   25.8870 C.3      12 GLL5        0.0000 
     78 CA         32.3450   13.7320   25.5690 C.3       8 GLP5        0.0000 
     79 CA         25.0110   12.7490   29.3833 C.3       4 GLC5        0.0000 
     80 CA         26.5330   13.9420   28.3430 C.3      12 GLL5        0.0000 
     81 CA         23.7630   11.3010   29.7610 C.3       8 GLP5        0.0000 
     82 CA         26.8618   16.3648   27.0418 C.3       4 GLC5        0.0000 
     83 CA         25.9140   14.4250   27.2040 C.3      12 GLL5        0.0000 
     84 CA         27.4720   18.2910   27.4920 C.3       8 GLP5        0.0000 
     85 CA         28.7966   15.4639   25.7473 C.3       4 GLC5        0.0000 
     86 CA         26.5890   14.4520   25.9790 C.3      12 GLL5        0.0000 
     87 CA         30.1980   16.8230   25.2780 C.3       8 GLP5        0.0000 
     88 CA         26.6089   12.2826   27.2646 C.3       4 GLC5        0.0000 
     89 CA         27.8400   13.4670   28.2490 C.3      12 GLL5        0.0000 
     90 CA         26.3360   10.5490   27.0970 C.3       8 GLP5        0.0000 
@<TRIPOS>BOND
@<TRIPOS>SUBSTRUCTURE
     1 ALC1       10 GROUP        1 X    ALC  0     ROOT ALC X 1
     2 SEC2        1 GROUP        1 X    SEC  0     **** SEC X 2
     3 LYC4       52 GROUP        1 X    LYC  0     **** LYC X 4
     4 GLC5       22 GROUP        1 X    GLC  0     **** GLC X 6
     5 ALP1       12 GROUP        1 Y    ALP  0     ROOT ALP Y 8
     6 SEP2        3 GROUP        1 Y    SEP  0     **** SEP Y 9
     7 LYP4       54 GROUP        1 Y    LYP  0     **** LYP Y 11
     8 GLP5       24 GROUP        1 Y    GLP  0     **** GLP Y 13
     9 ALL1       11 GROUP        1 Z    ALL  0     ROOT ALL Z 15
    10 SEL2        2 GROUP        1 Z    SEL  0     **** SEL Z 16
    11 LYL4       53 GROUP        1 Z    LYL  0     **** LYL Z 18
    12 GLL5       23 GROUP        1 Z    GLL  0     **** GLL Z 20
@<TRIPOS>SET

