#    Name: 2fre_FMN_2_ligand
#    Modification time : Tue Mar 25 13:05:16 2014

@<TRIPOS>MOLECULE
2fre_FMN_2_ligand
   50    52     1     0     0
SMALL
NO_CHARGES


@<TRIPOS>ATOM
      1 N1         26.0680   15.5640   22.5600 N.2       1 FMN1152     0.0000 
      2 C2         26.7730   15.6520   21.3650 C.2       1 FMN1152     0.0000 
      3 O2         26.2020   16.1720   20.4110 O.2       1 FMN1152     0.0000 
      4 N3         28.0780   15.2480   21.2820 N.am      1 FMN1152     0.0000 
      5 C4         28.7070   14.6980   22.3770 C.2       1 FMN1152     0.0000 
      6 O4         29.9410   14.5860   22.3920 O.2       1 FMN1152     0.0000 
      7 C4A        27.9880   14.5880   23.5670 C.2       1 FMN1152     0.0000 
      8 N5         28.5800   14.0450   24.6900 N.2       1 FMN1152     0.0000 
      9 C5A        27.8910   14.0090   25.8870 C.ar      1 FMN1152     0.0000 
     10 C6         28.5120   13.5060   27.0210 C.ar      1 FMN1152     0.0000 
     11 C7         27.8400   13.4670   28.2490 C.ar      1 FMN1152     0.0000 
     12 C7M        28.7090   13.4020   29.4740 C.3       1 FMN1152     0.0000 
     13 C8         26.5330   13.9420   28.3430 C.ar      1 FMN1152     0.0000 
     14 C8M        25.9850   14.4520   29.6680 C.3       1 FMN1152     0.0000 
     15 C9         25.9140   14.4250   27.2040 C.ar      1 FMN1152     0.0000 
     16 C9A        26.5890   14.4520   25.9790 C.ar      1 FMN1152     0.0000 
     17 N10        25.9520   14.9360   24.8560 N.pl3     1 FMN1152     0.0000 
     18 C10        26.6730   15.0270   23.6600 C.2       1 FMN1152     0.0000 
     19 C1'        24.4570   15.0950   24.8340 C.3       1 FMN1152     0.0000 
     20 C2'        23.5710   13.9000   25.2070 C.3       1 FMN1152     0.0000 
     21 O2'        23.3580   13.0590   24.0610 O.3       1 FMN1152     0.0000 
     22 C3'        22.2140   14.3980   25.7040 C.3       1 FMN1152     0.0000 
     23 O3'        22.3990   15.1280   26.9040 O.3       1 FMN1152     0.0000 
     24 C4'        21.2070   13.2390   25.8950 C.3       1 FMN1152     0.0000 
     25 O4'        20.8340   12.6830   24.6330 O.3       1 FMN1152     0.0000 
     26 C5'        19.9370   13.6450   26.6030 C.3       1 FMN1152     0.0000 
     27 O5'        19.3530   14.7370   25.9590 O.3       1 FMN1152     0.0000 
     28 P          18.9930   16.1140   26.6980 P.3       1 FMN1152     0.0000 
     29 O1P        17.8540   15.9030   27.6380 O.co2     1 FMN1152     0.0000 
     30 O2P        20.2280   16.5580   27.4330 O.co2     1 FMN1152     0.0000 
     31 O3P        18.5380   17.1070   25.6700 O.co2     1 FMN1152     0.0000 
     32 H          28.5990   15.3548   20.3924 H         1 FMN1152     0.0000 
     33 H          29.4816   13.1546   26.9648 H         1 FMN1152     0.0000 
     34 H          24.9414   14.7716   27.2516 H         1 FMN1152     0.0000 
     35 H          24.1432   15.4474   23.8089 H         1 FMN1152     0.0000 
     36 H          24.1723   15.9556   25.5062 H         1 FMN1152     0.0000 
     37 H          24.0439   13.3603   26.0055 H         1 FMN1152     0.0000 
     38 H          21.8062   15.0519   24.9203 H         1 FMN1152     0.0000 
     39 H          21.6987   12.4711   26.5012 H         1 FMN1152     0.0000 
     40 H          20.1967   13.8695   27.6524 H         1 FMN1152     0.0000 
     41 H          19.2693   12.7658   26.6219 H         1 FMN1152     0.0000 
     42 H          29.2869   12.5859   29.4765 H         1 FMN1152     0.0000 
     43 H          29.3179   14.1925   29.5398 H         1 FMN1152     0.0000 
     44 H          28.1663   13.3794   30.3136 H         1 FMN1152     0.0000 
     45 H          25.9978   13.7428   30.3729 H         1 FMN1152     0.0000 
     46 H          26.5173   15.2228   30.0181 H         1 FMN1152     0.0000 
     47 H          25.0387   14.7638   29.5831 H         1 FMN1152     0.0000 
     48 H          22.3858   12.8263   24.0880 H         1 FMN1152     0.0000 
     49 H          21.5554   15.6521   27.0206 H         1 FMN1152     0.0000 
     50 H          20.4178   13.4402   24.1296 H         1 FMN1152     0.0000 
@<TRIPOS>BOND
     1    2    1 1    
     2   18    1 2    
     3    3    2 2    
     4    4    2 am   
     5    5    4 am   
     6   32    4 1    
     7    6    5 2    
     8    7    5 1    
     9    8    7 2    
    10   18    7 1    
    11    9    8 1    
    12   10    9 ar   
    13   16    9 ar   
    14   11   10 ar   
    15   33   10 1    
    16   12   11 1    
    17   13   11 ar   
    18   42   12 1    
    19   43   12 1    
    20   44   12 1    
    21   14   13 1    
    22   15   13 ar   
    23   45   14 1    
    24   46   14 1    
    25   47   14 1    
    26   16   15 ar   
    27   34   15 1    
    28   17   16 1    
    29   18   17 1    
    30   19   17 1    
    31   20   19 1    
    32   35   19 1    
    33   36   19 1    
    34   21   20 1    
    35   22   20 1    
    36   37   20 1    
    37   48   21 1    
    38   23   22 1    
    39   24   22 1    
    40   38   22 1    
    41   49   23 1    
    42   25   24 1    
    43   26   24 1    
    44   39   24 1    
    45   50   25 1    
    46   27   26 1    
    47   40   26 1    
    48   41   26 1    
    49   28   27 1    
    50   29   28 ar   
    51   30   28 ar   
    52   31   28 ar   
@<TRIPOS>SUBSTRUCTURE
     1 FMN1152     1 GROUP   
@<TRIPOS>SET

