#    Name: 1B8N_1_CAVITY_N1_ALL.mol2
#    Modification time : Mon Mar 10 14:24:38 2014

@<TRIPOS>MOLECULE
1B8N_1_CAVITY_N1_ALL.mol2
   77     0     5     0     0
SMALL
NO_CHARGES


@<TRIPOS>ATOM
      1 N         -61.8506   94.8557  100.3947 N.2       2 ALA2        0.0000 
      2 CZ        -63.5911   94.1930  101.4103 C.ar      3 PHE5        0.0000 
      3 O         -65.3316   93.5303  102.4259 O.2       2 ALA2        0.0000 
      4 N         -62.0317   92.8229  100.9733 N.2       2 ALA2        0.0000 
      5 DU        -62.2987   92.1073  102.2642 H         5 CUB7        0.0000 
      6 CZ        -63.2383   93.5914   99.4069 C.ar      3 PHE5        0.0000 
      7 CZ        -63.5053   92.8758  100.6979 C.ar      3 PHE5        0.0000 
      8 CA        -63.7722   92.1602  101.9888 C.3       4 GLY6        0.0000 
      9 CA        -64.0392   91.4446  103.2798 C.3       4 GLY6        0.0000 
     10 CZ        -64.9788   92.9287  100.4225 C.ar      3 PHE5        0.0000 
     11 CA        -60.4723   91.4527  100.5362 C.3       4 GLY6        0.0000 
     12 CA        -60.7393   90.7371  101.8272 C.3       4 GLY6        0.0000 
     13 N         -61.9459   91.5057  100.2608 N.2       2 ALA2        0.0000 
     14 DU        -62.2128   90.7900  101.5518 H         5 CUB7        0.0000 
     15 DU        -62.4798   90.0744  102.8428 H         5 CUB7        0.0000 
     16 N         -63.1525   92.2742   98.6945 N.2       2 ALA2        0.0000 
     17 CZ        -63.4194   91.5586   99.9854 C.ar      3 PHE5        0.0000 
     18 CA        -63.6864   90.8430  101.2764 C.3       4 GLY6        0.0000 
     19 CA        -63.9534   90.1273  102.5674 C.3       4 GLY6        0.0000 
     20 CA        -64.2203   89.4117  103.8584 C.3       4 GLY6        0.0000 
     21 CA        -64.8930   91.6115   99.7101 C.3       4 GLY6        0.0000 
     22 CZ        -59.1799   89.3670  101.3901 C.ar      3 PHE5        0.0000 
     23 CA        -60.3865   90.1355   99.8238 C.3       4 GLY6        0.0000 
     24 CZ        -60.6535   89.4199  101.1147 C.ar      3 PHE5        0.0000 
     25 DU        -60.9204   88.7043  102.4057 H         5 CUB7        0.0000 
     26 N         -61.5931   90.9041   98.2574 N.2       2 ALA2        0.0000 
     27 CZ        -61.8601   90.1884   99.5484 C.ar      3 PHE5        0.0000 
     28 DU        -62.1270   89.4728  100.8394 H         5 CUB7        0.0000 
     29 CA        -62.3940   88.7572  102.1303 C.3       4 GLY6        0.0000 
     30 CA        -63.0666   90.9570   97.9820 C.3       4 GLY6        0.0000 
     31 O         -63.3336   90.2414   99.2730 O.2       2 ALA2        0.0000 
     32 CA        -63.6006   89.5257  100.5640 C.3       4 GLY6        0.0000 
     33 CZ        -64.2732   91.7256   96.4157 C.ar      3 PHE5        0.0000 
     34 CZ        -64.5402   91.0099   97.7067 C.ar      3 PHE5        0.0000 
     35 O         -64.8072   90.2943   98.9976 O.2       2 ALA2        0.0000 
     36 CZ        -65.2129   93.2098   93.5584 C.ar      3 PHE5        0.0000 
     37 CZ        -66.0138   91.0629   97.4313 C.ar      3 PHE5        0.0000 
     38 CZ        -66.9534   92.5471   94.5740 C.ar      3 PHE5        0.0000 
     39 CZ        -67.2203   91.8314   95.8649 C.ar      3 PHE5        0.0000 
     40 CZ        -61.5073   89.5868   97.5450 C.ar      3 PHE5        0.0000 
     41 OG        -61.7742   88.8712   98.8360 O.2       1 SER1        0.0000 
     42 OG        -62.9808   89.6398   97.2696 O.2       1 SER1        0.0000 
     43 OG        -63.2478   88.9242   98.5606 O.2       1 SER1        0.0000 
     44 CA        -63.5147   88.2085   99.8515 C.3       4 GLY6        0.0000 
     45 CA        -63.9204   91.1240   94.4123 C.3       4 GLY6        0.0000 
     46 CA        -64.1874   90.4083   95.7033 C.3       4 GLY6        0.0000 
     47 O         -64.4544   89.6927   96.9942 O.2       2 ALA2        0.0000 
     48 O         -64.7213   88.9771   98.2852 O.2       2 ALA2        0.0000 
     49 N         -65.1270   91.8925   92.8459 N.2       2 ALA2        0.0000 
     50 CZ        -65.3940   91.1769   94.1369 C.ar      3 PHE5        0.0000 
     51 CZ        -65.6610   90.4613   95.4279 C.ar      3 PHE5        0.0000 
     52 O         -65.9279   89.7456   96.7188 O.2       2 ALA2        0.0000 
     53 N         -66.8676   91.2298   93.8615 N.2       2 ALA2        0.0000 
     54 CA        -67.1345   90.5142   95.1525 C.3       4 GLY6        0.0000 
     55 CA        -67.4015   89.7986   96.4435 C.3       4 GLY6        0.0000 
     56 CA        -62.6280   89.0382   95.2662 C.3       4 GLY6        0.0000 
     57 CA        -63.8346   89.8067   93.6998 C.3       4 GLY6        0.0000 
     58 CA        -64.1016   89.0911   94.9908 C.3       4 GLY6        0.0000 
     59 OG        -64.3685   88.3755   96.2818 O.2       1 SER1        0.0000 
     60 OG        -64.6355   87.6599   97.5728 O.2       1 SER1        0.0000 
     61 N         -65.3082   89.8597   93.4245 N.2       2 ALA2        0.0000 
     62 N         -65.5751   89.1440   94.7154 N.2       2 ALA2        0.0000 
     63 OG        -65.8421   88.4284   96.0064 O.2       1 SER1        0.0000 
     64 N         -67.0487   89.1970   94.4401 N.2       2 ALA2        0.0000 
     65 CA        -67.3157   88.4814   95.7310 C.3       4 GLY6        0.0000 
     66 CA        -62.5422   87.7210   94.5538 C.3       4 GLY6        0.0000 
     67 O         -63.7488   88.4895   92.9874 O.2       2 ALA2        0.0000 
     68 DU        -64.0158   87.7739   94.2784 H         5 CUB7        0.0000 
     69 OG        -64.2827   87.0583   95.5694 O.2       1 SER1        0.0000 
     70 N         -65.4893   87.8268   94.0030 N.2       2 ALA2        0.0000 
     71 OG        -65.7563   87.1112   95.2940 O.2       1 SER1        0.0000 
     72 CA        -67.2298   87.1641   95.0186 C.3       4 GLY6        0.0000 
     73 OG        -63.6630   87.1723   92.2750 O.2       1 SER1        0.0000 
     74 N         -63.9299   86.4567   93.5660 N.2       2 ALA2        0.0000 
     75 N         -64.1969   85.7410   94.8569 N.2       2 ALA2        0.0000 
     76 N         -65.4035   86.5096   93.2906 N.2       2 ALA2        0.0000 
     77 OG        -65.6705   85.7940   94.5815 O.2       1 SER1        0.0000 
@<TRIPOS>BOND
@<TRIPOS>SUBSTRUCTURE
     1 SER1       41 GROUP   
     2 ALA2        1 GROUP   
     3 PHE5        2 GROUP   
     4 GLY6        8 GROUP   
     5 CUB7        5 GROUP   
@<TRIPOS>SET

