#    Name: 1b8n_IMG_1_INTS_M
#    Modification time : Mon Mar 24 19:26:46 2014

@<TRIPOS>MOLECULE
1b8n_IMG_1_INTS_M
   51     0     9     0     0
SMALL
NO_CHARGES


@<TRIPOS>ATOM
      1 N         -66.7995   89.7500   98.7110 N.am      2 SEC2        0.0000 
      2 N         -66.6900   90.3810   97.6050 N.am      8 SEL2        0.0000 
      3 N         -66.9090   89.1190   99.8170 N.am      5 SEP2        0.0000 
      4 CA        -65.5735   92.0465   97.4400 C.3       3 GLC5        0.0000 
      5 CA        -65.3860   90.2550   97.0230 C.3       9 GLL5        0.0000 
      6 CA        -65.7610   93.8380   97.8570 C.3       6 GLP5        0.0000 
      7 CA        -66.1540   89.8770   99.0825 C.3       3 GLC5        0.0000 
      8 CA        -66.9220   89.4990  101.1420 C.3       6 GLP5        0.0000 
      9 CA        -61.7530   88.4245   95.8415 C.3       3 GLC5        0.0000 
     10 CA        -63.7130   88.8060   95.5100 C.3       9 GLL5        0.0000 
     11 CA        -59.7930   88.0430   96.1730 C.3       6 GLP5        0.0000 
     12 CA        -62.2355   89.9540   95.2535 C.3       3 GLC5        0.0000 
     13 CA        -60.7580   91.1020   94.9970 C.3       6 GLP5        0.0000 
     14 N         -62.2920   87.1295   96.4040 N.am      2 SEC2        0.0000 
     15 N         -63.1890   87.4580   95.3440 N.am      8 SEL2        0.0000 
     16 N         -61.3950   86.8010   97.4640 N.am      5 SEP2        0.0000 
     17 CA        -63.8765   89.9055   91.9735 C.3       3 GLC5        0.0000 
     18 CA        -64.1210   89.3510   94.0980 C.3       9 GLL5        0.0000 
     19 CA        -63.6320   90.4600   89.8490 C.3       6 GLP5        0.0000 
     20 CA        -62.4380   90.0765   93.6630 C.3       3 GLC5        0.0000 
     21 CA        -60.7550   90.8020   93.2280 C.3       6 GLP5        0.0000 
     22 N         -62.7365   88.9185   92.0440 N.am      2 SEC2        0.0000 
     23 N         -63.5970   88.5380   93.0400 N.am      8 SEL2        0.0000 
     24 N         -61.8760   89.2990   91.0480 N.am      5 SEP2        0.0000 
     25 CA        -67.6750   88.3295   93.8515 C.3       3 GLC5        0.0000 
     26 CA        -65.6640   89.2910   94.0800 C.3       9 GLL5        0.0000 
     27 CA        -69.6860   87.3680   93.6230 C.3       6 GLP5        0.0000 
     28 CA        -68.6665   89.2000   93.8890 C.3       3 GLC5        0.0000 
     29 CA        -67.6470   91.0320   94.1550 C.3       9 GLL5        0.0000 
     30 CA        -68.8280   91.3770   95.5920 C.3       3 GLC5        0.0000 
     31 CA        -70.0090   91.7220   97.0290 C.3       6 GLP5        0.0000 
     32 O         -69.2420   92.9710   93.8800 O.2       1 ALC1        0.0000 
     33 O         -67.9010   92.4140   93.8430 O.2       7 ALL1        0.0000 
     34 O         -70.5830   93.5280   93.9170 O.2       4 ALP1        0.0000 
     35 CA        -68.0105   93.4615   91.9195 C.3       3 GLC5        0.0000 
     36 CA        -66.6630   92.9030   93.3710 C.3       9 GLL5        0.0000 
     37 CA        -69.3580   94.0200   90.4680 C.3       6 GLP5        0.0000 
     38 N         -68.4990   95.4670   93.4085 N.am      2 SEC2        0.0000 
     39 N         -67.1280   95.2670   92.8890 N.am      8 SEL2        0.0000 
     40 N         -69.8700   95.6670   93.9280 N.am      5 SEP2        0.0000 
     41 O         -64.5810   95.6145   92.1445 O.2       1 ALC1        0.0000 
     42 O         -65.0700   94.3360   92.5080 O.2       7 ALL1        0.0000 
     43 O         -64.0920   96.8930   91.7810 O.2       4 ALP1        0.0000 
     44 O         -62.4660   94.8695   91.7930 O.2       1 ALC1        0.0000 
     45 O         -62.9040   93.5180   91.9370 O.2       7 ALL1        0.0000 
     46 O         -62.0280   96.2210   91.6490 O.2       4 ALP1        0.0000 
     47 CA        -64.6825   91.2000   91.6050 C.3       3 GLC5        0.0000 
     48 CA        -65.7330   91.9400   93.3610 C.3       9 GLL5        0.0000 
     49 CA        -67.8170   90.6125   92.0853 C.3       3 GLC5        0.0000 
     50 CA        -66.3690   90.7420   93.8760 C.3       9 GLL5        0.0000 
     51 CA        -68.6260   90.3380   90.1550 C.3       6 GLP5        0.0000 
@<TRIPOS>BOND
@<TRIPOS>SUBSTRUCTURE
     1 ALC1       32 GROUP        1 X    ALC  0     ROOT ALC X 1
     2 SEC2        1 GROUP        1 X    SEC  0     **** SEC X 2
     3 GLC5        4 GROUP        1 X    GLC  0     **** GLC X 6
     4 ALP1       34 GROUP        1 Y    ALP  0     ROOT ALP Y 8
     5 SEP2        3 GROUP        1 Y    SEP  0     **** SEP Y 9
     6 GLP5        6 GROUP        1 Y    GLP  0     **** GLP Y 13
     7 ALL1       33 GROUP        1 Z    ALL  0     ROOT ALL Z 15
     8 SEL2        2 GROUP        1 Z    SEL  0     **** SEL Z 16
     9 GLL5        5 GROUP        1 Z    GLL  0     **** GLL Z 20
@<TRIPOS>SET

