#    Name: 1b8n_IMG_1_ligand
#    Modification time : Mon Mar 24 19:26:46 2014

@<TRIPOS>MOLECULE
1b8n_IMG_1_ligand
   34    36     1     0     0
SMALL
NO_CHARGES


@<TRIPOS>ATOM
      1 O5'       -66.6900   90.3810   97.6050 O.3       1 IMG600      0.0000 
      2 C5'       -65.3860   90.2550   97.0230 C.3       1 IMG600      0.0000 
      3 C4'       -65.0230   88.8980   96.3610 C.3       1 IMG600      0.0000 
      4 N4'       -66.0870   88.7440   95.3660 N.4       1 IMG600      0.0000 
      5 C3'       -63.7130   88.8060   95.5100 C.3       1 IMG600      0.0000 
      6 O3'       -63.1890   87.4580   95.3440 O.3       1 IMG600      0.0000 
      7 C2'       -64.1210   89.3510   94.0980 C.3       1 IMG600      0.0000 
      8 O2'       -63.5970   88.5380   93.0400 O.3       1 IMG600      0.0000 
      9 C1'       -65.6640   89.2910   94.0800 C.3       1 IMG600      0.0000 
     10 C9        -66.3690   90.7420   93.8760 C.2       1 IMG600      0.0000 
     11 C8        -67.6470   91.0320   94.1550 C.2       1 IMG600      0.0000 
     12 N7        -67.9010   92.4140   93.8430 N.pl3     1 IMG600      0.0000 
     13 C5        -66.6630   92.9030   93.3710 C.2       1 IMG600      0.0000 
     14 C6        -66.3870   94.2710   92.9020 C.2       1 IMG600      0.0000 
     15 O6        -67.1280   95.2670   92.8890 O.2       1 IMG600      0.0000 
     16 N1        -65.0700   94.3360   92.5080 N.am      1 IMG600      0.0000 
     17 N2        -62.9040   93.5180   91.9370 N.pl3     1 IMG600      0.0000 
     18 C2        -64.1390   93.3000   92.5200 C.2       1 IMG600      0.0000 
     19 N3        -64.4690   92.0930   92.9490 N.2       1 IMG600      0.0000 
     20 C4        -65.7330   91.9400   93.3610 C.2       1 IMG600      0.0000 
     21 H         -64.5823   90.4606   97.7859 H         1 IMG600      0.0000 
     22 H         -65.2164   91.0460   96.2382 H         1 IMG600      0.0000 
     23 H         -65.0757   88.1182   97.0515 H         1 IMG600      0.0000 
     24 H         -63.0033   89.4882   95.9080 H         1 IMG600      0.0000 
     25 H         -63.8309   90.3664   94.0435 H         1 IMG600      0.0000 
     26 H         -65.9870   88.6650   93.2788 H         1 IMG600      0.0000 
     27 H         -68.3249   90.4545   94.5059 H         1 IMG600      0.0000 
     28 H         -68.6897   92.8583   93.9352 H         1 IMG600      0.0000 
     29 H         -64.7138   95.2907   92.1498 H         1 IMG600      0.0000 
     30 H         -62.2692   92.7454   91.9491 H         1 IMG600      0.0000 
     31 H         -62.7529   94.4293   91.5540 H         1 IMG600      0.0000 
     32 H         -66.2525   91.2580   97.8040 H         1 IMG600      0.0000 
     33 H         -63.2020   87.2951   94.3574 H         1 IMG600      0.0000 
     34 H         -64.3349   88.4816   92.3674 H         1 IMG600      0.0000 
@<TRIPOS>BOND
     1    2    1 1    
     2   32    1 1    
     3    3    2 1    
     4   21    2 1    
     5   22    2 1    
     6    4    3 1    
     7    5    3 1    
     8   23    3 1    
     9    9    4 1    
    10    6    5 1    
    11    7    5 1    
    12   24    5 1    
    13   33    6 1    
    14    8    7 1    
    15    9    7 1    
    16   25    7 1    
    17   34    8 1    
    18   10    9 1    
    19   26    9 1    
    20   11   10 2    
    21   20   10 1    
    22   12   11 1    
    23   27   11 1    
    24   13   12 1    
    25   28   12 1    
    26   14   13 1    
    27   20   13 2    
    28   15   14 2    
    29   16   14 am   
    30   18   16 1    
    31   29   16 1    
    32   18   17 1    
    33   30   17 1    
    34   31   17 1    
    35   19   18 2    
    36   20   19 1    
@<TRIPOS>SUBSTRUCTURE
     1 IMG600      1 GROUP   
@<TRIPOS>SET

