#    Name: 3os3_3OS_1_INTS_M
#    Modification time : Tue Mar 25 05:13:59 2014

@<TRIPOS>MOLECULE
3os3_3OS_1_INTS_M
   88     0     9     0     0
SMALL
NO_CHARGES


@<TRIPOS>ATOM
      1 CA         12.9115   38.9030   -2.7330 C.3       3 GLC5        0.0000 
      2 CA         10.8010   39.1920   -2.9090 C.3       9 GLL5        0.0000 
      3 CA         15.0220   38.6140   -2.5570 C.3       6 GLP5        0.0000 
      4 CA         10.5965   36.5855   -3.5440 C.3       3 GLC5        0.0000 
      5 CA         10.0600   38.0610   -2.4880 C.3       9 GLL5        0.0000 
      6 CA         11.1330   35.1100   -4.6000 C.3       6 GLP5        0.0000 
      7 CA          1.3720   44.0220   -6.4345 C.3       3 GLC5        0.0000 
      8 CA          2.8890   43.4460   -7.7720 C.3       9 GLL5        0.0000 
      9 CA         -0.1450   44.5980   -5.0970 C.3       6 GLP5        0.0000 
     10 CA          2.9170   45.5360   -7.9385 C.3       3 GLC5        0.0000 
     11 CA          2.9450   47.6260   -8.1050 C.3       6 GLP5        0.0000 
     12 CA          2.3050   42.7005   -9.6360 C.3       3 GLC5        0.0000 
     13 CA          1.7210   41.9550  -11.5000 C.3       6 GLP5        0.0000 
     14 CA         13.6630   37.1110    0.2845 C.3       3 GLC5        0.0000 
     15 CA         12.4970   38.3300    1.0000 C.3       9 GLL5        0.0000 
     16 CA         14.8290   35.8920   -0.4310 C.3       6 GLP5        0.0000 
     17 CA          8.2640   39.9730   -7.7700 C.3       3 GLC5        0.0000 
     18 CA          7.4930   40.9880   -6.2110 C.3       9 GLL5        0.0000 
     19 CA          9.0350   38.9580   -9.3290 C.3       6 GLP5        0.0000 
     20 CA          5.9710   36.3180   -2.8340 C.3       3 GLC5        0.0000 
     21 CA          8.1760   36.6490   -2.8080 C.3       9 GLL5        0.0000 
     22 CA          3.7660   35.9870   -2.8600 C.3       6 GLP5        0.0000 
     23 CA          7.5520   34.8970   -3.7945 C.3       3 GLC5        0.0000 
     24 CA          6.9280   33.1450   -4.7810 C.3       6 GLP5        0.0000 
     25 CA          8.3895   35.5605   -1.1930 C.3       3 GLC5        0.0000 
     26 CA          8.6030   34.4720    0.4220 C.3       6 GLP5        0.0000 
     27 CA          6.9375   36.9170   -6.4070 C.3       3 GLC5        0.0000 
     28 CA          7.3500   38.0690   -4.9010 C.3       9 GLL5        0.0000 
     29 CA          6.5250   35.7650   -7.9130 C.3       6 GLP5        0.0000 
     30 CA          5.8280   37.3245   -5.0735 C.3       3 GLC5        0.0000 
     31 CA          4.3060   36.5800   -5.2460 C.3       6 GLP5        0.0000 
     32 CA          5.0725   39.8905   -7.0300 C.3       3 GLC5        0.0000 
     33 CA          6.2770   40.8330   -5.4800 C.3       9 GLL5        0.0000 
     34 CA          3.8680   38.9480   -8.5800 C.3       6 GLP5        0.0000 
     35 CA          6.0010   41.1625   -3.3270 C.3       3 GLC5        0.0000 
     36 CA          5.7250   41.4920   -1.1740 C.3       6 GLP5        0.0000 
     37 CA          3.5330   40.5165   -6.4765 C.3       3 GLC5        0.0000 
     38 CA          5.0890   41.4690   -5.8910 C.3       9 GLL5        0.0000 
     39 CA          1.9770   39.5640   -7.0620 C.3       6 GLP5        0.0000 
     40 CA          6.7530   44.1340   -8.8780 C.3       3 GLC5        0.0000 
     41 CA          6.2710   42.4630   -7.7850 C.3       9 GLL5        0.0000 
     42 CA          7.2350   45.8050   -9.9710 C.3       6 GLP5        0.0000 
     43 CA         10.3060   42.3060   -8.3870 C.3       3 GLC5        0.0000 
     44 CA          8.5650   41.9960   -8.0690 C.3       9 GLL5        0.0000 
     45 CA         12.0470   42.6160   -8.7050 C.3       6 GLP5        0.0000 
     46 CA          8.8000   40.4770   -8.6990 C.3       3 GLC5        0.0000 
     47 CA          8.7345   43.6475   -9.1370 C.3       3 GLC5        0.0000 
     48 CA          8.9040   45.2990  -10.2050 C.3       6 GLP5        0.0000 
     49 CA         10.2000   38.8100    3.1175 C.3       3 GLC5        0.0000 
     50 CA         11.7930   38.7880    2.2640 C.3       9 GLL5        0.0000 
     51 CA          8.6070   38.8320    3.9710 C.3       6 GLP5        0.0000 
     52 N          11.4750   42.7790   -6.1245 N.am      2 SEC2        0.0000 
     53 N          11.0330   41.5480   -5.5920 N.am      8 SEL2        0.0000 
     54 N          11.9170   44.0100   -6.6570 N.am      5 SEP2        0.0000 
     55 N          12.4850   43.3115   -5.3485 N.am      2 SEC2        0.0000 
     56 N          13.0530   42.6130   -4.0400 N.am      8 SEL2        0.0000 
     57 CA         16.0225   42.1145   -6.8055 C.3       3 GLC5        0.0000 
     58 CA         14.6330   41.6270   -5.4900 C.3       9 GLL5        0.0000 
     59 CA         17.4120   42.6020   -8.1210 C.3       6 GLP5        0.0000 
     60 CA         13.5415   42.7775   -6.7615 C.3       3 GLC5        0.0000 
     61 CA         12.4500   43.9280   -8.0330 C.3       6 GLP5        0.0000 
     62 CA         14.2370   40.4125   -7.0190 C.3       3 GLC5        0.0000 
     63 CA         13.8410   39.1980   -8.5480 C.3       6 GLP5        0.0000 
     64 O          15.4590   44.1980   -6.2965 O.2       1 ALC1        0.0000 
     65 O          15.6180   42.5490   -5.8890 O.2       7 ALL1        0.0000 
     66 O          15.3000   45.8470   -6.7040 O.2       4 ALP1        0.0000 
     67 CA          8.8298   41.6193   -3.9888 C.3       3 GLC5        0.0000 
     68 CA         10.3520   39.9670   -4.0330 C.3       9 GLL5        0.0000 
     69 CA          7.9040   43.4510   -3.5870 C.3       6 GLP5        0.0000 
     70 CA         10.5042   37.7293   -4.5770 C.3       3 GLC5        0.0000 
     71 CA         10.4320   35.8790   -5.6830 C.3       6 GLP5        0.0000 
     72 CA          9.4825   36.5275   -4.3383 C.3       3 GLC5        0.0000 
     73 CA          4.7750   40.6610   -7.9958 C.3       3 GLC5        0.0000 
     74 CA          2.6865   41.3730   -7.3340 C.3       3 GLC5        0.0000 
     75 CA          3.9030   42.9180   -7.4400 C.3       9 GLL5        0.0000 
     76 CA          2.9745   43.1165   -5.8200 C.3       3 GLC5        0.0000 
     77 CA          2.5530   43.0510   -4.0340 C.3       6 GLP5        0.0000 
     78 CA          7.1892   41.4768   -9.2950 C.3       3 GLC5        0.0000 
     79 CA          7.5160   40.8110  -11.0180 C.3       6 GLP5        0.0000 
     80 CA          7.6888   42.4280   -5.1860 C.3       3 GLC5        0.0000 
     81 CA          7.4540   41.8220   -7.3590 C.3       9 GLL5        0.0000 
     82 CA          7.4497   37.5228   -1.6439 C.3       3 GLC5        0.0000 
     83 CA          8.8900   37.7030   -3.1790 C.3       9 GLL5        0.0000 
     84 CA          6.0740   37.7800   -0.4670 C.3       6 GLP5        0.0000 
     85 CA          9.2549   37.2151   -5.1955 C.3       3 GLC5        0.0000 
     86 CA          6.7935   42.3010   -4.6363 C.3       3 GLC5        0.0000 
     87 CA         14.7428   40.1940   -3.6650 C.3       3 GLC5        0.0000 
     88 CA         14.2940   41.9210   -4.0560 C.3       9 GLL5        0.0000 
@<TRIPOS>BOND
@<TRIPOS>SUBSTRUCTURE
     1 ALC1       64 GROUP        1 X    ALC  0     ROOT ALC X 1
     2 SEC2       52 GROUP        1 X    SEC  0     **** SEC X 2
     3 GLC5        1 GROUP        1 X    GLC  0     **** GLC X 6
     4 ALP1       66 GROUP        1 Y    ALP  0     ROOT ALP Y 8
     5 SEP2       54 GROUP        1 Y    SEP  0     **** SEP Y 9
     6 GLP5        3 GROUP        1 Y    GLP  0     **** GLP Y 13
     7 ALL1       65 GROUP        1 Z    ALL  0     ROOT ALL Z 15
     8 SEL2       53 GROUP        1 Z    SEL  0     **** SEL Z 16
     9 GLL5        2 GROUP        1 Z    GLL  0     **** GLL Z 20
@<TRIPOS>SET

