#    Name: 3os3_3OS_1_ligand
#    Modification time : Tue Mar 25 05:13:59 2014

@<TRIPOS>MOLECULE
3os3_3OS_1_ligand
   48    49     1     0     0
SMALL
NO_CHARGES


@<TRIPOS>ATOM
      1 C4         10.3520   39.9670   -4.0330 C.ar      1 3OS400      0.0000 
      2 C5         10.8010   39.1920   -2.9090 C.ar      1 3OS400      0.0000 
      3 C6         10.0600   38.0610   -2.4880 C.ar      1 3OS400      0.0000 
      4 C7          8.8900   37.7030   -3.1790 C.ar      1 3OS400      0.0000 
      5 C13         5.0930   42.2850   -7.0380 C.ar      1 3OS400      0.0000 
      6 C15         2.8890   43.4460   -7.7720 C.1       1 3OS400      0.0000 
      7 C17         7.4540   41.8220   -7.3590 C.ar      1 3OS400      0.0000 
      8 C22        12.4970   38.3300    1.0000 C.3       1 3OS400      0.0000 
      9 C1          9.1590   39.6080   -4.7480 C.ar      1 3OS400      0.0000 
     10 N2          8.7350   40.3840   -5.8700 N.pl3     1 3OS400      0.0000 
     11 C3          7.4930   40.9880   -6.2110 C.ar      1 3OS400      0.0000 
     12 F8          8.1760   36.6490   -2.8080 F         1 3OS400      0.0000 
     13 C9          8.4520   38.4590   -4.2820 C.ar      1 3OS400      0.0000 
     14 F10         7.3500   38.0690   -4.9010 F         1 3OS400      0.0000 
     15 C11         6.2770   40.8330   -5.4800 C.ar      1 3OS400      0.0000 
     16 C12         5.0890   41.4690   -5.8910 C.ar      1 3OS400      0.0000 
     17 C14         3.9030   42.9180   -7.4400 C.1       1 3OS400      0.0000 
     18 C16         6.2710   42.4630   -7.7850 C.ar      1 3OS400      0.0000 
     19 F18         8.5650   41.9960   -8.0690 F         1 3OS400      0.0000 
     20 C19        10.4980   37.2420   -1.3530 C.2       1 3OS400      0.0000 
     21 N20        10.5830   37.6750   -0.1340 N.2       1 3OS400      0.0000 
     22 O21        11.7960   37.1980    0.4310 O.3       1 3OS400      0.0000 
     23 C23        11.7930   38.7880    2.2640 C.3       1 3OS400      0.0000 
     24 O24        12.3240   38.0480    3.3640 O.3       1 3OS400      0.0000 
     25 C25        11.1690   41.1330   -4.4430 C.2       1 3OS400      0.0000 
     26 O26        11.0330   41.5480   -5.5920 O.2       1 3OS400      0.0000 
     27 N27        12.0730   41.6930   -3.5450 N.am      1 3OS400      0.0000 
     28 O28        13.0530   42.6130   -4.0400 O.3       1 3OS400      0.0000 
     29 C29        14.2940   41.9210   -4.0560 C.3       1 3OS400      0.0000 
     30 C30        14.6330   41.6270   -5.4900 C.3       1 3OS400      0.0000 
     31 O31        15.6180   42.5490   -5.8890 O.3       1 3OS400      0.0000 
     32 H          11.6510   39.4631   -2.4227 H         1 3OS400      0.0000 
     33 H          12.5255   39.1699    0.2983 H         1 3OS400      0.0000 
     34 H          13.5284   38.0672    1.2565 H         1 3OS400      0.0000 
     35 H           9.5341   40.5468   -6.6237 H         1 3OS400      0.0000 
     36 H           6.2762   40.2433   -4.6371 H         1 3OS400      0.0000 
     37 H           4.2280   41.3381   -5.3581 H         1 3OS400      0.0000 
     38 H           6.2729   43.0430   -8.6179 H         1 3OS400      0.0000 
     39 H          10.7455   36.2427   -1.6171 H         1 3OS400      0.0000 
     40 H          10.7231   38.6154    2.1388 H         1 3OS400      0.0000 
     41 H          11.9619   39.8597    2.3778 H         1 3OS400      0.0000 
     42 H          12.0536   41.4668   -2.5590 H         1 3OS400      0.0000 
     43 H          14.2377   40.9761   -3.5136 H         1 3OS400      0.0000 
     44 H          15.0978   42.5212   -3.6270 H         1 3OS400      0.0000 
     45 H          13.7201   41.7175   -6.0827 H         1 3OS400      0.0000 
     46 H          14.9851   40.5951   -5.5536 H         1 3OS400      0.0000 
     47 H          13.2842   37.8927    3.1319 H         1 3OS400      0.0000 
     48 H          15.1215   43.3998   -6.0609 H         1 3OS400      0.0000 
@<TRIPOS>BOND
     1    2    1 ar   
     2    9    1 ar   
     3   25    1 1    
     4    3    2 ar   
     5   32    2 1    
     6    4    3 ar   
     7   20    3 1    
     8   12    4 1    
     9   13    4 ar   
    10   16    5 ar   
    11   17    5 1    
    12   18    5 ar   
    13   17    6 3    
    14   11    7 ar   
    15   18    7 ar   
    16   19    7 1    
    17   22    8 1    
    18   23    8 1    
    19   33    8 1    
    20   34    8 1    
    21   10    9 1    
    22   13    9 ar   
    23   11   10 1    
    24   35   10 1    
    25   15   11 ar   
    26   14   13 1    
    27   16   15 ar   
    28   36   15 1    
    29   37   16 1    
    30   38   18 1    
    31   21   20 2    
    32   39   20 1    
    33   22   21 1    
    34   24   23 1    
    35   40   23 1    
    36   41   23 1    
    37   47   24 1    
    38   26   25 2    
    39   27   25 am   
    40   28   27 1    
    41   42   27 1    
    42   29   28 1    
    43   30   29 1    
    44   43   29 1    
    45   44   29 1    
    46   31   30 1    
    47   45   30 1    
    48   46   30 1    
    49   48   31 1    
@<TRIPOS>SUBSTRUCTURE
     1 3OS400      1 GROUP   
@<TRIPOS>SET

