#    Name: 1yw7_A41_1_INTS_M
#    Modification time : Mon Apr  7 15:55:57 2014

@<TRIPOS>MOLECULE
1yw7_A41_1_INTS_M
   41     0     9     0     0
SMALL
NO_CHARGES


@<TRIPOS>ATOM
      1 CA         19.6035   30.3355   20.5195 C.3       3 GLC5        0.0000 
      2 CA         17.9200   29.2550   21.4410 C.3       9 GLL5        0.0000 
      3 CA         21.2870   31.4160   19.5980 C.3       6 GLP5        0.0000 
      4 CA         18.2730   30.4425   22.8160 C.3       3 GLC5        0.0000 
      5 CA         18.6260   31.6300   24.1910 C.3       6 GLP5        0.0000 
      6 Zn         18.4455   27.2745   16.8305 Zn        2 ZIC7        0.0000 
      7 Zn         15.4180   29.1300   17.3190 Zn        8 ZIL7        0.0000 
      8 Zn         21.4730   25.4190   16.3420 Zn        5 ZIP7        0.0000 
      9 Zn         16.7655   27.2395   16.9310 Zn        2 ZIC7        0.0000 
     10 Zn         18.1130   25.3490   16.5430 Zn        5 ZIP7        0.0000 
     11 CA         19.8265   31.3260   17.9605 C.3       3 GLC5        0.0000 
     12 CA         18.3660   31.2360   16.3230 C.3       9 GLL5        0.0000 
     13 N          19.6645   30.0380   18.4505 N.am      1 SEC2        0.0000 
     14 N          19.3470   28.8430   17.6950 N.am      7 SEL2        0.0000 
     15 N          19.9820   31.2330   19.2060 N.am      4 SEP2        0.0000 
     16 Zn         17.9795   26.5155   16.5450 Zn        2 ZIC7        0.0000 
     17 Zn         17.8460   27.6820   16.5470 Zn        8 ZIL7        0.0000 
     18 CA         19.5260   34.2130   14.0470 C.3       3 GLC5        0.0000 
     19 CA         18.5480   33.6740   15.6400 C.3       9 GLL5        0.0000 
     20 CA         20.5040   34.7520   12.4540 C.3       6 GLP5        0.0000 
     21 CA         18.2555   35.0120   16.9955 C.3       3 GLC5        0.0000 
     22 CA         17.9630   36.3500   18.3510 C.3       6 GLP5        0.0000 
     23 CA         20.1565   28.7037   22.0472 C.3       3 GLC5        0.0000 
     24 CA         22.1540   28.8190   22.6150 C.3       6 GLP5        0.0000 
     25 CA         15.6457   26.7820   18.2782 C.3       3 GLC5        0.0000 
     26 CA         16.6570   27.2050   19.9400 C.3       9 GLL5        0.0000 
     27 CA         14.8720   25.6920   16.6540 C.3       6 GLP5        0.0000 
     28 CA         17.6718   27.9374   23.0496 C.3       3 GLC5        0.0000 
     29 CA         17.7640   26.8990   20.7670 C.3       9 GLL5        0.0000 
     30 CA         17.3820   28.1310   24.9760 C.3       6 GLP5        0.0000 
     31 CA         14.0875   30.4108   15.8083 C.3       3 GLC5        0.0000 
     32 CA         16.1920   30.2060   16.9140 C.3       9 GLL5        0.0000 
     33 CA         12.2920   29.9870   14.8290 C.3       6 GLP5        0.0000 
     34 CA         16.4036   31.7282   14.5121 C.3       3 GLC5        0.0000 
     35 CA         17.7380   32.4800   16.0770 C.3       9 GLL5        0.0000 
     36 CA         15.9610   31.2050   12.7580 C.3       6 GLP5        0.0000 
     37 CA         17.3445   29.8191   14.7533 C.3       3 GLC5        0.0000 
     38 CA         17.0520   28.9460   12.9320 C.3       6 GLP5        0.0000 
     39 CA         16.5966   33.9554   14.6174 C.3       3 GLC5        0.0000 
     40 CA         16.3350   32.5830   16.2500 C.3       9 GLL5        0.0000 
     41 CA         15.4010   34.8080   13.3330 C.3       6 GLP5        0.0000 
@<TRIPOS>BOND
@<TRIPOS>SUBSTRUCTURE
     1 SEC2       13 GROUP        1 X    SEC  0     ROOT SEC X 2
     2 ZIC7        6 GROUP        1 X    ZIC  0     **** ZIC X 5
     3 GLC5        1 GROUP        1 X    GLC  0     **** GLC X 6
     4 SEP2       15 GROUP        1 Y    SEP  0     ROOT SEP Y 9
     5 ZIP7        8 GROUP        1 Y    ZIP  0     **** ZIP Y 12
     6 GLP5        3 GROUP        1 Y    GLP  0     **** GLP Y 13
     7 SEL2       14 GROUP        1 Z    SEL  0     ROOT SEL Z 16
     8 ZIL7        7 GROUP        1 Z    ZIL  0     **** ZIL Z 19
     9 GLL5        2 GROUP        1 Z    GLL  0     **** GLL Z 20
@<TRIPOS>SET

