#    Name: 1yw7_A41_1_ligand
#    Modification time : Mon Apr  7 15:55:57 2014

@<TRIPOS>MOLECULE
1yw7_A41_1_ligand
   32    33     1     0     0
SMALL
NO_CHARGES


@<TRIPOS>ATOM
      1 C1         18.3980   27.9220   21.5180 C.ar      1 A41482      0.0000 
      2 C2         17.9200   29.2550   21.4410 C.ar      1 A41482      0.0000 
      3 C3         16.8110   29.5640   20.6140 C.ar      1 A41482      0.0000 
      4 C4         16.1820   28.5390   19.8650 C.ar      1 A41482      0.0000 
      5 C5         16.6570   27.2050   19.9400 C.ar      1 A41482      0.0000 
      6 C6         17.7640   26.8990   20.7670 C.ar      1 A41482      0.0000 
      7 S7         14.7920   28.9280   18.8220 S.o2      1 A41482      0.0000 
      8 N8         15.4180   29.1300   17.3190 N.pl3     1 A41482      0.0000 
      9 O9         14.2360   30.1930   19.2310 O.2       1 A41482      0.0000 
     10 O10        13.9270   27.7770   18.7920 O.2       1 A41482      0.0000 
     11 C11        16.1920   30.2060   16.9140 C.ar      1 A41482      0.0000 
     12 C12        15.5740   31.4630   16.6610 C.ar      1 A41482      0.0000 
     13 C13        16.3350   32.5830   16.2500 C.ar      1 A41482      0.0000 
     14 C14        17.7380   32.4800   16.0770 C.ar      1 A41482      0.0000 
     15 C15        18.3660   31.2360   16.3230 C.ar      1 A41482      0.0000 
     16 C16        17.6240   30.0910   16.7380 C.ar      1 A41482      0.0000 
     17 C17        18.3960   28.8410   16.9660 C.2       1 A41482      0.0000 
     18 O18        19.3470   28.8430   17.6950 O.co2     1 A41482      0.0000 
     19 O19        17.8460   27.6820   16.5470 O.co2     1 A41482      0.0000 
     20 C20        18.5480   33.6740   15.6400 C.3       1 A41482      0.0000 
     21 H          19.1950   27.6993   22.1113 H         1 A41482      0.0000 
     22 H          18.3742   29.9909   21.9806 H         1 A41482      0.0000 
     23 H          16.4672   30.5211   20.5585 H         1 A41482      0.0000 
     24 H          16.2027   26.4711   19.4006 H         1 A41482      0.0000 
     25 H          18.1084   25.9397   20.8243 H         1 A41482      0.0000 
     26 H          15.1610   28.3441   16.6995 H         1 A41482      0.0000 
     27 H          14.5582   31.5551   16.7798 H         1 A41482      0.0000 
     28 H          15.8679   33.4781   16.0754 H         1 A41482      0.0000 
     29 H          19.3856   31.1504   16.2004 H         1 A41482      0.0000 
     30 H          19.5207   33.4550   15.5634 H         1 A41482      0.0000 
     31 H          18.2535   34.0162   14.7477 H         1 A41482      0.0000 
     32 H          18.4685   34.4333   16.2859 H         1 A41482      0.0000 
@<TRIPOS>BOND
     1    2    1 ar   
     2    6    1 ar   
     3   21    1 1    
     4    3    2 ar   
     5   22    2 1    
     6    4    3 ar   
     7   23    3 1    
     8    5    4 ar   
     9    7    4 1    
    10    6    5 ar   
    11   24    5 1    
    12   25    6 1    
    13    8    7 1    
    14    9    7 2    
    15   10    7 2    
    16   11    8 1    
    17   26    8 1    
    18   12   11 ar   
    19   16   11 ar   
    20   13   12 ar   
    21   27   12 1    
    22   14   13 ar   
    23   28   13 1    
    24   15   14 ar   
    25   20   14 1    
    26   16   15 ar   
    27   29   15 1    
    28   17   16 1    
    29   18   17 ar   
    30   19   17 ar   
    31   30   20 1    
    32   31   20 1    
    33   32   20 1    
@<TRIPOS>SUBSTRUCTURE
     1 A41482      1 GROUP   
@<TRIPOS>SET

