#    Name: 3ZU0_1_CAVITY_N1_6.mol2
#    Modification time : Tue Mar 11 15:38:30 2014

@<TRIPOS>MOLECULE
3ZU0_1_CAVITY_N1_6.mol2
  140     0     7     0     0
SMALL
NO_CHARGES


@<TRIPOS>ATOM
      1 CA          1.5849   70.6251   12.8208 C.3       6 GLY6        0.0000 
      2 OG         -0.2552   69.6147   13.1261 O.2       1 SER1        0.0000 
      3 NZ          5.7323   74.8895   15.0821 N.2       4 LYS4        0.0000 
      4 N           3.8923   73.8791   15.3874 N.2       2 ALA2        0.0000 
      5 O           4.7184   74.2391   14.1883 O.2       2 ALA2        0.0000 
      6 O           5.5444   74.5992   12.9892 O.2       2 ALA2        0.0000 
      7 O           5.2726   81.1811   11.0256 O.2       2 ALA2        0.0000 
      8 CA          6.0987   81.5412    9.8265 C.3       6 GLY6        0.0000 
      9 N           6.9248   81.9013    8.6274 N.2       2 ALA2        0.0000 
     10 OG          7.7508   82.2613    7.4282 O.2       1 SER1        0.0000 
     11 O           3.4326   80.1706   11.3310 O.2       2 ALA2        0.0000 
     12 OG          4.2586   80.5307   10.1318 O.2       1 SER1        0.0000 
     13 OG          5.0847   80.8908    8.9327 O.2       1 SER1        0.0000 
     14 OG          5.9108   81.2509    7.7336 O.2       1 SER1        0.0000 
     15 OG          6.7369   81.6110    6.5344 O.2       1 SER1        0.0000 
     16 N           1.5925   79.1602   11.6363 N.2       2 ALA2        0.0000 
     17 N           2.4186   79.5203   10.4372 N.2       2 ALA2        0.0000 
     18 OG          3.2447   79.8803    9.2380 O.2       1 SER1        0.0000 
     19 N          -0.2475   78.1497   11.9416 N.2       2 ALA2        0.0000 
     20 N           0.5786   78.5098   10.7425 N.2       2 ALA2        0.0000 
     21 O           1.4046   78.8699    9.5433 O.2       2 ALA2        0.0000 
     22 OG          2.2307   79.2300    8.3442 O.2       1 SER1        0.0000 
     23 OD1        -1.2615   77.4993   11.0478 O.3       3 ASP3        0.0000 
     24 DU         -0.4354   77.8594    9.8487 H         7 CUB7        0.0000 
     25 DU          0.3907   78.2195    8.6495 H         7 CUB7        0.0000 
     26 OD1        -2.2754   76.8490   10.1540 O.3       3 ASP3        0.0000 
     27 DU         -1.4494   77.2091    8.9549 H         7 CUB7        0.0000 
     28 N          -1.1699   79.1623    9.7339 N.2       2 ALA2        0.0000 
     29 N          -2.1839   78.5119    8.8401 N.2       2 ALA2        0.0000 
     30 CZ          6.4668   73.5867   15.1969 C.ar      5 PHE5        0.0000 
     31 CZ          7.2929   73.9468   13.9977 C.ar      5 PHE5        0.0000 
     32 N           5.4528   72.9363   14.3031 N.2       2 ALA2        0.0000 
     33 O           6.2789   73.2964   13.1039 O.2       2 ALA2        0.0000 
     34 N           3.6128   71.9259   14.6084 N.2       2 ALA2        0.0000 
     35 N           4.4389   72.2860   13.4093 N.2       2 ALA2        0.0000 
     36 DU          5.2650   72.6460   12.2101 H         7 CUB7        0.0000 
     37 O           6.0910   73.0061   11.0110 O.2       2 ALA2        0.0000 
     38 OG          3.4249   71.6356   12.5154 O.2       1 SER1        0.0000 
     39 OG          4.2510   71.9957   11.3163 O.2       1 SER1        0.0000 
     40 O           5.0771   72.3558   10.1172 O.2       2 ALA2        0.0000 
     41 OG          6.1873   71.6335   14.4178 O.2       1 SER1        0.0000 
     42 N           7.0134   71.9936   13.2187 N.2       2 ALA2        0.0000 
     43 OG          5.1734   70.9831   13.5240 O.2       1 SER1        0.0000 
     44 NZ          5.9995   71.3432   12.3249 N.2       4 LYS4        0.0000 
     45 NZ          4.1594   70.3328   12.6302 N.2       4 LYS4        0.0000 
     46 OG          4.9855   70.6928   11.4311 O.2       1 SER1        0.0000 
     47 CA          2.0522   72.8686   15.6928 C.3       6 GLY6        0.0000 
     48 N           2.8783   73.2287   14.4936 N.2       2 ALA2        0.0000 
     49 DU          3.7044   73.5888   13.2945 H         7 CUB7        0.0000 
     50 DU          4.5305   73.9489   12.0954 H         7 CUB7        0.0000 
     51 O           5.3566   74.3089   10.8962 O.2       2 ALA2        0.0000 
     52 CA          1.8644   72.5783   13.5998 C.3       6 GLY6        0.0000 
     53 OG          2.6904   72.9384   12.4007 O.2       1 SER1        0.0000 
     54 OG          3.5165   73.2985   11.2015 O.2       1 SER1        0.0000 
     55 O           4.3426   73.6586   10.0024 O.2       2 ALA2        0.0000 
     56 CA          0.0243   71.5679   13.9051 C.3       6 GLY6        0.0000 
     57 CA          0.8504   71.9279   12.7060 C.3       6 GLY6        0.0000 
     58 OG          1.6765   72.2880   11.5069 O.2       1 SER1        0.0000 
     59 CA         -0.9896   70.9175   13.0113 C.3       6 GLY6        0.0000 
     60 CA         -0.1636   71.2776   11.8122 C.3       6 GLY6        0.0000 
     61 CA         -1.1775   70.6272   10.9184 C.3       6 GLY6        0.0000 
     62 CA         -0.3515   70.9873    9.7192 C.3       6 GLY6        0.0000 
     63 CZ          8.6779   78.2133   14.3567 C.ar      5 PHE5        0.0000 
     64 CA          9.5040   78.5733   13.1576 C.3       6 GLY6        0.0000 
     65 O          10.3301   78.9334   11.9584 O.2       2 ALA2        0.0000 
     66 CZ          7.6640   77.5629   13.4629 C.ar      5 PHE5        0.0000 
     67 OD1         8.4900   77.9230   12.2638 O.3       3 ASP3        0.0000 
     68 O           5.8239   76.5524   13.7682 O.2       2 ALA2        0.0000 
     69 O           6.6500   76.9125   12.5691 O.2       2 ALA2        0.0000 
     70 N           9.9543   78.3529    7.7725 N.2       2 ALA2        0.0000 
     71 O           5.6360   76.2621   11.6753 O.2       2 ALA2        0.0000 
     72 N           8.9403   77.7025    6.8787 N.2       2 ALA2        0.0000 
     73 O           1.3177   74.1714   15.5780 O.2       2 ALA2        0.0000 
     74 N           2.1438   74.5315   14.3789 N.2       2 ALA2        0.0000 
     75 N           3.7960   75.2517   11.9806 N.2       2 ALA2        0.0000 
     76 O           4.6221   75.6118   10.7815 O.2       2 ALA2        0.0000 
     77 O           0.3038   73.5211   14.6842 O.2       2 ALA2        0.0000 
     78 O           1.1299   73.8811   13.4850 O.2       2 ALA2        0.0000 
     79 N           1.9559   74.2412   12.2859 N.2       2 ALA2        0.0000 
     80 DU          2.7820   74.6013   11.0868 H         7 CUB7        0.0000 
     81 O           3.6081   74.9614    9.8876 O.2       2 ALA2        0.0000 
     82 O           4.4342   75.3215    8.6885 O.2       2 ALA2        0.0000 
     83 CA         -0.7102   72.8707   13.7904 C.3       6 GLY6        0.0000 
     84 CA          0.1159   73.2308   12.5912 C.3       6 GLY6        0.0000 
     85 DU          0.9420   73.5909   11.3921 H         7 CUB7        0.0000 
     86 OG          1.7681   73.9509   10.1930 O.2       1 SER1        0.0000 
     87 O           2.5941   74.3110    8.9938 O.2       2 ALA2        0.0000 
     88 CA         -0.8981   72.5804   11.6974 C.3       6 GLY6        0.0000 
     89 CA         -0.0720   72.9405   10.4983 C.3       6 GLY6        0.0000 
     90 OG          0.7541   73.3006    9.2992 O.2       1 SER1        0.0000 
     91 CA         -1.9120   71.9300   10.8036 C.3       6 GLY6        0.0000 
     92 CA          7.9434   79.5161   14.2419 C.3       6 GLY6        0.0000 
     93 O           8.7695   79.8762   13.0428 O.2       2 ALA2        0.0000 
     94 CA          9.5956   80.2363   11.8437 C.3       6 GLY6        0.0000 
     95 O           6.1034   78.5056   14.5473 O.2       2 ALA2        0.0000 
     96 OG          6.9295   78.8657   13.3481 O.2       1 SER1        0.0000 
     97 O           7.7555   79.2258   12.1490 O.2       2 ALA2        0.0000 
     98 O           8.5816   79.5859   10.9499 O.2       2 ALA2        0.0000 
     99 O           9.4077   79.9460    9.7507 O.2       2 ALA2        0.0000 
    100 O           5.9155   78.2153   12.4543 O.2       2 ALA2        0.0000 
    101 O           8.3937   79.2956    8.8569 O.2       2 ALA2        0.0000 
    102 N           9.2198   79.6557    7.6578 N.2       2 ALA2        0.0000 
    103 O           4.9015   77.5650   11.5605 O.2       2 ALA2        0.0000 
    104 O           8.2059   79.0053    6.7640 O.2       2 ALA2        0.0000 
    105 O           3.8876   76.9146   10.6667 O.2       2 ALA2        0.0000 
    106 O           4.7137   77.2747    9.4676 O.2       2 ALA2        0.0000 
    107 OG          6.3658   77.9949    7.0693 O.2       1 SER1        0.0000 
    108 OG          7.1919   78.3549    5.8701 O.2       1 SER1        0.0000 
    109 O           0.3954   75.1840   13.3703 O.2       2 ALA2        0.0000 
    110 N           1.2215   75.5441   12.1711 N.2       2 ALA2        0.0000 
    111 N           2.0475   75.9041   10.9720 N.2       2 ALA2        0.0000 
    112 DU          2.8736   76.2642    9.7729 H         7 CUB7        0.0000 
    113 O           3.6997   76.6243    8.5737 O.2       2 ALA2        0.0000 
    114 CA          0.2075   74.8937   11.2773 C.3       6 GLY6        0.0000 
    115 DU          1.0336   75.2538   10.0782 H         7 CUB7        0.0000 
    116 DU          1.8597   75.6139    8.8791 H         7 CUB7        0.0000 
    117 OD1        -0.8065   74.2433   10.3835 O.3       3 ASP3        0.0000 
    118 DU          0.0196   74.6034    9.1844 H         7 CUB7        0.0000 
    119 OG          6.1950   80.1685   13.2334 O.2       1 SER1        0.0000 
    120 O           5.1810   79.5182   12.3395 O.2       2 ALA2        0.0000 
    121 O           6.0071   79.8783   11.1404 O.2       2 ALA2        0.0000 
    122 O           6.8332   80.2383    9.9413 O.2       2 ALA2        0.0000 
    123 O           7.6593   80.5984    8.7421 O.2       2 ALA2        0.0000 
    124 N           8.4853   80.9585    7.5430 N.2       2 ALA2        0.0000 
    125 N           4.1671   78.8678   11.4457 N.2       2 ALA2        0.0000 
    126 O           4.9931   79.2279   10.2466 O.2       2 ALA2        0.0000 
    127 O           5.8192   79.5880    9.0475 O.2       2 ALA2        0.0000 
    128 O           6.6453   79.9481    7.8483 O.2       2 ALA2        0.0000 
    129 DU          7.4714   80.3081    6.6492 H         7 CUB7        0.0000 
    130 N           3.1531   78.2174   10.5519 N.2       2 ALA2        0.0000 
    131 O           3.9792   78.5775    9.3528 O.2       2 ALA2        0.0000 
    132 O           4.8053   78.9376    8.1537 O.2       2 ALA2        0.0000 
    133 N           0.4870   76.8469   12.0564 N.2       2 ALA2        0.0000 
    134 N           1.3130   77.2070   10.8572 N.2       2 ALA2        0.0000 
    135 DU          2.1391   77.5671    9.6581 H         7 CUB7        0.0000 
    136 DU          2.9652   77.9271    8.4590 H         7 CUB7        0.0000 
    137 OD1        -0.5270   76.1965   11.1626 O.3       3 ASP3        0.0000 
    138 DU          0.2991   76.5566    9.9634 H         7 CUB7        0.0000 
    139 OD1        -1.5410   75.5461   10.2688 O.3       3 ASP3        0.0000 
    140 OD1        -0.7149   75.9062    9.0696 O.3       3 ASP3        0.0000 
@<TRIPOS>BOND
@<TRIPOS>SUBSTRUCTURE
     1 SER1        2 GROUP   
     2 ALA2        4 GROUP   
     3 ASP3       23 GROUP   
     4 LYS4        3 GROUP   
     5 PHE5       30 GROUP   
     6 GLY6        1 GROUP   
     7 CUB7       24 GROUP   
@<TRIPOS>SET

