#    Name: 3zu0_A12_1_INTS_M
#    Modification time : Tue Mar 25 04:00:15 2014

@<TRIPOS>MOLECULE
3zu0_A12_1_INTS_M
   65     0    12     0     0
SMALL
NO_CHARGES


@<TRIPOS>ATOM
      1 N           5.7900   77.5815    9.4430 N.am      2 SEC2        0.0000 
      2 N           4.2290   78.0520    8.9760 N.am     10 SEL2        0.0000 
      3 N           7.3510   77.1110    9.9100 N.am      6 SEP2        0.0000 
      4 NZ          6.0780   77.4035   10.6330 N.4       3 LYC4        0.0000 
      5 NZ          4.8050   77.6960   11.3560 N.4      11 LYL4        0.0000 
      6 NZ          8.3320   76.2550   10.1510 N.4       7 LYP4        0.0000 
      7 N           6.0780   77.4035   10.6330 N.am      2 SEC2        0.0000 
      8 N           4.8050   77.6960   11.3560 N.am     10 SEL2        0.0000 
      9 NZ          5.8625   74.4520    9.0025 N.4       3 LYC4        0.0000 
     10 NZ          5.1850   75.3230    9.9350 N.4      11 LYL4        0.0000 
     11 NZ          6.0420   72.6400    7.2660 N.4       7 LYP4        0.0000 
     12 NZ          6.2680   76.2170    9.9225 N.4       3 LYC4        0.0000 
     13 N           5.8625   74.4520    9.0025 N.am      2 SEC2        0.0000 
     14 N           5.1850   75.3230    9.9350 N.am     10 SEL2        0.0000 
     15 N           6.5400   73.5810    8.0700 N.am      6 SEP2        0.0000 
     16 N           6.6140   75.1565   10.2010 N.am      2 SEC2        0.0000 
     17 N           8.0430   74.9900   10.4670 N.am      6 SEP2        0.0000 
     18 N           6.2680   76.2170    9.9225 N.am      2 SEC2        0.0000 
     19 NZ          4.0160   72.9140    8.4630 N.4       3 LYC4        0.0000 
     20 NZ          3.2430   73.5890    9.5180 N.4      11 LYL4        0.0000 
     21 N           4.0160   72.9140    8.4630 N.am      2 SEC2        0.0000 
     22 N           3.2430   73.5890    9.5180 N.am     10 SEL2        0.0000 
     23 N           4.7890   72.2390    7.4080 N.am      6 SEP2        0.0000 
     24 CA          3.4180   70.6755   14.3075 C.3       4 GLC5        0.0000 
     25 CA          4.8860   71.2780   12.9690 C.3      12 GLL5        0.0000 
     26 CA          1.9500   70.0730   15.6460 C.3       8 GLP5        0.0000 
     27 N           3.3700   70.2700   11.1315 N.am      2 SEC2        0.0000 
     28 N           4.0680   70.3460   12.3920 N.am     10 SEL2        0.0000 
     29 N           2.6720   70.1940    9.8710 N.am      6 SEP2        0.0000 
     30 O           4.0590   69.1440   12.8830 O.2       1 ALC1        0.0000 
     31 O           4.0680   70.3460   12.3920 O.2       9 ALL1        0.0000 
     32 O           4.0500   67.9420   13.3740 O.2       5 ALP1        0.0000 
     33 O           5.0865   69.0195   12.5310 O.2       1 ALC1        0.0000 
     34 O           6.1050   67.6930   12.6700 O.2       5 ALP1        0.0000 
     35 CA          6.9715   69.6890   14.5500 C.3       4 GLC5        0.0000 
     36 CA          6.2960   70.8050   13.0550 C.3      12 GLL5        0.0000 
     37 CA          7.6470   68.5730   16.0450 C.3       8 GLP5        0.0000 
     38 N           8.0550   69.2440   12.2590 N.am      2 SEC2        0.0000 
     39 N           6.6610   70.1050   11.9370 N.am     10 SEL2        0.0000 
     40 N           9.4490   68.3830   12.5810 N.am      6 SEP2        0.0000 
     41 O           6.3830   68.8990   12.3035 O.2       1 ALC1        0.0000 
     42 O           6.6610   70.1050   11.9370 O.2       9 ALL1        0.0000 
     43 CA          8.2600   73.6305   13.6870 C.3       4 GLC5        0.0000 
     44 CA          7.0640   72.0750   13.1620 C.3      12 GLL5        0.0000 
     45 CA          9.4560   75.1860   14.2120 C.3       8 GLP5        0.0000 
     46 CA         10.2020   70.0965   17.8140 C.3       4 GLC5        0.0000 
     47 CA          9.9730   71.7200   17.0140 C.3      12 GLL5        0.0000 
     48 CA         10.4310   68.4730   18.6140 C.3       8 GLP5        0.0000 
     49 O          11.4945   71.5815   18.9950 O.2       1 ALC1        0.0000 
     50 O          10.1720   72.0350   18.3640 O.2       9 ALL1        0.0000 
     51 O          12.8170   71.1280   19.6260 O.2       5 ALP1        0.0000 
     52 N          12.2035   70.9015   16.9350 N.am      2 SEC2        0.0000 
     53 N          10.8970   71.0170   16.3800 N.am     10 SEL2        0.0000 
     54 N          13.5100   70.7860   17.4900 N.am      6 SEP2        0.0000 
     55 CA         11.3710   70.9370   13.3515 C.3       4 GLC5        0.0000 
     56 CA         10.7590   70.6660   15.1100 C.3      12 GLL5        0.0000 
     57 CA         11.9830   71.2080   11.5930 C.3       8 GLP5        0.0000 
     58 CA         10.5950   69.5695   16.8620 C.3       4 GLC5        0.0000 
     59 N           9.5685   69.6995   13.4815 N.am      2 SEC2        0.0000 
     60 N           9.6880   71.0160   14.3820 N.am     10 SEL2        0.0000 
     61 CA          7.7755   71.2020   11.2767 C.3       4 GLC5        0.0000 
     62 CA          8.8710   70.9640    9.4450 C.3       8 GLP5        0.0000 
     63 CA         10.9055   73.2002   16.9380 C.3       4 GLC5        0.0000 
     64 CA          8.8190   72.1170   16.2840 C.3      12 GLL5        0.0000 
     65 CA         12.4150   74.4820   17.2270 C.3       8 GLP5        0.0000 
@<TRIPOS>BOND
@<TRIPOS>SUBSTRUCTURE
     1 ALC1       30 GROUP        1 X    ALC  0     ROOT ALC X 1
     2 SEC2        1 GROUP        1 X    SEC  0     **** SEC X 2
     3 LYC4        4 GROUP        1 X    LYC  0     **** LYC X 4
     4 GLC5       24 GROUP        1 X    GLC  0     **** GLC X 6
     5 ALP1       32 GROUP        1 Y    ALP  0     ROOT ALP Y 8
     6 SEP2        3 GROUP        1 Y    SEP  0     **** SEP Y 9
     7 LYP4        6 GROUP        1 Y    LYP  0     **** LYP Y 11
     8 GLP5       26 GROUP        1 Y    GLP  0     **** GLP Y 13
     9 ALL1       31 GROUP        1 Z    ALL  0     ROOT ALL Z 15
    10 SEL2        2 GROUP        1 Z    SEL  0     **** SEL Z 16
    11 LYL4        5 GROUP        1 Z    LYL  0     **** LYL Z 18
    12 GLL5       25 GROUP        1 Z    GLL  0     **** GLL Z 20
@<TRIPOS>SET

