#    Name: 3zu0_A12_1_ligand
#    Modification time : Tue Mar 25 04:00:15 2014

@<TRIPOS>MOLECULE
3zu0_A12_1_ligand
   41    43     1     0     0
SMALL
NO_CHARGES


@<TRIPOS>ATOM
      1 PB          3.6320   77.7560   10.4020 P.3       1 A121598     0.0000 
      2 O1B         4.2290   78.0520    8.9760 O.co2     1 A121598     0.0000 
      3 O2B         4.8050   77.6960   11.3560 O.co2     1 A121598     0.0000 
      4 O3B         2.7080   78.8330   10.8200 O.co2     1 A121598     0.0000 
      5 PA          3.7790   74.8100   10.3130 P.3       1 A121598     0.0000 
      6 O1A         5.1850   75.3230    9.9350 O.co2     1 A121598     0.0000 
      7 O2A         3.2430   73.5890    9.5180 O.co2     1 A121598     0.0000 
      8 C3A         2.8550   76.2370   10.4140 C.3       1 A121598     0.0000 
      9 O5'         3.9080   74.6780   11.9320 O.3       1 A121598     0.0000 
     10 C5'         3.8860   73.4140   12.5000 C.3       1 A121598     0.0000 
     11 C4'         4.9930   72.5350   12.2190 C.3       1 A121598     0.0000 
     12 O4'         6.1770   73.1230   12.8280 O.3       1 A121598     0.0000 
     13 C3'         4.8860   71.2780   12.9690 C.3       1 A121598     0.0000 
     14 O3'         4.0680   70.3460   12.3920 O.3       1 A121598     0.0000 
     15 C2'         6.2960   70.8050   13.0550 C.3       1 A121598     0.0000 
     16 O2'         6.6610   70.1050   11.9370 O.3       1 A121598     0.0000 
     17 C1'         7.0640   72.0750   13.1620 C.3       1 A121598     0.0000 
     18 N9          7.5390   72.2560   14.5070 N.pl3     1 A121598     0.0000 
     19 C8          6.9110   72.9350   15.4980 C.2       1 A121598     0.0000 
     20 N7          7.6790   72.8470   16.5790 N.2       1 A121598     0.0000 
     21 C5          8.8190   72.1170   16.2840 C.ar      1 A121598     0.0000 
     22 C6          9.9730   71.7200   17.0140 C.ar      1 A121598     0.0000 
     23 N6         10.1720   72.0350   18.3640 N.pl3     1 A121598     0.0000 
     24 N1         10.8970   71.0170   16.3800 N.ar      1 A121598     0.0000 
     25 C2         10.7590   70.6660   15.1100 C.ar      1 A121598     0.0000 
     26 N3          9.6880   71.0160   14.3820 N.ar      1 A121598     0.0000 
     27 C4          8.7190   71.7390   14.9600 C.ar      1 A121598     0.0000 
     28 H           2.1554   76.2284    9.5729 H         1 A121598     0.0000 
     29 H           2.2754   76.1810   11.3402 H         1 A121598     0.0000 
     30 H           2.9210   72.8700   12.2150 H         1 A121598     0.0000 
     31 H           3.7768   73.4936   13.6359 H         1 A121598     0.0000 
     32 H           5.1503   72.3600   11.2101 H         1 A121598     0.0000 
     33 H           4.5874   71.5337   13.9938 H         1 A121598     0.0000 
     34 H           6.4118   70.2698   13.9741 H         1 A121598     0.0000 
     35 H           7.8855   72.0357   12.4689 H         1 A121598     0.0000 
     36 H           6.0689   73.3893   15.4179 H         1 A121598     0.0000 
     37 H          11.0300   71.7179   18.7679 H         1 A121598     0.0000 
     38 H           9.4390   72.5501   18.8084 H         1 A121598     0.0000 
     39 H          11.5195   70.0868   14.6451 H         1 A121598     0.0000 
     40 H           4.2441   69.5001   12.8954 H         1 A121598     0.0000 
     41 H           6.0739   69.2954   11.9355 H         1 A121598     0.0000 
@<TRIPOS>BOND
     1    2    1 ar   
     2    3    1 ar   
     3    4    1 ar   
     4    8    1 1    
     5    6    5 ar   
     6    7    5 ar   
     7    8    5 1    
     8    9    5 1    
     9   28    8 1    
    10   29    8 1    
    11   10    9 1    
    12   11   10 1    
    13   30   10 1    
    14   31   10 1    
    15   12   11 1    
    16   13   11 1    
    17   32   11 1    
    18   17   12 1    
    19   14   13 1    
    20   15   13 1    
    21   33   13 1    
    22   40   14 1    
    23   16   15 1    
    24   17   15 1    
    25   34   15 1    
    26   41   16 1    
    27   18   17 1    
    28   35   17 1    
    29   19   18 1    
    30   27   18 1    
    31   20   19 2    
    32   36   19 1    
    33   21   20 1    
    34   22   21 ar   
    35   27   21 ar   
    36   23   22 1    
    37   24   22 ar   
    38   37   23 1    
    39   38   23 1    
    40   25   24 ar   
    41   26   25 ar   
    42   39   25 1    
    43   27   26 ar   
@<TRIPOS>SUBSTRUCTURE
     1 A121598     1 GROUP   
@<TRIPOS>SET

