#    Name: 3e85_BSU_2_INTS_M
#    Modification time : Tue Mar 25 01:05:38 2014

@<TRIPOS>MOLECULE
3e85_BSU_2_INTS_M
   26     0     3     0     0
SMALL
NO_CHARGES


@<TRIPOS>ATOM
      1 CA         22.9590    3.7510   66.9115 C.3       1 GLC5        0.0000 
      2 CA         21.6340    5.2410   66.2560 C.3       3 GLL5        0.0000 
      3 CA         24.2840    2.2610   67.5670 C.3       2 GLP5        0.0000 
      4 CA         22.9345    4.5720   63.3255 C.3       1 GLC5        0.0000 
      5 CA         21.4320    4.6910   64.9950 C.3       3 GLL5        0.0000 
      6 CA         24.4370    4.4530   61.6560 C.3       2 GLP5        0.0000 
      7 CA         18.2130    4.1740   68.4415 C.3       1 GLC5        0.0000 
      8 CA         19.3400    4.8730   66.7030 C.3       3 GLL5        0.0000 
      9 CA         17.0860    3.4750   70.1800 C.3       2 GLP5        0.0000 
     10 CA         22.4473    4.6635   72.0978 C.3       1 GLC5        0.0000 
     11 CA         20.1750    5.0040   71.9880 C.3       3 GLL5        0.0000 
     12 CA         24.5240    4.9700   72.0690 C.3       2 GLP5        0.0000 
     13 CA         18.7282    3.9160   71.1532 C.3       1 GLC5        0.0000 
     14 CA         20.5660    3.7100   72.2650 C.3       3 GLL5        0.0000 
     15 CA         17.7740    5.0073   72.2235 C.3       1 GLC5        0.0000 
     16 CA         19.3270    5.6670   72.8620 C.3       3 GLL5        0.0000 
     17 CA         16.4230    4.6420   70.9860 C.3       2 GLP5        0.0000 
     18 CA         19.0215    7.4588   73.5275 C.3       1 GLC5        0.0000 
     19 CA         18.9180    9.5450   73.5940 C.3       2 GLP5        0.0000 
     20 CA         19.7683    1.4562   72.3435 C.3       1 GLC5        0.0000 
     21 CA         19.1750   -0.5110   71.8220 C.3       2 GLP5        0.0000 
     22 CA         22.8163    6.2193   66.2380 C.3       1 GLC5        0.0000 
     23 CA         20.5680    5.3310   67.1380 C.3       3 GLL5        0.0000 
     24 CA         24.3660    7.4500   66.6300 C.3       2 GLP5        0.0000 
     25 CA         20.9622    3.6378   62.8670 C.3       1 GLC5        0.0000 
     26 CA         21.1060    2.8140   60.9470 C.3       2 GLP5        0.0000 
@<TRIPOS>BOND
@<TRIPOS>SUBSTRUCTURE
     1 GLC5        1 GROUP        1 X    GLC  0     ROOT GLC X 6
     2 GLP5        3 GROUP        1 Y    GLP  0     ROOT GLP Y 13
     3 GLL5        2 GROUP        1 Z    GLL  0     ROOT GLL Z 20
@<TRIPOS>SET

