#    Name: 3e85_BSU_2_ligand
#    Modification time : Tue Mar 25 01:05:38 2014

@<TRIPOS>MOLECULE
3e85_BSU_2_ligand
   28    29     1     0     0
SMALL
NO_CHARGES


@<TRIPOS>ATOM
      1 N7         20.4700    5.6690   70.7640 N.am      1 BSU159      0.0000 
      2 C8         20.4250    5.0830   69.5560 C.2       1 BSU159      0.0000 
      3 N9         20.6430    5.8700   68.4540 N.am      1 BSU159      0.0000 
      4 O11        20.2130    3.8710   69.4440 O.2       1 BSU159      0.0000 
      5 C5         20.1750    5.0040   71.9880 C.ar      1 BSU159      0.0000 
      6 C4         19.3270    5.6670   72.8620 C.ar      1 BSU159      0.0000 
      7 C3         18.9230    5.0780   74.0600 C.ar      1 BSU159      0.0000 
      8 C2         19.3450    3.8200   74.3580 C.ar      1 BSU159      0.0000 
      9 C1         20.1570    3.1370   73.4650 C.ar      1 BSU159      0.0000 
     10 C6         20.5660    3.7100   72.2650 C.ar      1 BSU159      0.0000 
     11 C10        20.5680    5.3310   67.1380 C.ar      1 BSU159      0.0000 
     12 C16        21.6340    5.2410   66.2560 C.ar      1 BSU159      0.0000 
     13 C15        21.4320    4.6910   64.9950 C.ar      1 BSU159      0.0000 
     14 C14        20.2050    4.2320   64.5790 C.ar      1 BSU159      0.0000 
     15 C13        19.1570    4.3210   65.4410 C.ar      1 BSU159      0.0000 
     16 C12        19.3400    4.8730   66.7030 C.ar      1 BSU159      0.0000 
     17 H          20.7391    6.6919   70.8457 H         1 BSU159      0.0000 
     18 H          20.8671    6.8743   68.5565 H         1 BSU159      0.0000 
     19 H          18.9858    6.6159   72.6244 H         1 BSU159      0.0000 
     20 H          18.3129    5.6020   74.6999 H         1 BSU159      0.0000 
     21 H          19.0687    3.3647   75.2423 H         1 BSU159      0.0000 
     22 H          20.4691    2.1719   73.6965 H         1 BSU159      0.0000 
     23 H          21.1407    3.1821   71.6096 H         1 BSU159      0.0000 
     24 H          22.5630    5.5763   66.5292 H         1 BSU159      0.0000 
     25 H          22.2497    4.6270   64.3426 H         1 BSU159      0.0000 
     26 H          20.0899    3.8341   63.6420 H         1 BSU159      0.0000 
     27 H          18.2189    3.9817   65.1700 H         1 BSU159      0.0000 
     28 H          18.5156    4.9425   67.3439 H         1 BSU159      0.0000 
@<TRIPOS>BOND
     1    2    1 am   
     2    5    1 1    
     3   17    1 1    
     4    3    2 am   
     5    4    2 2    
     6   11    3 1    
     7   18    3 1    
     8    6    5 ar   
     9   10    5 ar   
    10    7    6 ar   
    11   19    6 1    
    12    8    7 ar   
    13   20    7 1    
    14    9    8 ar   
    15   21    8 1    
    16   10    9 ar   
    17   22    9 1    
    18   23   10 1    
    19   12   11 ar   
    20   16   11 ar   
    21   13   12 ar   
    22   24   12 1    
    23   14   13 ar   
    24   25   13 1    
    25   15   14 ar   
    26   26   14 1    
    27   16   15 ar   
    28   27   15 1    
    29   28   16 1    
@<TRIPOS>SUBSTRUCTURE
     1 BSU159      1 GROUP   
@<TRIPOS>SET

