#    Name: 1wnb_NAD_2_INTS_M
#    Modification time : Tue Mar 25 09:09:53 2014

@<TRIPOS>MOLECULE
1wnb_NAD_2_INTS_M
   82     0     9     0     0
SMALL
NO_CHARGES


@<TRIPOS>ATOM
      1 N          60.9490   93.6395   63.2600 N.am      2 SEC2        0.0000 
      2 N          61.6960   94.7280   62.7430 N.am      8 SEL2        0.0000 
      3 N          60.2020   92.5510   63.7770 N.am      5 SEP2        0.0000 
      4 N          60.2760   94.8915   63.5465 N.am      2 SEC2        0.0000 
      5 N          58.8560   95.0550   64.3500 N.am      5 SEP2        0.0000 
      6 N          60.7540   95.4195   62.1940 N.am      2 SEC2        0.0000 
      7 N          59.8120   96.1110   61.6450 N.am      5 SEP2        0.0000 
      8 CA         65.7890   92.6260   61.8515 C.3       3 GLC5        0.0000 
      9 CA         64.2040   93.9430   61.4930 C.3       9 GLL5        0.0000 
     10 CA         67.3740   91.3090   62.2100 C.3       6 GLP5        0.0000 
     11 CA         63.0590   92.5635   62.0935 C.3       3 GLC5        0.0000 
     12 CA         61.9140   91.1840   62.6940 C.3       6 GLP5        0.0000 
     13 CA         67.8695   95.2625   59.9760 C.3       3 GLC5        0.0000 
     14 CA         65.8080   95.2810   59.9750 C.3       9 GLL5        0.0000 
     15 CA         69.9310   95.2440   59.9770 C.3       6 GLP5        0.0000 
     16 N          67.1430   95.8065   57.8005 N.am      2 SEC2        0.0000 
     17 N          66.7220   94.8360   58.9330 N.am      8 SEL2        0.0000 
     18 N          67.5640   96.7770   56.6680 N.am      5 SEP2        0.0000 
     19 O          67.1740   93.6005   59.2620 O.2       1 ALC1        0.0000 
     20 O          66.7220   94.8360   58.9330 O.2       7 ALL1        0.0000 
     21 O          67.6260   92.3650   59.5910 O.2       4 ALP1        0.0000 
     22 N          66.7855   97.1715   57.8095 N.am      2 SEC2        0.0000 
     23 N          66.0070   97.5660   58.9510 N.am      8 SEL2        0.0000 
     24 N          65.7725   98.8245   59.7460 N.am      2 SEC2        0.0000 
     25 N          65.5380  100.0830   60.5410 N.am      5 SEP2        0.0000 
     26 O          67.0110   98.3595   59.3645 O.2       1 ALC1        0.0000 
     27 O          66.0070   97.5660   58.9510 O.2       7 ALL1        0.0000 
     28 O          68.0150   99.1530   59.7780 O.2       4 ALP1        0.0000 
     29 CA         64.1625   94.6580   57.6650 C.3       3 GLC5        0.0000 
     30 CA         63.9830   96.0670   58.7620 C.3       9 GLL5        0.0000 
     31 CA         64.3420   93.2490   56.5680 C.3       6 GLP5        0.0000 
     32 CA         61.9355   95.5975   59.1225 C.3       3 GLC5        0.0000 
     33 CA         59.8880   95.1280   59.4830 C.3       6 GLP5        0.0000 
     34 O          59.2830   99.9380   54.8690 O.2       1 ALC1        0.0000 
     35 O          59.6990   99.6390   56.3470 O.2       7 ALL1        0.0000 
     36 O          58.8670  100.2370   53.3910 O.2       4 ALP1        0.0000 
     37 CA         62.9605   98.5795   55.8365 C.3       3 GLC5        0.0000 
     38 CA         61.7980   96.9750   54.9970 C.3       9 GLL5        0.0000 
     39 CA         64.1230  100.1840   56.6760 C.3       6 GLP5        0.0000 
     40 CA         62.8940   97.6535   53.8835 C.3       3 GLC5        0.0000 
     41 CA         63.9900   98.3320   52.7700 C.3       6 GLP5        0.0000 
     42 CA         61.4120   95.7970   53.2600 C.3       3 GLC5        0.0000 
     43 CA         61.0260   94.6190   51.5230 C.3       6 GLP5        0.0000 
     44 CA         60.5945   95.4940   55.2875 C.3       3 GLC5        0.0000 
     45 CA         59.3910   94.0130   55.5780 C.3       6 GLP5        0.0000 
     46 N          65.9015   96.4510   65.5550 N.am      2 SEC2        0.0000 
     47 N          64.9830   97.6500   64.7650 N.am      8 SEL2        0.0000 
     48 N          66.8200   95.2520   66.3450 N.am      5 SEP2        0.0000 
     49 N          65.2060   95.8570   66.4850 N.am      2 SEC2        0.0000 
     50 N          63.5920   96.4620   66.6250 N.am      8 SEL2        0.0000 
     51 CA         64.6845   94.8145   67.8580 C.3       3 GLC5        0.0000 
     52 CA         62.8240   95.3020   67.0450 C.3       9 GLL5        0.0000 
     53 CA         66.5450   94.3270   68.6710 C.3       6 GLP5        0.0000 
     54 CA         64.3880   94.4925   69.1250 C.3       3 GLC5        0.0000 
     55 CA         62.2310   94.6580   69.5790 C.3       9 GLL5        0.0000 
     56 CA         62.0185   96.4475   70.7895 C.3       3 GLC5        0.0000 
     57 CA         61.8060   98.2370   72.0000 C.3       6 GLP5        0.0000 
     58 CA         62.3625   92.2970   71.2650 C.3       3 GLC5        0.0000 
     59 CA         61.5780   93.3090   69.7730 C.3       9 GLL5        0.0000 
     60 CA         63.1470   91.2850   72.7570 C.3       6 GLP5        0.0000 
     61 CA         59.9985   93.5565   66.9080 C.3       3 GLC5        0.0000 
     62 CA         60.8170   93.0140   68.4790 C.3       9 GLL5        0.0000 
     63 CA         59.1800   94.0990   65.3370 C.3       6 GLP5        0.0000 
     64 CA         60.2410   91.7535   65.9775 C.3       3 GLC5        0.0000 
     65 CA         61.3790   90.7860   67.2280 C.3       9 GLL5        0.0000 
     66 CA         59.1030   92.7210   64.7270 C.3       6 GLP5        0.0000 
     67 CA         65.1105   90.5950   64.7540 C.3       3 GLC5        0.0000 
     68 CA         63.6710   90.7740   66.3740 C.3       9 GLL5        0.0000 
     69 CA         66.5500   90.4160   63.1340 C.3       6 GLP5        0.0000 
     70 CA         63.0122   92.9590   59.8060 C.3       3 GLC5        0.0000 
     71 CA         61.6040   91.8030   58.8310 C.3       6 GLP5        0.0000 
     72 CA         64.7823   94.0165   58.2950 C.3       3 GLC5        0.0000 
     73 CA         64.6370   94.2870   60.0690 C.3       9 GLL5        0.0000 
     74 CA         65.6002   96.4882   57.3588 C.3       3 GLC5        0.0000 
     75 CA         66.6360   96.6360   55.5230 C.3       6 GLP5        0.0000 
     76 CA         60.8623   96.4305   58.4207 C.3       3 GLC5        0.0000 
     77 CA         61.3630   98.2540   57.4240 C.3       9 GLL5        0.0000 
     78 CA         62.8854   99.0066   56.8754 C.3       3 GLC5        0.0000 
     79 CA         62.3100   97.2120   57.2930 C.3       9 GLL5        0.0000 
     80 CA         60.7428   94.6845   66.4850 C.3       3 GLC5        0.0000 
     81 CA         62.4873   90.8240   64.5757 C.3       3 GLC5        0.0000 
     82 CA         62.4500   90.1540   66.5410 C.3       9 GLL5        0.0000 
@<TRIPOS>BOND
@<TRIPOS>SUBSTRUCTURE
     1 ALC1       19 GROUP        1 X    ALC  0     ROOT ALC X 1
     2 SEC2        1 GROUP        1 X    SEC  0     **** SEC X 2
     3 GLC5        8 GROUP        1 X    GLC  0     **** GLC X 6
     4 ALP1       21 GROUP        1 Y    ALP  0     ROOT ALP Y 8
     5 SEP2        3 GROUP        1 Y    SEP  0     **** SEP Y 9
     6 GLP5       10 GROUP        1 Y    GLP  0     **** GLP Y 13
     7 ALL1       20 GROUP        1 Z    ALL  0     ROOT ALL Z 15
     8 SEL2        2 GROUP        1 Z    SEL  0     **** SEL Z 16
     9 GLL5        9 GROUP        1 Z    GLL  0     **** GLL Z 20
@<TRIPOS>SET

