#    Name: 1wnb_NAD_2_ligand
#    Modification time : Tue Mar 25 09:09:53 2014

@<TRIPOS>MOLECULE
1wnb_NAD_2_ligand
   70    74     1     0     0
SMALL
NO_CHARGES


@<TRIPOS>ATOM
      1 PA         63.0050   95.3380   63.3160 P.3       1 NAD1001     0.0000 
      2 O1A        63.2990   94.6100   64.6070 O.co2     1 NAD1001     0.0000 
      3 O2A        61.6960   94.7280   62.7430 O.co2     1 NAD1001     0.0000 
      4 O5B        64.3190   95.0750   62.3950 O.3       1 NAD1001     0.0000 
      5 C5B        64.2040   93.9430   61.4930 C.3       1 NAD1001     0.0000 
      6 C4B        64.6370   94.2870   60.0690 C.3       1 NAD1001     0.0000 
      7 O4B        63.5480   94.8770   59.4040 O.3       1 NAD1001     0.0000 
      8 C3B        65.8080   95.2810   59.9750 C.3       1 NAD1001     0.0000 
      9 O3B        66.7220   94.8360   58.9330 O.3       1 NAD1001     0.0000 
     10 C2B        65.1460   96.6140   59.6270 C.3       1 NAD1001     0.0000 
     11 O2B        66.0070   97.5660   58.9510 O.3       1 NAD1001     0.0000 
     12 C1B        63.9830   96.0670   58.7620 C.3       1 NAD1001     0.0000 
     13 N9A        62.9040   97.0510   58.5210 N.pl3     1 NAD1001     0.0000 
     14 C8A        62.3440   97.9620   59.4010 C.2       1 NAD1001     0.0000 
     15 N7A        61.4120   98.6940   58.7250 N.2       1 NAD1001     0.0000 
     16 C5A        61.3630   98.2540   57.4240 C.ar      1 NAD1001     0.0000 
     17 C6A        60.6080   98.6390   56.2890 C.ar      1 NAD1001     0.0000 
     18 N6A        59.6990   99.6390   56.3470 N.pl3     1 NAD1001     0.0000 
     19 N1A        60.8420   97.9760   55.0780 N.ar      1 NAD1001     0.0000 
     20 C2A        61.7980   96.9750   54.9970 C.ar      1 NAD1001     0.0000 
     21 N3A        62.5250   96.5690   56.1020 N.ar      1 NAD1001     0.0000 
     22 C4A        62.3100   97.2120   57.2930 C.ar      1 NAD1001     0.0000 
     23 O3         62.8130   96.8100   63.9260 O.3       1 NAD1001     0.0000 
     24 PN         63.5990   97.3830   65.2480 P.3       1 NAD1001     0.0000 
     25 O1N        64.9830   97.6500   64.7650 O.co2     1 NAD1001     0.0000 
     26 O2N        62.7510   98.5540   65.5390 O.co2     1 NAD1001     0.0000 
     27 O5D        63.5920   96.4620   66.6250 O.3       1 NAD1001     0.0000 
     28 C5D        62.8240   95.3020   67.0450 C.3       1 NAD1001     0.0000 
     29 C4D        61.7870   95.2380   68.2210 C.3       1 NAD1001     0.0000 
     30 O4D        60.7470   94.3160   67.8690 O.3       1 NAD1001     0.0000 
     31 C3D        62.2310   94.6580   69.5790 C.3       1 NAD1001     0.0000 
     32 O3D        61.7280   95.3540   70.6910 O.3       1 NAD1001     0.0000 
     33 C2D        61.5780   93.3090   69.7730 C.3       1 NAD1001     0.0000 
     34 O2D        60.7160   93.4140   70.9030 O.3       1 NAD1001     0.0000 
     35 C1D        60.8170   93.0140   68.4790 C.3       1 NAD1001     0.0000 
     36 N1N        61.6600   92.0630   67.7150 N.pl3     1 NAD1001     0.0000 
     37 C2N        61.3790   90.7860   67.2280 C.ar      1 NAD1001     0.0000 
     38 C3N        62.4500   90.1540   66.5410 C.ar      1 NAD1001     0.0000 
     39 C7N        62.6080   88.8240   65.8750 C.2       1 NAD1001     0.0000 
     40 O7N        61.6240   87.8440   65.7600 O.2       1 NAD1001     0.0000 
     41 N7N        63.8250   88.6390   65.3440 N.am      1 NAD1001     0.0000 
     42 C4N        63.6710   90.7740   66.3740 C.ar      1 NAD1001     0.0000 
     43 C5N        63.9320   92.0050   66.8530 C.ar      1 NAD1001     0.0000 
     44 C6N        62.8980   92.5880   67.5060 C.ar      1 NAD1001     0.0000 
     45 H          63.1630   93.5769   61.4515 H         1 NAD1001     0.0000 
     46 H          64.8240   93.0979   61.8409 H         1 NAD1001     0.0000 
     47 H          64.9348   93.3735   59.5670 H         1 NAD1001     0.0000 
     48 H          66.2587   95.3506   60.9237 H         1 NAD1001     0.0000 
     49 H          64.6992   96.9843   60.5292 H         1 NAD1001     0.0000 
     50 H          64.4508   95.7971   57.7911 H         1 NAD1001     0.0000 
     51 H          62.5786   98.0530   60.3225 H         1 NAD1001     0.0000 
     52 H          59.5678  100.0630   57.2431 H         1 NAD1001     0.0000 
     53 H          59.2388   99.8656   55.4886 H         1 NAD1001     0.0000 
     54 H          61.9731   96.5161   54.0769 H         1 NAD1001     0.0000 
     55 H          63.5538   94.4117   67.2413 H         1 NAD1001     0.0000 
     56 H          62.2569   94.8652   66.1223 H         1 NAD1001     0.0000 
     57 H          61.3586   96.2048   68.3854 H         1 NAD1001     0.0000 
     58 H          63.2724   94.5274   69.6071 H         1 NAD1001     0.0000 
     59 H          62.3426   92.5833   69.8996 H         1 NAD1001     0.0000 
     60 H          59.8899   92.6254   68.7267 H         1 NAD1001     0.0000 
     61 H          60.5036   90.3429   67.3457 H         1 NAD1001     0.0000 
     62 H          64.4812   89.3816   65.4783 H         1 NAD1001     0.0000 
     63 H          63.9677   87.7750   64.8612 H         1 NAD1001     0.0000 
     64 H          64.4218   90.2507   65.8475 H         1 NAD1001     0.0000 
     65 H          64.8219   92.4590   66.7375 H         1 NAD1001     0.0000 
     66 H          63.0742   93.5838   67.9077 H         1 NAD1001     0.0000 
     67 H          67.3484   94.2050   59.3906 H         1 NAD1001     0.0000 
     68 H          66.8615   97.5561   59.4703 H         1 NAD1001     0.0000 
     69 H          62.3883   95.1844   71.4227 H         1 NAD1001     0.0000 
     70 H          60.7653   94.3743   71.1776 H         1 NAD1001     0.0000 
@<TRIPOS>BOND
     1    2    1 ar   
     2    3    1 ar   
     3    4    1 1    
     4   23    1 1    
     5    5    4 1    
     6    6    5 1    
     7   45    5 1    
     8   46    5 1    
     9    7    6 1    
    10    8    6 1    
    11   47    6 1    
    12   12    7 1    
    13    9    8 1    
    14   10    8 1    
    15   48    8 1    
    16   67    9 1    
    17   11   10 1    
    18   12   10 1    
    19   49   10 1    
    20   68   11 1    
    21   13   12 1    
    22   50   12 1    
    23   14   13 1    
    24   22   13 1    
    25   15   14 2    
    26   51   14 1    
    27   16   15 1    
    28   17   16 ar   
    29   22   16 ar   
    30   18   17 1    
    31   19   17 ar   
    32   52   18 1    
    33   53   18 1    
    34   20   19 ar   
    35   21   20 ar   
    36   54   20 1    
    37   22   21 ar   
    38   24   23 1    
    39   25   24 ar   
    40   26   24 ar   
    41   27   24 1    
    42   28   27 1    
    43   29   28 1    
    44   55   28 1    
    45   56   28 1    
    46   30   29 1    
    47   31   29 1    
    48   57   29 1    
    49   35   30 1    
    50   32   31 1    
    51   33   31 1    
    52   58   31 1    
    53   69   32 1    
    54   34   33 1    
    55   35   33 1    
    56   59   33 1    
    57   70   34 1    
    58   36   35 1    
    59   60   35 1    
    60   37   36 ar   
    61   44   36 ar   
    62   38   37 ar   
    63   61   37 1    
    64   39   38 1    
    65   42   38 ar   
    66   40   39 2    
    67   41   39 am   
    68   62   41 1    
    69   63   41 1    
    70   43   42 ar   
    71   64   42 1    
    72   44   43 ar   
    73   65   43 1    
    74   66   44 1    
@<TRIPOS>SUBSTRUCTURE
     1 NAD1001     1 GROUP   
@<TRIPOS>SET

