#    Name: 1jm6_ADP_1_INTS_M
#    Modification time : Tue Mar 25 09:05:21 2014

@<TRIPOS>MOLECULE
1jm6_ADP_1_INTS_M
   57     0    12     0     0
SMALL
NO_CHARGES


@<TRIPOS>ATOM
      1 N           5.2370  -14.7185   34.4485 N.am      2 SEC2        0.0000 
      2 N           6.5550  -14.3700   34.1880 N.am     10 SEL2        0.0000 
      3 N           3.9190  -15.0670   34.7090 N.am      6 SEP2        0.0000 
      4 N           5.6780  -14.5225   33.2115 N.am      2 SEC2        0.0000 
      5 N           4.8010  -14.6750   32.2350 N.am      6 SEP2        0.0000 
      6 N           7.2830  -17.2300   33.3865 N.am      2 SEC2        0.0000 
      7 N           8.1940  -16.3020   33.5780 N.am     10 SEL2        0.0000 
      8 N           6.3720  -18.1580   33.1950 N.am      6 SEP2        0.0000 
      9 Zn          9.1615  -13.1890   34.9815 Zn        3 ZIC7        0.0000 
     10 Zn          8.9350  -14.2680   35.0070 Zn       11 ZIL7        0.0000 
     11 Zn          9.3880  -12.1100   34.9560 Zn        7 ZIP7        0.0000 
     12 N           9.3290  -11.0070   30.6645 N.am      2 SEC2        0.0000 
     13 N           9.1940  -12.1600   31.1420 N.am     10 SEL2        0.0000 
     14 N           9.4640   -9.8540   30.1870 N.am      6 SEP2        0.0000 
     15 Zn          9.8835  -12.3095   34.1170 Zn        3 ZIC7        0.0000 
     16 Zn         10.3790  -12.5090   33.2780 Zn       11 ZIL7        0.0000 
     17 N          11.5610  -12.2070   33.3835 N.am      2 SEC2        0.0000 
     18 N          10.3790  -12.5090   33.2780 N.am     10 SEL2        0.0000 
     19 N          12.7430  -11.9050   33.4890 N.am      6 SEP2        0.0000 
     20 CA         11.5845  -13.9765   29.8880 C.3       4 GLC5        0.0000 
     21 CA         10.1680  -15.4140   30.8260 C.3      12 GLL5        0.0000 
     22 CA         13.0010  -12.5390   28.9500 C.3       8 GLP5        0.0000 
     23 CA         12.5800  -17.0145   29.4135 C.3       4 GLC5        0.0000 
     24 CA         11.1250  -16.6120   31.0410 C.3      12 GLL5        0.0000 
     25 CA         14.0350  -17.4170   27.7860 C.3       8 GLP5        0.0000 
     26 CA         10.4900  -17.7030   29.3520 C.3       4 GLC5        0.0000 
     27 CA          9.8550  -18.7940   27.6630 C.3       8 GLP5        0.0000 
     28 N          10.4535  -18.1825   34.4325 N.am      2 SEC2        0.0000 
     29 N          10.2890  -17.9500   32.9320 N.am     10 SEL2        0.0000 
     30 N          10.6180  -18.4150   35.9330 N.am      6 SEP2        0.0000 
     31 N           9.4805  -19.0345   32.5675 N.am      2 SEC2        0.0000 
     32 N           8.6720  -20.1190   32.2030 N.am      6 SEP2        0.0000 
     33 N          11.8430  -20.2980   31.8075 N.am      2 SEC2        0.0000 
     34 N          12.5940  -19.1270   32.2860 N.am     10 SEL2        0.0000 
     35 N          11.0920  -21.4690   31.3290 N.am      6 SEP2        0.0000 
     36 CA         13.7300  -17.1900   29.5950 C.3       4 GLC5        0.0000 
     37 CA         13.4250  -16.9630   31.4040 C.3      12 GLL5        0.0000 
     38 CA         15.2825  -13.8705   34.0475 C.3       4 GLC5        0.0000 
     39 CA         16.3280  -15.1920   32.8370 C.3      12 GLL5        0.0000 
     40 CA         14.2370  -12.5490   35.2580 C.3       8 GLP5        0.0000 
     41 CA         17.8015  -16.3490   35.0550 C.3       4 GLC5        0.0000 
     42 CA         17.6410  -15.3270   33.3420 C.3      12 GLL5        0.0000 
     43 CA         17.9620  -17.3710   36.7680 C.3       8 GLP5        0.0000 
     44 CA         19.5195  -15.0790   32.4855 C.3       4 GLC5        0.0000 
     45 CA         21.3980  -14.8310   31.6290 C.3       8 GLP5        0.0000 
     46 O          19.4785  -14.0530   34.5280 O.2       1 ALC1        0.0000 
     47 O          18.3500  -14.2700   33.7680 O.2       9 ALL1        0.0000 
     48 O          20.6070  -13.8360   35.2880 O.2       5 ALP1        0.0000 
     49 CA         17.7765  -17.5255   34.8120 C.3       4 GLC5        0.0000 
     50 CA         17.5910  -17.6800   32.8560 C.3      12 GLL5        0.0000 
     51 CA         17.7130  -18.4330   31.2335 C.3       4 GLC5        0.0000 
     52 CA         17.8350  -19.1860   29.6110 C.3       8 GLP5        0.0000 
     53 CA          8.9272  -17.3460   30.9552 C.3       4 GLC5        0.0000 
     54 CA          7.2080  -18.6790   30.9770 C.3       8 GLP5        0.0000 
     55 CA         11.3315  -19.3803   32.5902 C.3       4 GLC5        0.0000 
     56 CA         11.3200  -17.0630   32.4840 C.3      12 GLL5        0.0000 
     57 CA         10.6660  -21.3790   32.6960 C.3       8 GLP5        0.0000 
@<TRIPOS>BOND
@<TRIPOS>SUBSTRUCTURE
     1 ALC1       46 GROUP        1 X    ALC  0     ROOT ALC X 1
     2 SEC2        1 GROUP        1 X    SEC  0     **** SEC X 2
     3 ZIC7        9 GROUP        1 X    ZIC  0     **** ZIC X 5
     4 GLC5       20 GROUP        1 X    GLC  0     **** GLC X 6
     5 ALP1       48 GROUP        1 Y    ALP  0     ROOT ALP Y 8
     6 SEP2        3 GROUP        1 Y    SEP  0     **** SEP Y 9
     7 ZIP7       11 GROUP        1 Y    ZIP  0     **** ZIP Y 12
     8 GLP5       22 GROUP        1 Y    GLP  0     **** GLP Y 13
     9 ALL1       47 GROUP        1 Z    ALL  0     ROOT ALL Z 15
    10 SEL2        2 GROUP        1 Z    SEL  0     **** SEL Z 16
    11 ZIL7       10 GROUP        1 Z    ZIL  0     **** ZIL Z 19
    12 GLL5       21 GROUP        1 Z    GLL  0     **** GLL Z 20
@<TRIPOS>SET

