#    Name: 1jm6_ADP_1_ligand
#    Modification time : Tue Mar 25 09:05:21 2014

@<TRIPOS>MOLECULE
1jm6_ADP_1_ligand
   39    41     1     0     0
SMALL
NO_CHARGES


@<TRIPOS>ATOM
      1 PB          8.0200  -14.6930   33.8810 P.3       1 ADP3500     0.0000 
      2 O1B         6.5550  -14.3700   34.1880 O.co2     1 ADP3500     0.0000 
      3 O2B         8.1940  -16.3020   33.5780 O.co2     1 ADP3500     0.0000 
      4 O3B         8.9350  -14.2680   35.0070 O.co2     1 ADP3500     0.0000 
      5 PA          9.6670  -13.1580   32.1050 P.3       1 ADP3500     0.0000 
      6 O1A         9.1940  -12.1600   31.1420 O.co2     1 ADP3500     0.0000 
      7 O2A        10.3790  -12.5090   33.2780 O.co2     1 ADP3500     0.0000 
      8 O3A         8.4700  -14.0310   32.5560 O.3       1 ADP3500     0.0000 
      9 O5'        10.6640  -14.2330   31.4400 O.3       1 ADP3500     0.0000 
     10 C5'        10.1680  -15.4140   30.8260 C.3       1 ADP3500     0.0000 
     11 C4'        11.1250  -16.6120   31.0410 C.3       1 ADP3500     0.0000 
     12 O4'        12.4410  -16.3320   30.5440 O.3       1 ADP3500     0.0000 
     13 C3'        11.3200  -17.0630   32.4840 C.3       1 ADP3500     0.0000 
     14 O3'        10.2890  -17.9500   32.9320 O.3       1 ADP3500     0.0000 
     15 C2'        12.6740  -17.7000   32.4850 C.3       1 ADP3500     0.0000 
     16 O2'        12.5940  -19.1270   32.2860 O.3       1 ADP3500     0.0000 
     17 C1'        13.4250  -16.9630   31.4040 C.3       1 ADP3500     0.0000 
     18 N9         14.4590  -16.0190   31.9500 N.pl3     1 ADP3500     0.0000 
     19 C8         14.3020  -14.6960   32.1920 C.2       1 ADP3500     0.0000 
     20 N7         15.5080  -14.1860   32.5220 N.2       1 ADP3500     0.0000 
     21 C5         16.3280  -15.1920   32.8370 C.ar      1 ADP3500     0.0000 
     22 C6         17.6410  -15.3270   33.3420 C.ar      1 ADP3500     0.0000 
     23 N6         18.3500  -14.2700   33.7680 N.pl3     1 ADP3500     0.0000 
     24 N1         18.2300  -16.5960   33.3600 N.ar      1 ADP3500     0.0000 
     25 C2         17.5910  -17.6800   32.8560 C.ar      1 ADP3500     0.0000 
     26 N3         16.3380  -17.5470   32.3940 N.ar      1 ADP3500     0.0000 
     27 C4         15.6500  -16.3720   32.3810 C.ar      1 ADP3500     0.0000 
     28 H          10.0431  -15.2936   29.7369 H         1 ADP3500     0.0000 
     29 H           9.1859  -15.7103   31.2308 H         1 ADP3500     0.0000 
     30 H          10.7180  -17.4734   30.4861 H         1 ADP3500     0.0000 
     31 H          11.3792  -16.1635   33.0885 H         1 ADP3500     0.0000 
     32 H          13.1441  -17.4520   33.4348 H         1 ADP3500     0.0000 
     33 H          13.9529  -17.7429   30.8092 H         1 ADP3500     0.0000 
     34 H          13.4753  -14.2071   32.1378 H         1 ADP3500     0.0000 
     35 H          18.1615  -13.4007   33.3110 H         1 ADP3500     0.0000 
     36 H          19.0033  -14.4463   34.5042 H         1 ADP3500     0.0000 
     37 H          18.0705  -18.5994   32.8304 H         1 ADP3500     0.0000 
     38 H           9.5185  -17.3557   33.1624 H         1 ADP3500     0.0000 
     39 H          13.4033  -19.3587   31.7463 H         1 ADP3500     0.0000 
@<TRIPOS>BOND
     1    2    1 ar   
     2    3    1 ar   
     3    4    1 ar   
     4    8    1 1    
     5    6    5 ar   
     6    7    5 ar   
     7    8    5 1    
     8    9    5 1    
     9   10    9 1    
    10   11   10 1    
    11   28   10 1    
    12   29   10 1    
    13   12   11 1    
    14   13   11 1    
    15   30   11 1    
    16   17   12 1    
    17   14   13 1    
    18   15   13 1    
    19   31   13 1    
    20   38   14 1    
    21   16   15 1    
    22   17   15 1    
    23   32   15 1    
    24   39   16 1    
    25   18   17 1    
    26   33   17 1    
    27   19   18 1    
    28   27   18 1    
    29   20   19 2    
    30   34   19 1    
    31   21   20 1    
    32   22   21 ar   
    33   27   21 ar   
    34   23   22 1    
    35   24   22 ar   
    36   35   23 1    
    37   36   23 1    
    38   25   24 ar   
    39   26   25 ar   
    40   37   25 1    
    41   27   26 ar   
@<TRIPOS>SUBSTRUCTURE
     1 ADP3500     1 GROUP   
@<TRIPOS>SET

