#    Name: 2iw1_U2F_1_INTS_M
#    Modification time : Tue Mar 25 18:47:20 2014

@<TRIPOS>MOLECULE
2iw1_U2F_1_INTS_M
  102     0    12     0     0
SMALL
NO_CHARGES


@<TRIPOS>ATOM
      1 CA         -3.9280   13.1800  -21.0385 C.3       4 GLC5        0.0000 
      2 CA         -4.4770   15.2830  -20.6840 C.3      12 GLL5        0.0000 
      3 CA         -3.3790   11.0770  -21.3930 C.3       8 GLP5        0.0000 
      4 N          -3.6015   11.9020  -19.0780 N.am      2 SEC2        0.0000 
      5 N          -4.3060   12.6210  -18.1430 N.am     10 SEL2        0.0000 
      6 N          -2.8970   11.1830  -20.0130 N.am      6 SEP2        0.0000 
      7 N          -4.3980   11.8560  -16.9835 N.am      2 SEC2        0.0000 
      8 N          -4.4900   11.0910  -15.8240 N.am      6 SEP2        0.0000 
      9 NZ         -5.4530   16.1485  -17.0790 N.4       3 LYC4        0.0000 
     10 NZ         -5.4490   14.9240  -17.7390 N.4      11 LYL4        0.0000 
     11 NZ         -6.3380   18.3580  -16.2970 N.4       7 LYP4        0.0000 
     12 NZ         -6.6925   14.7255  -17.1000 N.4       3 LYC4        0.0000 
     13 NZ         -7.9360   14.5270  -16.4610 N.4       7 LYP4        0.0000 
     14 N          -5.4530   16.1485  -17.0790 N.am      2 SEC2        0.0000 
     15 N          -5.4490   14.9240  -17.7390 N.am     10 SEL2        0.0000 
     16 N          -5.4570   17.3730  -16.4190 N.am      6 SEP2        0.0000 
     17 N          -6.6925   14.7255  -17.1000 N.am      2 SEC2        0.0000 
     18 N          -7.9360   14.5270  -16.4610 N.am      6 SEP2        0.0000 
     19 N          -7.3315   13.7620  -17.5560 N.am      2 SEC2        0.0000 
     20 N          -6.7270   12.9970  -18.6510 N.am     10 SEL2        0.0000 
     21 N          -8.7440   12.1300  -21.5880 N.am      2 SEC2        0.0000 
     22 N          -7.5170   12.5520  -21.0790 N.am     10 SEL2        0.0000 
     23 N          -9.9710   11.7080  -22.0970 N.am      6 SEP2        0.0000 
     24 N          -9.6440   10.4640  -19.7165 N.am      2 SEC2        0.0000 
     25 N          -8.5250   11.3450  -19.0510 N.am     10 SEL2        0.0000 
     26 N         -10.7630    9.5830  -20.3820 N.am      6 SEP2        0.0000 
     27 CA         -3.6085   10.3430  -18.4615 C.3       4 GLC5        0.0000 
     28 CA         -5.7830    9.9810  -18.7770 C.3      12 GLL5        0.0000 
     29 CA         -1.4340   10.7050  -18.1460 C.3       8 GLP5        0.0000 
     30 CA         -7.8285    9.3070  -18.1915 C.3       4 GLC5        0.0000 
     31 CA         -9.8740    8.6330  -17.6060 C.3       8 GLP5        0.0000 
     32 CA         -3.8735    6.3760  -19.2165 C.3       4 GLC5        0.0000 
     33 CA         -5.1380    6.7490  -17.9290 C.3      12 GLL5        0.0000 
     34 CA         -2.6090    6.0030  -20.5040 C.3       8 GLP5        0.0000 
     35 CA         -7.5220    6.9620  -16.3675 C.3       4 GLC5        0.0000 
     36 CA         -6.6120    6.9180  -18.2500 C.3      12 GLL5        0.0000 
     37 CA         -8.4320    7.0060  -14.4850 C.3       8 GLP5        0.0000 
     38 CA         -7.5255    7.9895  -21.2805 C.3       4 GLC5        0.0000 
     39 CA         -6.5560    7.6840  -19.5580 C.3      12 GLL5        0.0000 
     40 CA         -8.4950    8.2950  -23.0030 C.3       8 GLP5        0.0000 
     41 O          -7.1995    5.9775  -20.9465 O.2       1 ALC1        0.0000 
     42 O          -6.2180    6.7990  -20.6420 O.2       9 ALL1        0.0000 
     43 O          -8.1810    5.1560  -21.2510 O.2       5 ALP1        0.0000 
     44 N          -6.7875    4.2400  -18.7145 N.am      2 SEC2        0.0000 
     45 N          -7.2800    5.6460  -18.3320 N.am     10 SEL2        0.0000 
     46 N          -6.2950    2.8340  -19.0970 N.am      6 SEP2        0.0000 
     47 O          -8.4310    5.6860  -18.9895 O.2       1 ALC1        0.0000 
     48 O          -7.2800    5.6460  -18.3320 O.2       9 ALL1        0.0000 
     49 O          -9.5820    5.7260  -19.6470 O.2       5 ALP1        0.0000 
     50 N          -4.6540    2.9630  -16.7840 N.am      2 SEC2        0.0000 
     51 N          -4.4060    4.3920  -16.8080 N.am     10 SEL2        0.0000 
     52 N          -4.9020    1.5340  -16.7600 N.am      6 SEP2        0.0000 
     53 O          -3.9005    3.9040  -14.3300 O.2       1 ALC1        0.0000 
     54 O          -4.2960    5.2060  -14.7120 O.2       9 ALL1        0.0000 
     55 O          -3.5050    2.6020  -13.9480 O.2       5 ALP1        0.0000 
     56 N          -3.4895    4.8735  -12.0265 N.am      2 SEC2        0.0000 
     57 N          -4.1730    6.0510  -12.6310 N.am     10 SEL2        0.0000 
     58 N          -2.8060    3.6960  -11.4220 N.am      6 SEP2        0.0000 
     59 CA         -2.7815    7.4860  -14.3575 C.3       4 GLC5        0.0000 
     60 CA         -4.7600    7.4910  -14.3060 C.3      12 GLL5        0.0000 
     61 CA         -0.8030    7.4810  -14.4090 C.3       8 GLP5        0.0000 
     62 CA         -5.9635    9.2645  -13.9690 C.3       4 GLC5        0.0000 
     63 CA         -7.1670   11.0380  -13.6320 C.3       8 GLP5        0.0000 
     64 CA         -4.5745    8.1485  -12.2920 C.3       4 GLC5        0.0000 
     65 CA         -4.3890    8.8060  -10.2780 C.3       8 GLP5        0.0000 
     66 CA         -2.8890    7.6590  -15.7990 C.3       4 GLC5        0.0000 
     67 CA         -4.9960    7.6430  -15.6670 C.3      12 GLL5        0.0000 
     68 CA         -0.7820    7.6750  -15.9310 C.3       8 GLP5        0.0000 
     69 N          -8.9200   17.1885  -22.3890 N.am      2 SEC2        0.0000 
     70 N          -7.8810   16.7970  -21.4090 N.am     10 SEL2        0.0000 
     71 N          -9.9590   17.5800  -23.3690 N.am      6 SEP2        0.0000 
     72 O          -8.2615   16.6850  -20.1330 O.2       1 ALC1        0.0000 
     73 O          -7.8810   16.7970  -21.4090 O.2       9 ALL1        0.0000 
     74 O          -8.6420   16.5730  -18.8570 O.2       5 ALP1        0.0000 
     75 CA         -6.6305   15.5535  -24.9000 C.3       4 GLC5        0.0000 
     76 CA         -6.5440   15.2130  -22.7010 C.3      12 GLL5        0.0000 
     77 CA         -6.7170   15.8940  -27.0990 C.3       8 GLP5        0.0000 
     78 CA         -8.2260   15.5085  -23.8880 C.3       4 GLC5        0.0000 
     79 CA         -9.9080   15.8040  -25.0750 C.3       8 GLP5        0.0000 
     80 N          -9.0790   14.5205  -22.7335 N.am      2 SEC2        0.0000 
     81 N          -7.6500   14.3530  -23.0200 N.am     10 SEL2        0.0000 
     82 N         -10.5080   14.6880  -22.4470 N.am      6 SEP2        0.0000 
     83 CA         -2.7550   13.7215  -23.6370 C.3       4 GLC5        0.0000 
     84 CA         -4.8220   14.2360  -24.2230 C.3      12 GLL5        0.0000 
     85 CA         -0.6880   13.2070  -23.0510 C.3       8 GLP5        0.0000 
     86 CA         -3.6480   14.3525  -25.9855 C.3       4 GLC5        0.0000 
     87 CA         -2.4740   14.4690  -27.7480 C.3       8 GLP5        0.0000 
     88 CA         -3.4285   15.5585  -24.4420 C.3       4 GLC5        0.0000 
     89 CA         -2.0350   16.8810  -24.6610 C.3       8 GLP5        0.0000 
     90 CA         -5.7695   15.0650  -25.6610 C.3       4 GLC5        0.0000 
     91 O          -3.8645   12.5475  -25.3010 O.2       1 ALC1        0.0000 
     92 O          -3.6250   13.4530  -24.3020 O.2       9 ALL1        0.0000 
     93 O          -4.1040   11.6420  -26.3000 O.2       5 ALP1        0.0000 
     94 CA         -4.4785   10.1870  -20.2218 C.3       4 GLC5        0.0000 
     95 CA         -4.2867    7.0758  -19.9725 C.3       4 GLC5        0.0000 
     96 CA         -5.3730    8.6130  -19.3240 C.3      12 GLL5        0.0000 
     97 CA         -8.2290    7.9670  -18.2550 C.3       4 GLC5        0.0000 
     98 CA         -6.6550    7.2865  -14.7357 C.3       4 GLC5        0.0000 
     99 CA         -4.2088   12.6908  -22.4435 C.3       4 GLC5        0.0000 
    100 CA         -5.2550   14.3730  -22.7650 C.3      12 GLL5        0.0000 
    101 CA         -5.6617   12.3543  -23.6295 C.3       4 GLC5        0.0000 
    102 CA         -6.2850   10.4040  -23.7650 C.3       8 GLP5        0.0000 
@<TRIPOS>BOND
@<TRIPOS>SUBSTRUCTURE
     1 ALC1       41 GROUP        1 X    ALC  0     ROOT ALC X 1
     2 SEC2        4 GROUP        1 X    SEC  0     **** SEC X 2
     3 LYC4        9 GROUP        1 X    LYC  0     **** LYC X 4
     4 GLC5        1 GROUP        1 X    GLC  0     **** GLC X 6
     5 ALP1       43 GROUP        1 Y    ALP  0     ROOT ALP Y 8
     6 SEP2        6 GROUP        1 Y    SEP  0     **** SEP Y 9
     7 LYP4       11 GROUP        1 Y    LYP  0     **** LYP Y 11
     8 GLP5        3 GROUP        1 Y    GLP  0     **** GLP Y 13
     9 ALL1       42 GROUP        1 Z    ALL  0     ROOT ALL Z 15
    10 SEL2        5 GROUP        1 Z    SEL  0     **** SEL Z 16
    11 LYL4       10 GROUP        1 Z    LYL  0     **** LYL Z 18
    12 GLL5        2 GROUP        1 Z    GLL  0     **** GLL Z 20
@<TRIPOS>SET

