#    Name: 2iw1_U2F_1_ligand
#    Modification time : Tue Mar 25 18:47:20 2014

@<TRIPOS>MOLECULE
2iw1_U2F_1_ligand
   57    59     1     0     0
SMALL
NO_CHARGES


@<TRIPOS>ATOM
      1 C1         -4.4770   15.2830  -20.6840 C.3       1 U2F900      0.0000 
      2 O1         -4.9540   14.0580  -20.1190 O.3       1 U2F900      0.0000 
      3 PB         -5.2670   13.6890  -18.5930 P.3       1 U2F900      0.0000 
      4 O1B        -4.3060   12.6210  -18.1430 O.co2     1 U2F900      0.0000 
      5 O2B        -5.4490   14.9240  -17.7390 O.co2     1 U2F900      0.0000 
      6 O3A        -6.7270   12.9970  -18.6510 O.3       1 U2F900      0.0000 
      7 PA         -7.3220   11.9310  -19.7150 P.3       1 U2F900      0.0000 
      8 O1A        -7.5170   12.5520  -21.0790 O.co2     1 U2F900      0.0000 
      9 O2A        -8.5250   11.3450  -19.0510 O.co2     1 U2F900      0.0000 
     10 O5'        -6.2010   10.7930  -19.8670 O.3       1 U2F900      0.0000 
     11 C5'        -5.7830    9.9810  -18.7770 C.3       1 U2F900      0.0000 
     12 C4'        -5.3730    8.6130  -19.3240 C.3       1 U2F900      0.0000 
     13 O4'        -4.5310    7.9600  -18.3750 O.3       1 U2F900      0.0000 
     14 C1'        -5.1380    6.7490  -17.9290 C.3       1 U2F900      0.0000 
     15 C2'        -6.6120    6.9180  -18.2500 C.3       1 U2F900      0.0000 
     16 C3'        -6.5560    7.6840  -19.5580 C.3       1 U2F900      0.0000 
     17 O3'        -6.2180    6.7990  -20.6420 O.3       1 U2F900      0.0000 
     18 O2'        -7.2800    5.6460  -18.3320 O.3       1 U2F900      0.0000 
     19 N1         -4.8860    6.5790  -16.5010 N.am      1 U2F900      0.0000 
     20 C6'        -4.5280    5.3740  -16.0370 C.2       1 U2F900      0.0000 
     21 O6'        -4.4060    4.3920  -16.8080 O.2       1 U2F900      0.0000 
     22 N3         -4.2960    5.2060  -14.7120 N.am      1 U2F900      0.0000 
     23 C7'        -4.4080    6.2360  -13.8440 C.2       1 U2F900      0.0000 
     24 O7'        -4.1730    6.0510  -12.6310 O.2       1 U2F900      0.0000 
     25 C8'        -4.7600    7.4910  -14.3060 C.2       1 U2F900      0.0000 
     26 C9'        -4.9960    7.6430  -15.6670 C.2       1 U2F900      0.0000 
     27 C2         -5.5320   16.3970  -20.7610 C.3       1 U2F900      0.0000 
     28 F1         -5.7470   16.9580  -19.5270 F         1 U2F900      0.0000 
     29 C3         -6.8270   15.8200  -21.3270 C.3       1 U2F900      0.0000 
     30 O3         -7.8810   16.7970  -21.4090 O.3       1 U2F900      0.0000 
     31 C4         -6.5440   15.2130  -22.7010 C.3       1 U2F900      0.0000 
     32 O4         -7.6500   14.3530  -23.0200 O.3       1 U2F900      0.0000 
     33 C5         -5.2550   14.3730  -22.7650 C.3       1 U2F900      0.0000 
     34 C6         -4.8220   14.2360  -24.2230 C.3       1 U2F900      0.0000 
     35 O6         -3.6250   13.4530  -24.3020 O.3       1 U2F900      0.0000 
     36 O5         -4.1410   14.9110  -22.0240 O.3       1 U2F900      0.0000 
     37 H          -3.6159   15.6433  -20.1795 H         1 U2F900      0.0000 
     38 H          -6.5832    9.8232  -18.0520 H         1 U2F900      0.0000 
     39 H          -4.9215   10.4033  -18.2572 H         1 U2F900      0.0000 
     40 H          -4.8550    8.7483  -20.2568 H         1 U2F900      0.0000 
     41 H          -4.7659    5.9186  -18.4932 H         1 U2F900      0.0000 
     42 H          -7.0248    7.5683  -17.5041 H         1 U2F900      0.0000 
     43 H          -7.4116    8.2370  -19.6904 H         1 U2F900      0.0000 
     44 H          -4.0244    4.2574  -14.3551 H         1 U2F900      0.0000 
     45 H          -4.8444    8.2803  -13.6720 H         1 U2F900      0.0000 
     46 H          -5.2557    8.5770  -16.0308 H         1 U2F900      0.0000 
     47 H          -5.1645   17.1259  -21.4900 H         1 U2F900      0.0000 
     48 H          -7.1256   14.9900  -20.6723 H         1 U2F900      0.0000 
     49 H          -6.4743   16.0076  -23.4243 H         1 U2F900      0.0000 
     50 H          -5.4955   13.3643  -22.4189 H         1 U2F900      0.0000 
     51 H          -4.6728   15.2444  -24.6251 H         1 U2F900      0.0000 
     52 H          -5.6463   13.7714  -24.7758 H         1 U2F900      0.0000 
     53 H          -7.0175    6.2087  -20.7529 H         1 U2F900      0.0000 
     54 H          -8.1122    5.8242  -18.8571 H         1 U2F900      0.0000 
     55 H          -8.2542   16.8532  -20.4830 H         1 U2F900      0.0000 
     56 H          -7.9607   13.9939  -22.1399 H         1 U2F900      0.0000 
     57 H          -3.7833   12.8137  -25.0545 H         1 U2F900      0.0000 
@<TRIPOS>BOND
     1    2    1 1    
     2   27    1 1    
     3   36    1 1    
     4   37    1 1    
     5    3    2 1    
     6    4    3 ar   
     7    5    3 ar   
     8    6    3 1    
     9    7    6 1    
    10    8    7 ar   
    11    9    7 ar   
    12   10    7 1    
    13   11   10 1    
    14   12   11 1    
    15   38   11 1    
    16   39   11 1    
    17   13   12 1    
    18   16   12 1    
    19   40   12 1    
    20   14   13 1    
    21   15   14 1    
    22   19   14 1    
    23   41   14 1    
    24   16   15 1    
    25   18   15 1    
    26   42   15 1    
    27   17   16 1    
    28   43   16 1    
    29   53   17 1    
    30   54   18 1    
    31   20   19 1    
    32   26   19 1    
    33   21   20 2    
    34   22   20 1    
    35   23   22 1    
    36   44   22 1    
    37   24   23 2    
    38   25   23 1    
    39   26   25 2    
    40   45   25 1    
    41   46   26 1    
    42   28   27 1    
    43   29   27 1    
    44   47   27 1    
    45   30   29 1    
    46   31   29 1    
    47   48   29 1    
    48   55   30 1    
    49   32   31 1    
    50   33   31 1    
    51   49   31 1    
    52   56   32 1    
    53   34   33 1    
    54   36   33 1    
    55   50   33 1    
    56   35   34 1    
    57   51   34 1    
    58   52   34 1    
    59   57   35 1    
@<TRIPOS>SUBSTRUCTURE
     1 U2F900      1 GROUP   
@<TRIPOS>SET

