#    Name: 3CHP_2_CAVITY_N1_6.mol2
#    Modification time : Tue Mar 11 14:09:25 2014

@<TRIPOS>MOLECULE
3CHP_2_CAVITY_N1_6.mol2
   27     0     7     0     0
SMALL
NO_CHARGES


@<TRIPOS>ATOM
      1 OG         16.3377   45.5949   70.0329 O.2       1 SER1        0.0000 
      2 OG         17.8258   42.8265   68.8619 O.2       1 SER1        0.0000 
      3 CZ         18.8420   41.7245   68.9157 C.ar      5 PHE5        0.0000 
      4 OG         15.7212   42.7998   66.2504 O.2       1 SER1        0.0000 
      5 O          16.7532   45.8773   67.9720 O.2       2 ALA2        0.0000 
      6 OG         17.7694   44.7753   68.0258 O.2       1 SER1        0.0000 
      7 DU         18.7856   43.6733   68.0797 H         7 CUB7        0.0000 
      8 CZ         19.8018   42.5713   68.1336 C.ar      5 PHE5        0.0000 
      9 CA         16.2090   45.3130   66.6932 C.3       6 GLY6        0.0000 
     10 OG         17.2252   44.2110   66.7470 O.2       1 SER1        0.0000 
     11 CZ         18.2414   43.1089   66.8009 C.ar      5 PHE5        0.0000 
     12 CZ         19.2576   42.0069   66.8548 C.ar      5 PHE5        0.0000 
     13 O          20.2737   40.9049   66.9086 O.2       2 ALA2        0.0000 
     14 N          15.6647   44.7486   65.4144 N.2       2 ALA2        0.0000 
     15 N          16.6809   43.6466   65.4683 N.2       2 ALA2        0.0000 
     16 OD1        17.6971   42.5446   65.5221 O.3       3 ASP3        0.0000 
     17 O          18.7292   45.6221   67.2437 O.2       2 ALA2        0.0000 
     18 O          19.7454   44.5201   67.2975 O.2       2 ALA2        0.0000 
     19 DU         20.7616   43.4180   67.3514 H         7 CUB7        0.0000 
     20 O          18.1850   45.0577   65.9649 O.2       2 ALA2        0.0000 
     21 NZ         19.2011   43.9557   66.0187 N.2       4 LYS4        0.0000 
     22 CA         20.2173   42.8537   66.0726 C.3       6 GLY6        0.0000 
     23 O          21.2335   41.7517   66.1264 O.2       2 ALA2        0.0000 
     24 O          17.6407   44.4934   64.6861 O.2       2 ALA2        0.0000 
     25 NZ         18.6569   43.3914   64.7399 N.2       4 LYS4        0.0000 
     26 CA         20.1609   44.8025   65.2366 C.3       6 GLY6        0.0000 
     27 CA         21.1771   43.7005   65.2904 C.3       6 GLY6        0.0000 
@<TRIPOS>BOND
@<TRIPOS>SUBSTRUCTURE
     1 SER1        1 GROUP   
     2 ALA2        5 GROUP   
     3 ASP3       16 GROUP   
     4 LYS4       21 GROUP   
     5 PHE5        3 GROUP   
     6 GLY6        9 GROUP   
     7 CUB7        7 GROUP   
@<TRIPOS>SET

