#    Name: 3chp_4BO_2_INTS_M
#    Modification time : Mon Mar 24 21:28:02 2014

@<TRIPOS>MOLECULE
3chp_4BO_2_INTS_M
   52     0     9     0     0
SMALL
NO_CHARGES


@<TRIPOS>ATOM
      1 CA          6.7115   42.2865   70.0335 C.3       3 GLC5        0.0000 
      2 CA          7.7440   41.0110   68.6820 C.3       9 GLL5        0.0000 
      3 CA          5.6790   43.5620   71.3850 C.3       6 GLP5        0.0000 
      4 N          14.2180   41.0425   62.3070 N.am      1 SEC2        0.0000 
      5 N          13.8240   41.2220   63.6590 N.am      7 SEL2        0.0000 
      6 N          14.6120   40.8630   60.9550 N.am      4 SEP2        0.0000 
      7 CA         12.1040   43.1385   63.0715 C.3       3 GLC5        0.0000 
      8 CA         12.3260   42.9900   65.1620 C.3       9 GLL5        0.0000 
      9 CA         11.8820   43.2870   60.9810 C.3       6 GLP5        0.0000 
     10 CA          6.3795   36.1630   68.6625 C.3       3 GLC5        0.0000 
     11 CA          7.6350   37.4540   69.6320 C.3       9 GLL5        0.0000 
     12 CA          5.1240   34.8720   67.6930 C.3       6 GLP5        0.0000 
     13 CA          9.5515   36.9260   69.3945 C.3       3 GLC5        0.0000 
     14 CA         11.4680   36.3980   69.1570 C.3       6 GLP5        0.0000 
     15 CA          5.8915   38.5095   69.7170 C.3       3 GLC5        0.0000 
     16 CA          4.1480   39.5650   69.8020 C.3       6 GLP5        0.0000 
     17 Zn         16.4515   40.3645   64.6100 Zn        2 ZIC7        0.0000 
     18 Zn         15.7320   41.5240   64.7880 Zn        8 ZIL7        0.0000 
     19 Zn         17.1710   39.2050   64.4320 Zn        5 ZIP7        0.0000 
     20 N          15.5375   41.1105   66.2460 N.am      1 SEC2        0.0000 
     21 N          15.7320   41.5240   64.7880 N.am      7 SEL2        0.0000 
     22 N          15.3430   40.6970   67.7040 N.am      4 SEP2        0.0000 
     23 CA          6.7348   40.6970   67.1445 C.3       3 GLC5        0.0000 
     24 CA          8.5610   41.8670   67.9200 C.3       9 GLL5        0.0000 
     25 CA          5.3170   39.9550   65.9880 C.3       6 GLP5        0.0000 
     26 CA          9.0397   41.8160   70.2280 C.3       3 GLC5        0.0000 
     27 CA          9.9270   42.1930   72.1550 C.3       6 GLP5        0.0000 
     28 CA          5.9882   39.9390   69.2255 C.3       3 GLC5        0.0000 
     29 CA          9.6405   39.5255   72.7350 C.3       3 GLC5        0.0000 
     30 CA          9.6110   37.7180   72.7740 C.3       9 GLL5        0.0000 
     31 CA         10.0280   41.1440   73.2690 C.3       6 GLP5        0.0000 
     32 CA          6.8645   39.6525   67.0920 C.3       3 GLC5        0.0000 
     33 CA          8.9110   39.0850   67.7760 C.3       9 GLL5        0.0000 
     34 CA          8.9593   40.1941   65.4693 C.3       3 GLC5        0.0000 
     35 CA          8.6400   40.5260   63.5220 C.3       6 GLP5        0.0000 
     36 CA         13.1297   44.5020   66.4425 C.3       3 GLC5        0.0000 
     37 CA         13.1710   46.0720   67.6030 C.3       6 GLP5        0.0000 
     38 CA          6.7948   35.4890   71.6225 C.3       3 GLC5        0.0000 
     39 CA          9.1820   35.3790   72.2830 C.3       9 GLL5        0.0000 
     40 CA          4.7660   35.4120   71.5350 C.3       6 GLP5        0.0000 
     41 CA          8.2126   34.4910   73.1970 C.3       3 GLC5        0.0000 
     42 CA          9.7550   36.3580   73.1020 C.3       9 GLL5        0.0000 
     43 CA          7.1360   33.0200   73.9880 C.3       6 GLP5        0.0000 
     44 CA          8.0275   37.9168   73.8792 C.3       3 GLC5        0.0000 
     45 CA          6.5510   38.7010   75.1070 C.3       6 GLP5        0.0000 
     46 CA         11.5419   36.5631   72.4751 C.3       3 GLC5        0.0000 
     47 CA         13.5440   36.3330   72.2170 C.3       6 GLP5        0.0000 
     48 CA          9.3766   35.3315   69.9095 C.3       3 GLC5        0.0000 
     49 CA          8.4650   35.7530   71.1370 C.3       9 GLL5        0.0000 
     50 CA         10.1810   34.3250   68.5630 C.3       6 GLP5        0.0000 
     51 CA          6.3720   36.3470   70.8760 C.3       3 GLC5        0.0000 
     52 CA          8.3210   37.1100   70.8020 C.3       9 GLL5        0.0000 
@<TRIPOS>BOND
@<TRIPOS>SUBSTRUCTURE
     1 SEC2        4 GROUP        1 X    SEC  0     ROOT SEC X 2
     2 ZIC7       17 GROUP        1 X    ZIC  0     **** ZIC X 5
     3 GLC5        1 GROUP        1 X    GLC  0     **** GLC X 6
     4 SEP2        6 GROUP        1 Y    SEP  0     ROOT SEP Y 9
     5 ZIP7       19 GROUP        1 Y    ZIP  0     **** ZIP Y 12
     6 GLP5        3 GROUP        1 Y    GLP  0     **** GLP Y 13
     7 SEL2        5 GROUP        1 Z    SEL  0     ROOT SEL Z 16
     8 ZIL7       18 GROUP        1 Z    ZIL  0     **** ZIL Z 19
     9 GLL5        2 GROUP        1 Z    GLL  0     **** GLL Z 20
@<TRIPOS>SET

