#    Name: 3chp_4BO_2_ligand
#    Modification time : Mon Mar 24 21:28:02 2014

@<TRIPOS>MOLECULE
3chp_4BO_2_ligand
   41    42     1     0     0
SMALL
NO_CHARGES


@<TRIPOS>ATOM
      1 C12         8.5610   41.8670   67.9200 C.ar      1 4BO901      0.0000 
      2 C13         7.7440   41.0110   68.6820 C.ar      1 4BO901      0.0000 
      3 C24         8.8950   38.0960   71.6280 C.ar      1 4BO901      0.0000 
      4 C11         9.5650   41.3400   67.0890 C.ar      1 4BO901      0.0000 
      5 C14         7.9130   39.6150   68.6160 C.ar      1 4BO901      0.0000 
      6 C15         8.9110   39.0850   67.7760 C.ar      1 4BO901      0.0000 
      7 O1         13.8240   41.2220   63.6590 O.co2     1 4BO901      0.0000 
      8 C2         14.5240   41.7760   64.5420 C.2       1 4BO901      0.0000 
      9 C4         13.8510   42.8740   65.4020 C.3       1 4BO901      0.0000 
     10 C7         11.5360   41.8270   65.7910 C.2       1 4BO901      0.0000 
     11 C5         12.3260   42.9900   65.1620 C.3       1 4BO901      0.0000 
     12 C20         8.4650   35.7530   71.1370 C.ar      1 4BO901      0.0000 
     13 C21         9.1820   35.3790   72.2830 C.ar      1 4BO901      0.0000 
     14 C22         9.7550   36.3580   73.1020 C.ar      1 4BO901      0.0000 
     15 C23         9.6110   37.7180   72.7740 C.ar      1 4BO901      0.0000 
     16 C19         8.3210   37.1100   70.8020 C.ar      1 4BO901      0.0000 
     17 C18         7.6350   37.4540   69.6320 C.3       1 4BO901      0.0000 
     18 O17         7.1020   38.7970   69.3860 O.3       1 4BO901      0.0000 
     19 C16         9.7270   39.9390   67.0250 C.ar      1 4BO901      0.0000 
     20 N9         10.4280   42.1990   66.4790 N.am      1 4BO901      0.0000 
     21 O8         11.9510   40.6720   65.6950 O.2       1 4BO901      0.0000 
     22 N6         11.8390   44.2520   65.6990 N.4       1 4BO901      0.0000 
     23 O3         15.7320   41.5240   64.7880 O.co2     1 4BO901      0.0000 
     24 H           8.4224   42.8823   67.9718 H         1 4BO901      0.0000 
     25 H           7.0191   41.4076   69.2908 H         1 4BO901      0.0000 
     26 H           8.7888   39.0848   71.3909 H         1 4BO901      0.0000 
     27 H           9.0376   38.0690   67.7167 H         1 4BO901      0.0000 
     28 H          14.3192   43.8374   65.1752 H         1 4BO901      0.0000 
     29 H          14.0269   42.6522   66.4596 H         1 4BO901      0.0000 
     30 H          12.1585   42.9623   64.0856 H         1 4BO901      0.0000 
     31 H           8.0432   35.0332   70.5397 H         1 4BO901      0.0000 
     32 H           9.2855   34.3867   72.5195 H         1 4BO901      0.0000 
     33 H          10.2786   36.0883   73.9389 H         1 4BO901      0.0000 
     34 H          10.0310   38.4343   73.3750 H         1 4BO901      0.0000 
     35 H           6.7561   36.7082   69.4679 H         1 4BO901      0.0000 
     36 H           8.2869   37.1765   68.7081 H         1 4BO901      0.0000 
     37 H          10.4576   39.5448   66.4154 H         1 4BO901      0.0000 
     38 H          10.2134   43.2476   66.5492 H         1 4BO901      0.0000 
     39 H          12.0065   44.3266   66.6820 H         1 4BO901      0.0000 
     40 H          12.2832   45.0361   65.2656 H         1 4BO901      0.0000 
     41 H          10.8545   44.3593   65.5605 H         1 4BO901      0.0000 
@<TRIPOS>BOND
     1    2    1 ar   
     2    4    1 ar   
     3   24    1 1    
     4    5    2 ar   
     5   25    2 1    
     6   15    3 ar   
     7   16    3 ar   
     8   26    3 1    
     9   19    4 ar   
    10   20    4 1    
    11    6    5 ar   
    12   18    5 1    
    13   19    6 ar   
    14   27    6 1    
    15    8    7 ar   
    16    9    8 1    
    17   23    8 ar   
    18   11    9 1    
    19   28    9 1    
    20   29    9 1    
    21   11   10 1    
    22   20   10 am   
    23   21   10 2    
    24   22   11 1    
    25   30   11 1    
    26   13   12 ar   
    27   16   12 ar   
    28   31   12 1    
    29   14   13 ar   
    30   32   13 1    
    31   15   14 ar   
    32   33   14 1    
    33   34   15 1    
    34   17   16 1    
    35   18   17 1    
    36   35   17 1    
    37   36   17 1    
    38   37   19 1    
    39   38   20 1    
    40   39   22 1    
    41   40   22 1    
    42   41   22 1    
@<TRIPOS>SUBSTRUCTURE
     1 4BO901      1 GROUP   
@<TRIPOS>SET

