#    Name: 3w2n_ROD_1_INTS_M
#    Modification time : Tue Mar 25 02:05:32 2014

@<TRIPOS>MOLECULE
3w2n_ROD_1_INTS_M
   63     0    12     0     0
SMALL
NO_CHARGES


@<TRIPOS>ATOM
      1 NZ          8.3535   18.4930   15.3030 N.4       3 LYC4        0.0000 
      2 NZ          6.9540   18.1930   14.5960 N.4      11 LYL4        0.0000 
      3 NZ          9.7530   18.7930   16.0100 N.4       7 LYP4        0.0000 
      4 N           6.6975   19.4510   13.9575 N.am      2 SEC2        0.0000 
      5 N           6.9540   18.1930   14.5960 N.am     10 SEL2        0.0000 
      6 N           6.4410   20.7090   13.3190 N.am      6 SEP2        0.0000 
      7 N           8.3535   18.4930   15.3030 N.am      2 SEC2        0.0000 
      8 N           9.7530   18.7930   16.0100 N.am      6 SEP2        0.0000 
      9 N           4.4600   18.8020   14.4415 N.am      2 SEC2        0.0000 
     10 N           5.0220   17.4000   14.5390 N.am     10 SEL2        0.0000 
     11 N           3.8980   20.2040   14.3440 N.am      6 SEP2        0.0000 
     12 CA          7.9035   15.6525   16.3120 C.3       4 GLC5        0.0000 
     13 CA          6.7340   15.8620   14.5780 C.3      12 GLL5        0.0000 
     14 CA          9.0730   15.4430   18.0460 C.3       8 GLP5        0.0000 
     15 O           5.3425   15.3750   16.5950 O.2       1 ALC1        0.0000 
     16 O           6.2770   14.9810   15.5920 O.2       9 ALL1        0.0000 
     17 O           4.4080   15.7690   17.5980 O.2       5 ALP1        0.0000 
     18 N           5.5390   13.3515   17.6525 N.am      2 SEC2        0.0000 
     19 N           6.3200   12.8610   16.5370 N.am     10 SEL2        0.0000 
     20 N           4.7580   13.8420   18.7680 N.am      6 SEP2        0.0000 
     21 N           5.6525   11.6580   16.1535 N.am      2 SEC2        0.0000 
     22 N           4.9850   10.4550   15.7700 N.am      6 SEP2        0.0000 
     23 O           7.9365   11.9330   14.5960 O.2       1 ALC1        0.0000 
     24 O           7.5950   13.2190   14.6530 O.2       9 ALL1        0.0000 
     25 O           8.2780   10.6470   14.5390 O.2       5 ALP1        0.0000 
     26 N          10.0680   13.7995   11.9660 N.am      2 SEC2        0.0000 
     27 N           8.7280   13.5790   12.7540 N.am     10 SEL2        0.0000 
     28 N          11.4080   14.0200   11.1780 N.am      6 SEP2        0.0000 
     29 N           9.1990   12.1755   12.7965 N.am      2 SEC2        0.0000 
     30 N           9.6700   10.7720   12.8390 N.am      6 SEP2        0.0000 
     31 CA          9.0830   17.6045   12.3155 C.3       4 GLC5        0.0000 
     32 CA          7.8770   16.2350   12.4860 C.3      12 GLL5        0.0000 
     33 CA         10.2890   18.9740   12.1450 C.3       8 GLP5        0.0000 
     34 CA          8.4315   15.6390    7.7695 C.3       4 GLC5        0.0000 
     35 CA          8.5490   16.7280    9.2830 C.3      12 GLL5        0.0000 
     36 CA          8.3140   14.5500    6.2560 C.3       8 GLP5        0.0000 
     37 CA          4.4750   17.0395    8.0370 C.3       4 GLC5        0.0000 
     38 CA          4.2840   17.0020   10.1820 C.3      12 GLL5        0.0000 
     39 CA          4.6660   17.0770    5.8920 C.3       8 GLP5        0.0000 
     40 CA          9.1227   17.8682   10.9097 C.3       4 GLC5        0.0000 
     41 CA          7.3640   16.7970   10.0660 C.3      12 GLL5        0.0000 
     42 CA          7.0393   16.8027    7.8022 C.3       4 GLC5        0.0000 
     43 CA          6.1220   16.8430    5.9300 C.3       8 GLP5        0.0000 
     44 CA         10.5380   16.9668    8.6798 C.3       4 GLC5        0.0000 
     45 CA          8.9010   17.6830    8.2780 C.3      12 GLL5        0.0000 
     46 CA         12.3510   16.7280    8.5790 C.3       8 GLP5        0.0000 
     47 CA          9.4138   19.3785    9.2383 C.3       4 GLC5        0.0000 
     48 CA         10.3630   20.5720   10.3450 C.3       8 GLP5        0.0000 
     49 CA          8.9503   16.7065    6.8148 C.3       4 GLC5        0.0000 
     50 CA          8.0280   18.6870    7.9850 C.3      12 GLL5        0.0000 
     51 CA          9.4360   15.2280    5.4980 C.3       8 GLP5        0.0000 
     52 CA          7.2933   17.5140    7.0307 C.3       4 GLC5        0.0000 
     53 CA          7.2408   19.5132    6.4797 C.3       4 GLC5        0.0000 
     54 CA          7.0380   20.3040    4.5980 C.3       8 GLP5        0.0000 
     55 CA          7.5188   19.4720   10.5152 C.3       4 GLC5        0.0000 
     56 CA          6.8590   18.7580    8.7380 C.3      12 GLL5        0.0000 
     57 CA          8.3640   20.6430   11.7840 C.3       8 GLP5        0.0000 
     58 CA          6.3978   17.5720    7.5883 C.3       4 GLC5        0.0000 
     59 CA          4.4579   19.7948   11.7796 C.3       4 GLC5        0.0000 
     60 CA          5.2020   18.0350   10.4250 C.3      12 GLL5        0.0000 
     61 CA          4.0190   20.9410   13.0500 C.3       8 GLP5        0.0000 
     62 CA          6.6304   19.6457   11.1466 C.3       4 GLC5        0.0000 
     63 CA          5.3290   18.1150   11.7120 C.3      12 GLL5        0.0000 
@<TRIPOS>BOND
@<TRIPOS>SUBSTRUCTURE
     1 ALC1       15 GROUP        1 X    ALC  0     ROOT ALC X 1
     2 SEC2        4 GROUP        1 X    SEC  0     **** SEC X 2
     3 LYC4        1 GROUP        1 X    LYC  0     **** LYC X 4
     4 GLC5       12 GROUP        1 X    GLC  0     **** GLC X 6
     5 ALP1       17 GROUP        1 Y    ALP  0     ROOT ALP Y 8
     6 SEP2        6 GROUP        1 Y    SEP  0     **** SEP Y 9
     7 LYP4        3 GROUP        1 Y    LYP  0     **** LYP Y 11
     8 GLP5       14 GROUP        1 Y    GLP  0     **** GLP Y 13
     9 ALL1       16 GROUP        1 Z    ALL  0     ROOT ALL Z 15
    10 SEL2        5 GROUP        1 Z    SEL  0     **** SEL Z 16
    11 LYL4        2 GROUP        1 Z    LYL  0     **** LYL Z 18
    12 GLL5       13 GROUP        1 Z    GLL  0     **** GLL Z 20
@<TRIPOS>SET

