#    Name: 3w2n_ROD_1_ligand
#    Modification time : Tue Mar 25 02:05:32 2014

@<TRIPOS>MOLECULE
3w2n_ROD_1_ligand
   33    34     1     0     0
SMALL
NO_CHARGES


@<TRIPOS>ATOM
      1 OAA         6.9540   18.1930   14.5960 O.co2     1 ROD401      0.0000 
      2 CAP         6.2110   17.2050   14.5780 C.2       1 ROD401      0.0000 
      3 OAD         5.0220   17.4000   14.5390 O.co2     1 ROD401      0.0000 
      4 CAS         6.7340   15.8620   14.5780 C.2       1 ROD401      0.0000 
      5 NAN         6.2770   14.9810   15.5920 N.am      1 ROD401      0.0000 
      6 CAU         6.7000   13.6440   15.6670 C.2       1 ROD401      0.0000 
      7 OAB         6.3200   12.8610   16.5370 O.2       1 ROD401      0.0000 
      8 NAO         7.5950   13.2190   14.6530 N.am      1 ROD401      0.0000 
      9 CAV         7.9730   14.0510   13.5950 C.2       1 ROD401      0.0000 
     10 OAC         8.7280   13.5790   12.7540 O.2       1 ROD401      0.0000 
     11 CAT         7.5110   15.3950   13.5390 C.2       1 ROD401      0.0000 
     12 CAM         7.8770   16.2350   12.4860 C.3       1 ROD401      0.0000 
     13 CAL         7.1830   15.7490   11.1150 C.3       1 ROD401      0.0000 
     14 CAQ         7.3640   16.7970   10.0660 C.ar      1 ROD401      0.0000 
     15 CAJ         8.5490   16.7280    9.2830 C.ar      1 ROD401      0.0000 
     16 CAH         8.9010   17.6830    8.2780 C.ar      1 ROD401      0.0000 
     17 CAI         8.0280   18.6870    7.9850 C.ar      1 ROD401      0.0000 
     18 CAK         6.8590   18.7580    8.7380 C.ar      1 ROD401      0.0000 
     19 CAR         6.4880   17.8440    9.7550 C.ar      1 ROD401      0.0000 
     20 CAW         5.2020   18.0350   10.4250 C.3       1 ROD401      0.0000 
     21 FAF         5.3290   18.1150   11.7120 F         1 ROD401      0.0000 
     22 FAG         4.5280   19.2220    9.9500 F         1 ROD401      0.0000 
     23 FAE         4.2840   17.0020   10.1820 F         1 ROD401      0.0000 
     24 H           5.6090   15.3420   16.2978 H         1 ROD401      0.0000 
     25 H           7.9784   12.2552   14.7053 H         1 ROD401      0.0000 
     26 H           8.9526   16.2389   12.2769 H         1 ROD401      0.0000 
     27 H           7.5554   17.2742   12.6172 H         1 ROD401      0.0000 
     28 H           6.1397   15.5846   11.3346 H         1 ROD401      0.0000 
     29 H           7.6595   14.8225   10.8354 H         1 ROD401      0.0000 
     30 H           9.2056   15.9315    9.4496 H         1 ROD401      0.0000 
     31 H           9.7998   17.5869    7.8053 H         1 ROD401      0.0000 
     32 H           8.2092   19.3628    7.2505 H         1 ROD401      0.0000 
     33 H           6.1876   19.5549    8.5423 H         1 ROD401      0.0000 
@<TRIPOS>BOND
     1    2    1 ar   
     2    3    2 ar   
     3    4    2 1    
     4    5    4 1    
     5   11    4 2    
     6    6    5 am   
     7   24    5 1    
     8    7    6 2    
     9    8    6 am   
    10    9    8 am   
    11   25    8 1    
    12   10    9 2    
    13   11    9 1    
    14   12   11 1    
    15   13   12 1    
    16   26   12 1    
    17   27   12 1    
    18   14   13 1    
    19   28   13 1    
    20   29   13 1    
    21   15   14 ar   
    22   19   14 ar   
    23   16   15 ar   
    24   30   15 1    
    25   17   16 ar   
    26   31   16 1    
    27   18   17 ar   
    28   32   17 1    
    29   19   18 ar   
    30   33   18 1    
    31   20   19 1    
    32   21   20 1    
    33   22   20 1    
    34   23   20 1    
@<TRIPOS>SUBSTRUCTURE
     1 ROD401      1 GROUP   
@<TRIPOS>SET

