#    Name: 2ym3_YM3_1_INTS_M
#    Modification time : Tue Mar 25 09:29:08 2014

@<TRIPOS>MOLECULE
2ym3_YM3_1_INTS_M
   46     0     9     0     0
SMALL
NO_CHARGES


@<TRIPOS>ATOM
      1 CA         21.7030    2.5380    7.1230 C.3       3 GLC5        0.0000 
      2 CA         22.2250    0.5420    7.6120 C.3       9 GLL5        0.0000 
      3 CA         21.1810    4.5340    6.6340 C.3       6 GLP5        0.0000 
      4 CA         17.7605    2.9895    8.6415 C.3       3 GLC5        0.0000 
      5 CA         17.5540    0.9580    8.6710 C.3       9 GLL5        0.0000 
      6 CA         17.9670    5.0210    8.6120 C.3       6 GLP5        0.0000 
      7 CA         15.2435    2.4310    7.9245 C.3       3 GLC5        0.0000 
      8 CA         15.3450    0.9100    9.5380 C.3       9 GLL5        0.0000 
      9 CA         15.1420    3.9520    6.3110 C.3       6 GLP5        0.0000 
     10 O          13.7360    2.5865    9.1300 O.2       1 ALC1        0.0000 
     11 O          14.0500    1.3100    9.7840 O.2       7 ALL1        0.0000 
     12 O          13.4220    3.8630    8.4760 O.2       4 ALP1        0.0000 
     13 CA         14.5000   -1.8670    9.0840 C.3       3 GLC5        0.0000 
     14 CA         15.5780   -0.2830   10.1910 C.3       9 GLL5        0.0000 
     15 CA         13.4220   -3.4510    7.9770 C.3       6 GLP5        0.0000 
     16 CA         19.3920   -1.6020   13.4230 C.3       3 GLC5        0.0000 
     17 CA         17.7960   -2.2210   11.9980 C.3       9 GLL5        0.0000 
     18 CA         20.9880   -0.9830   14.8480 C.3       6 GLP5        0.0000 
     19 CA         18.0110   -0.4630   13.0785 C.3       3 GLC5        0.0000 
     20 CA         18.2260    1.2950   14.1590 C.3       6 GLP5        0.0000 
     21 CA         17.0405   -6.1260   10.4240 C.3       3 GLC5        0.0000 
     22 CA         16.5880   -4.5080   10.9810 C.3       9 GLL5        0.0000 
     23 CA         17.4930   -7.7440    9.8670 C.3       6 GLP5        0.0000 
     24 OD1        20.1205   -4.1555   13.4920 O.co2     2 ASC3        0.0000 
     25 OD1        20.1940   -5.1490   11.9390 O.co2     8 ASL3        0.0000 
     26 OD1        20.0470   -3.1620   15.0450 O.co2     5 ASP3        0.0000 
     27 O          19.8090   -5.5490   10.4845 O.2       1 ALC1        0.0000 
     28 O          20.1940   -5.1490   11.9390 O.2       7 ALL1        0.0000 
     29 O          19.4240   -5.9490    9.0300 O.2       4 ALP1        0.0000 
     30 CA         22.1373    1.0308    9.6495 C.3       3 GLC5        0.0000 
     31 CA         21.4860   -0.4410    8.4780 C.3       9 GLL5        0.0000 
     32 CA         22.4190    2.0110   11.2540 C.3       6 GLP5        0.0000 
     33 CA         17.0338   -0.8438    7.6355 C.3       3 GLC5        0.0000 
     34 CA         17.8490   -0.2430    9.3050 C.3       9 GLL5        0.0000 
     35 CA         16.3660   -2.0450    6.2830 C.3       6 GLP5        0.0000 
     36 CA         14.2302    0.2298    8.3048 C.3       3 GLC5        0.0000 
     37 CA         12.9990    0.1460    6.7450 C.3       6 GLP5        0.0000 
     38 CA         16.2885   -1.3145    8.2103 C.3       3 GLC5        0.0000 
     39 CA         16.9222   -3.9510    9.0220 C.3       3 GLC5        0.0000 
     40 CA         16.0950   -3.1360   10.6730 C.3       9 GLL5        0.0000 
     41 CA         17.5030   -4.0800    7.2170 C.3       6 GLP5        0.0000 
     42 CA         14.8868   -4.3105    9.7535 C.3       3 GLC5        0.0000 
     43 CA         13.4320   -4.7990    8.6800 C.3       6 GLP5        0.0000 
     44 CA         16.2736    0.9519   11.2656 C.3       3 GLC5        0.0000 
     45 CA         16.8440   -0.8850   10.0840 C.3       9 GLL5        0.0000 
     46 CA         16.1800    1.8790   12.8310 C.3       6 GLP5        0.0000 
@<TRIPOS>BOND
@<TRIPOS>SUBSTRUCTURE
     1 ALC1       10 GROUP        1 X    ALC  0     ROOT ALC X 1
     2 ASC3       24 GROUP        1 X    ASC  0     **** ASC X 3
     3 GLC5        1 GROUP        1 X    GLC  0     **** GLC X 6
     4 ALP1       12 GROUP        1 Y    ALP  0     ROOT ALP Y 8
     5 ASP3       26 GROUP        1 Y    ASP  0     **** ASP Y 10
     6 GLP5        3 GROUP        1 Y    GLP  0     **** GLP Y 13
     7 ALL1       11 GROUP        1 Z    ALL  0     ROOT ALL Z 15
     8 ASL3       25 GROUP        1 Z    ASL  0     **** ASL Z 17
     9 GLL5        2 GROUP        1 Z    GLL  0     **** GLL Z 20
@<TRIPOS>SET

