#    Name: 2ym3_YM3_1_ligand
#    Modification time : Tue Mar 25 09:29:08 2014

@<TRIPOS>MOLECULE
2ym3_YM3_1_ligand
   43    45     1     0     0
SMALL
NO_CHARGES


@<TRIPOS>ATOM
      1 CAC        22.2250    0.5420    7.6120 C.3       1 YM31271     0.0000 
      2 CAB        21.4860   -0.4410    8.4780 C.3       1 YM31271     0.0000 
      3 CAQ        19.2330   -0.8340    9.1380 C.2       1 YM31271     0.0000 
      4 CAR        17.8490   -0.2430    9.3050 C.ar      1 YM31271     0.0000 
      5 CAG        17.5540    0.9580    8.6710 C.ar      1 YM31271     0.0000 
      6 NAN        16.3360    1.5180    8.7870 N.pl3     1 YM31271     0.0000 
      7 CAU        15.3450    0.9100    9.5380 C.ar      1 YM31271     0.0000 
      8 NAO        14.0500    1.3100    9.7840 N.pl3     1 YM31271     0.0000 
      9 NAM        13.4570    0.3710   10.5890 N.2       1 YM31271     0.0000 
     10 CAH        14.3570   -0.6000   10.8510 C.2       1 YM31271     0.0000 
     11 CAT        15.5780   -0.2830   10.1910 C.ar      1 YM31271     0.0000 
     12 CAS        16.8440   -0.8850   10.0840 C.ar      1 YM31271     0.0000 
     13 NAV        17.1060   -2.1610   10.7740 N.3       1 YM31271     0.0000 
     14 CAL        17.7960   -2.2210   11.9980 C.3       1 YM31271     0.0000 
     15 CAK        16.0950   -3.1360   10.6730 C.3       1 YM31271     0.0000 
     16 CAJ        16.5880   -4.5080   10.9810 C.3       1 YM31271     0.0000 
     17 OAP        17.2620   -4.5720   12.2070 O.3       1 YM31271     0.0000 
     18 CAW        18.2610   -3.5950   12.3590 C.3       1 YM31271     0.0000 
     19 CAI        19.5010   -3.9670   11.5570 C.3       1 YM31271     0.0000 
     20 NAA        20.1940   -5.1490   11.9390 N.4       1 YM31271     0.0000 
     21 O03        20.3480   -0.0030    9.1070 O.3       1 YM31271     0.0000 
     22 O05        19.3760   -2.0390    9.0040 O.2       1 YM31271     0.0000 
     23 H          22.2457   -0.8478    9.2232 H         1 YM31271     0.0000 
     24 H          21.2793   -1.3521    7.8261 H         1 YM31271     0.0000 
     25 H          18.2984    1.4152    8.1033 H         1 YM31271     0.0000 
     26 H          16.1193    2.4204    8.3121 H         1 YM31271     0.0000 
     27 H          13.6393    2.1043    9.4502 H         1 YM31271     0.0000 
     28 H          14.2369   -1.3829   11.3830 H         1 YM31271     0.0000 
     29 H          17.1623   -1.8438   12.8394 H         1 YM31271     0.0000 
     30 H          18.6906   -1.5492   11.9923 H         1 YM31271     0.0000 
     31 H          15.6488   -3.1515    9.6518 H         1 YM31271     0.0000 
     32 H          15.2472   -2.9122   11.3610 H         1 YM31271     0.0000 
     33 H          17.2411   -4.8344   10.1387 H         1 YM31271     0.0000 
     34 H          15.7136   -5.1991   10.9594 H         1 YM31271     0.0000 
     35 H          18.5925   -3.5577   13.4234 H         1 YM31271     0.0000 
     36 H          20.1900   -3.0719   11.5846 H         1 YM31271     0.0000 
     37 H          19.1867   -4.0194   10.4730 H         1 YM31271     0.0000 
     38 H          22.5283    1.3404    8.1321 H         1 YM31271     0.0000 
     39 H          23.0395    0.1343    7.1993 H         1 YM31271     0.0000 
     40 H          21.6546    0.8794    6.8632 H         1 YM31271     0.0000 
     41 H          20.2320   -5.8145   11.1936 H         1 YM31271     0.0000 
     42 H          21.1377   -4.9558   12.2079 H         1 YM31271     0.0000 
     43 H          19.7552   -5.6025   12.7147 H         1 YM31271     0.0000 
@<TRIPOS>BOND
     1    2    1 1    
     2   38    1 1    
     3   39    1 1    
     4   40    1 1    
     5   21    2 1    
     6   23    2 1    
     7   24    2 1    
     8    4    3 1    
     9   21    3 1    
    10   22    3 2    
    11    5    4 ar   
    12   12    4 ar   
    13    6    5 ar   
    14   25    5 1    
    15    7    6 ar   
    16   26    6 1    
    17    8    7 1    
    18   11    7 ar   
    19    9    8 1    
    20   27    8 1    
    21   10    9 2    
    22   11   10 1    
    23   28   10 1    
    24   12   11 ar   
    25   13   12 1    
    26   14   13 1    
    27   15   13 1    
    28   18   14 1    
    29   29   14 1    
    30   30   14 1    
    31   16   15 1    
    32   31   15 1    
    33   32   15 1    
    34   17   16 1    
    35   33   16 1    
    36   34   16 1    
    37   18   17 1    
    38   19   18 1    
    39   35   18 1    
    40   20   19 1    
    41   36   19 1    
    42   37   19 1    
    43   41   20 1    
    44   42   20 1    
    45   43   20 1    
@<TRIPOS>SUBSTRUCTURE
     1 YM31271     1 GROUP   
@<TRIPOS>SET

