#    Name: 1XQK_2_CAVITY_N1_ALL.mol2
#    Modification time : Mon Mar 10 19:04:52 2014

@<TRIPOS>MOLECULE
1XQK_2_CAVITY_N1_ALL.mol2
   95     0     7     0     0
SMALL
NO_CHARGES


@<TRIPOS>ATOM
      1 OG         99.3236  -25.4843   52.2558 O.2       1 SER1        0.0000 
      2 N          92.5181  -26.0401   55.7020 N.2       2 ALA2        0.0000 
      3 CZ         97.2403  -25.7979   52.0084 C.ar      5 PHE5        0.0000 
      4 CZ         98.4208  -25.7374   51.0850 C.ar      5 PHE5        0.0000 
      5 OD1        99.6013  -25.6768   50.1616 O.3       3 ASP3        0.0000 
      6 NZ         90.4348  -26.3537   55.4546 N.2       4 LYS4        0.0000 
      7 NZ         91.6153  -26.2932   54.5312 N.2       4 LYS4        0.0000 
      8 CZ         92.7958  -26.2326   53.6078 C.ar      5 PHE5        0.0000 
      9 CZ         93.9764  -26.1721   52.6844 C.ar      5 PHE5        0.0000 
     10 CZ         95.1569  -26.1115   51.7610 C.ar      5 PHE5        0.0000 
     11 CZ         96.3374  -26.0510   50.8376 C.ar      5 PHE5        0.0000 
     12 CZ         97.5179  -25.9904   49.9142 C.ar      5 PHE5        0.0000 
     13 OD1        98.6985  -25.9299   48.9908 O.3       3 ASP3        0.0000 
     14 OD1        99.8790  -25.8694   48.0674 O.3       3 ASP3        0.0000 
     15 O          89.5319  -26.6068   54.2838 O.2       2 ALA2        0.0000 
     16 DU         90.7125  -26.5462   53.3604 H         7 CUB7        0.0000 
     17 CA         91.8930  -26.4857   52.4370 C.3       6 GLY6        0.0000 
     18 O          97.7956  -26.1830   47.8199 O.2       2 ALA2        0.0000 
     19 O          98.9762  -26.1224   46.8965 O.2       2 ALA2        0.0000 
     20 NZ        100.1567  -26.0619   45.9731 N.2       4 LYS4        0.0000 
     21 CA        101.3372  -26.0013   45.0497 C.3       6 GLY6        0.0000 
     22 CA         89.8096  -26.7993   52.1896 C.3       6 GLY6        0.0000 
     23 O          99.2538  -26.3150   44.8023 O.2       2 ALA2        0.0000 
     24 N         100.4344  -26.2544   43.8789 N.2       2 ALA2        0.0000 
     25 CA         98.2177  -24.2601   50.9223 C.3       6 GLY6        0.0000 
     26 CA         93.7733  -24.6948   52.5217 C.3       6 GLY6        0.0000 
     27 OG         94.9538  -24.6343   51.5983 O.2       1 SER1        0.0000 
     28 OG         96.1344  -24.5737   50.6749 O.2       1 SER1        0.0000 
     29 CA         97.3149  -24.5132   49.7514 C.3       6 GLY6        0.0000 
     30 CA         90.5094  -25.0690   53.1977 C.3       6 GLY6        0.0000 
     31 CA         91.6899  -25.0084   52.2743 C.3       6 GLY6        0.0000 
     32 CZ         92.8705  -24.9479   51.3508 C.ar      5 PHE5        0.0000 
     33 CZ         94.0510  -24.8874   50.4274 C.ar      5 PHE5        0.0000 
     34 CZ         95.2315  -24.8268   49.5040 C.ar      5 PHE5        0.0000 
     35 CA         97.5926  -24.7057   47.6572 C.3       6 GLY6        0.0000 
     36 NZ         98.7731  -24.6452   46.7338 N.2       4 LYS4        0.0000 
     37 O          89.6066  -25.3221   52.0268 O.2       2 ALA2        0.0000 
     38 CA         90.7871  -25.2615   51.1034 C.3       6 GLY6        0.0000 
     39 CZ         91.9676  -25.2010   50.1800 C.ar      5 PHE5        0.0000 
     40 CA         92.6674  -23.4706   51.1881 C.3       6 GLY6        0.0000 
     41 N          91.7646  -23.7237   50.0173 N.2       2 ALA2        0.0000 
     42 N         102.2938  -29.7950   50.8972 N.2       2 ALA2        0.0000 
     43 O          95.4884  -30.3508   54.3434 O.2       2 ALA2        0.0000 
     44 O         102.5715  -29.9875   48.8030 O.2       2 ALA2        0.0000 
     45 O          94.5855  -30.6039   53.1726 O.2       2 ALA2        0.0000 
     46 O         101.6687  -30.2406   47.6321 O.2       2 ALA2        0.0000 
     47 N         101.8131  -28.1252   52.8287 N.2       2 ALA2        0.0000 
     48 CA        102.9936  -28.0647   51.9053 C.3       6 GLY6        0.0000 
     49 CA         99.7297  -28.4388   52.5813 C.3       6 GLY6        0.0000 
     50 CA        100.9103  -28.3783   51.6579 C.3       6 GLY6        0.0000 
     51 CA        102.0908  -28.3177   50.7345 C.3       6 GLY6        0.0000 
     52 CA        103.2713  -28.2572   49.8111 C.3       6 GLY6        0.0000 
     53 NZ         94.1048  -28.9341   55.1041 N.2       4 LYS4        0.0000 
     54 OG         95.2853  -28.8735   54.1807 O.2       1 SER1        0.0000 
     55 OG         96.4658  -28.8130   53.2573 O.2       1 SER1        0.0000 
     56 O          97.6464  -28.7524   52.3339 O.2       2 ALA2        0.0000 
     57 N          98.8269  -28.6919   51.4105 N.2       2 ALA2        0.0000 
     58 O         101.1879  -28.5708   49.5636 O.2       2 ALA2        0.0000 
     59 CA        102.3685  -28.5103   48.6402 C.3       6 GLY6        0.0000 
     60 NZ         93.2019  -29.1871   53.9333 N.2       4 LYS4        0.0000 
     61 CZ         94.3825  -29.1266   53.0099 C.ar      5 PHE5        0.0000 
     62 CZ         95.5630  -29.0661   52.0865 C.ar      5 PHE5        0.0000 
     63 O         100.2851  -28.8239   48.3928 O.2       2 ALA2        0.0000 
     64 CA        101.4656  -28.7633   47.4694 C.3       6 GLY6        0.0000 
     65 NZ         91.1186  -29.5008   53.6859 N.2       4 LYS4        0.0000 
     66 CZ         92.2991  -29.4402   52.7624 C.ar      5 PHE5        0.0000 
     67 OG        101.6100  -26.6479   52.6660 O.2       1 SER1        0.0000 
     68 CA        102.7906  -26.5874   51.7426 C.3       6 GLY6        0.0000 
     69 OG         98.3461  -27.0221   53.3420 O.2       1 SER1        0.0000 
     70 OG         99.5267  -26.9616   52.4186 O.2       1 SER1        0.0000 
     71 OG        100.7072  -26.9010   51.4951 O.2       1 SER1        0.0000 
     72 CA        101.8877  -26.8405   50.5717 C.3       6 GLY6        0.0000 
     73 CA        103.0683  -26.7799   49.6483 C.3       6 GLY6        0.0000 
     74 OG         93.9017  -27.4568   54.9414 O.2       1 SER1        0.0000 
     75 OG         97.4433  -27.2752   52.1711 O.2       1 SER1        0.0000 
     76 N          98.6238  -27.2146   51.2477 N.2       2 ALA2        0.0000 
     77 N          99.8044  -27.1541   50.3243 N.2       2 ALA2        0.0000 
     78 CA        100.9849  -27.0935   49.4009 C.3       6 GLY6        0.0000 
     79 CA        102.1654  -27.0330   48.4775 C.3       6 GLY6        0.0000 
     80 NZ         91.8184  -27.7704   54.6940 N.2       4 LYS4        0.0000 
     81 NZ         92.9989  -27.7099   53.7705 N.2       4 LYS4        0.0000 
     82 CZ         94.1794  -27.6493   52.8471 C.ar      5 PHE5        0.0000 
     83 CZ         95.3599  -27.5888   51.9237 C.ar      5 PHE5        0.0000 
     84 CZ         97.7210  -27.4677   50.0769 C.ar      5 PHE5        0.0000 
     85 N          98.9015  -27.4072   49.1535 N.2       2 ALA2        0.0000 
     86 O         100.0821  -27.3466   48.2301 O.2       2 ALA2        0.0000 
     87 CA        101.2626  -27.2861   47.3067 C.3       6 GLY6        0.0000 
     88 NZ         89.7350  -28.0840   54.4465 N.2       4 LYS4        0.0000 
     89 CA         90.9155  -28.0235   53.5231 C.3       6 GLY6        0.0000 
     90 CA         92.0960  -27.9630   52.5997 C.3       6 GLY6        0.0000 
     91 O          97.9987  -27.6602   47.9827 O.2       2 ALA2        0.0000 
     92 O         100.3597  -27.5391   46.1358 O.2       2 ALA2        0.0000 
     93 CA        101.5403  -27.4786   45.2124 C.3       6 GLY6        0.0000 
     94 CA         90.0127  -28.2766   52.3523 C.3       6 GLY6        0.0000 
     95 O         100.6374  -27.7317   44.0416 O.2       2 ALA2        0.0000 
@<TRIPOS>BOND
@<TRIPOS>SUBSTRUCTURE
     1 SER1        1 GROUP   
     2 ALA2        2 GROUP   
     3 ASP3        5 GROUP   
     4 LYS4        6 GROUP   
     5 PHE5        3 GROUP   
     6 GLY6       17 GROUP   
     7 CUB7       16 GROUP   
@<TRIPOS>SET

