#    Name: 1xqk_PMH_2_INTS_M
#    Modification time : Mon Apr  7 15:27:19 2014

@<TRIPOS>MOLECULE
1xqk_PMH_2_INTS_M
   55     0     6     0     0
SMALL
NO_CHARGES


@<TRIPOS>ATOM
      1 N         103.3230  -30.8955   48.8625 N.am      1 SEC2        0.0000 
      2 N         102.4660  -29.8220   49.0030 N.am      5 SEL2        0.0000 
      3 N         104.1800  -31.9690   48.7220 N.am      3 SEP2        0.0000 
      4 N         102.3885  -31.5575   48.8245 N.am      1 SEC2        0.0000 
      5 N         102.3110  -33.2930   48.6460 N.am      3 SEP2        0.0000 
      6 CA        102.8095  -31.2805   45.6020 C.3       2 GLC5        0.0000 
      7 CA        101.8850  -29.8430   46.5870 C.3       6 GLL5        0.0000 
      8 CA        103.7340  -32.7180   44.6170 C.3       4 GLP5        0.0000 
      9 N          99.3150  -28.2715   46.4000 N.am      1 SEC2        0.0000 
     10 N         100.3500  -27.4770   47.1920 N.am      5 SEL2        0.0000 
     11 N          98.2800  -29.0660   45.6080 N.am      3 SEP2        0.0000 
     12 CA        101.3675  -30.3705   51.8830 C.3       2 GLC5        0.0000 
     13 CA        102.4360  -29.3410   50.2890 C.3       6 GLL5        0.0000 
     14 CA        100.2990  -31.4000   53.4770 C.3       4 GLP5        0.0000 
     15 CA        103.9585  -30.1860   50.7450 C.3       2 GLC5        0.0000 
     16 CA        105.4810  -31.0310   51.2010 C.3       4 GLP5        0.0000 
     17 CA        100.9790  -29.5455   52.7555 C.3       2 GLC5        0.0000 
     18 CA        101.6590  -27.6910   52.0340 C.3       6 GLL5        0.0000 
     19 CA        102.5885  -26.7910   53.5545 C.3       2 GLC5        0.0000 
     20 CA        103.5180  -25.8910   55.0750 C.3       4 GLP5        0.0000 
     21 N         100.8240  -24.8335   53.2125 N.am      1 SEC2        0.0000 
     22 N         100.2620  -25.6430   54.0950 N.am      5 SEL2        0.0000 
     23 N         101.3860  -24.0240   52.3300 N.am      3 SEP2        0.0000 
     24 N         100.9180  -25.3545   55.1660 N.am      1 SEC2        0.0000 
     25 N         101.5740  -25.0660   56.2370 N.am      3 SEP2        0.0000 
     26 N          97.5575  -27.1810   54.9055 N.am      1 SEC2        0.0000 
     27 N          98.4800  -27.8930   54.5220 N.am      5 SEL2        0.0000 
     28 N          96.6350  -26.4690   55.2890 N.am      3 SEP2        0.0000 
     29 N         101.2795  -29.4440   55.5900 N.am      1 SEC2        0.0000 
     30 N         101.2690  -28.1410   55.1070 N.am      5 SEL2        0.0000 
     31 N         101.2900  -30.7470   56.0730 N.am      3 SEP2        0.0000 
     32 N         101.6075  -28.1690   56.3610 N.am      1 SEC2        0.0000 
     33 N         101.9460  -28.1970   57.6150 N.am      3 SEP2        0.0000 
     34 N         102.6440  -27.6765   55.2530 N.am      1 SEC2        0.0000 
     35 N         104.0190  -27.2120   55.3990 N.am      3 SEP2        0.0000 
     36 N         101.4215  -26.6035   55.6720 N.am      1 SEC2        0.0000 
     37 N          97.3340  -26.4285   46.5400 N.am      1 SEC2        0.0000 
     38 N          97.8890  -25.5240   47.4260 N.am      5 SEL2        0.0000 
     39 N          96.7790  -27.3330   45.6540 N.am      3 SEP2        0.0000 
     40 N          95.8310  -23.3275   47.9295 N.am      1 SEC2        0.0000 
     41 N          96.2560  -24.4750   48.7480 N.am      5 SEL2        0.0000 
     42 N          95.4060  -22.1800   47.1110 N.am      3 SEP2        0.0000 
     43 CA        103.1138  -28.2317   46.9873 C.3       2 GLC5        0.0000 
     44 CA        101.7980  -29.2400   47.9700 C.3       6 GLL5        0.0000 
     45 CA        104.3860  -26.9220   46.6960 C.3       4 GLP5        0.0000 
     46 CA        100.2262  -30.8152   47.6983 C.3       2 GLC5        0.0000 
     47 CA         98.6110  -32.0890   48.1180 C.3       4 GLP5        0.0000 
     48 CA        102.6815  -27.3505   47.7812 C.3       2 GLC5        0.0000 
     49 CA        100.9410  -27.5050   49.5200 C.3       6 GLL5        0.0000 
     50 CA        101.2558  -25.5813   48.8321 C.3       2 GLC5        0.0000 
     51 CA        101.0130  -28.0530   48.2130 C.3       6 GLL5        0.0000 
     52 CA        101.9460  -24.1350   48.2890 C.3       4 GLP5        0.0000 
     53 CA        103.7629  -27.6966   51.3090 C.3       2 GLC5        0.0000 
     54 CA        101.6810  -28.1740   50.6030 C.3       6 GLL5        0.0000 
     55 CA        105.6670  -27.1690   51.3780 C.3       4 GLP5        0.0000 
@<TRIPOS>BOND
@<TRIPOS>SUBSTRUCTURE
     1 SEC2        1 GROUP        1 X    SEC  0     ROOT SEC X 2
     2 GLC5        6 GROUP        1 X    GLC  0     **** GLC X 6
     3 SEP2        3 GROUP        1 Y    SEP  0     ROOT SEP Y 9
     4 GLP5        8 GROUP        1 Y    GLP  0     **** GLP Y 13
     5 SEL2        2 GROUP        1 Z    SEL  0     ROOT SEL Z 16
     6 GLL5        7 GROUP        1 Z    GLL  0     **** GLL Z 20
@<TRIPOS>SET

