#    Name: 1xqk_PMH_2_ligand
#    Modification time : Mon Apr  7 15:27:19 2014

@<TRIPOS>MOLECULE
1xqk_PMH_2_ligand
   34    35     1     0     0
SMALL
NO_CHARGES


@<TRIPOS>ATOM
      1 N1        102.4660  -29.8220   49.0030 N.ar      1 PMH601      0.0000 
      2 C2        101.7980  -29.2400   47.9700 C.ar      1 PMH601      0.0000 
      3 C2A       101.8850  -29.8430   46.5870 C.3       1 PMH601      0.0000 
      4 C3        101.0130  -28.0530   48.2130 C.ar      1 PMH601      0.0000 
      5 O3        100.3500  -27.4770   47.1920 O.3       1 PMH601      0.0000 
      6 C4        100.9410  -27.5050   49.5200 C.ar      1 PMH601      0.0000 
      7 C4A       100.1540  -26.2760   49.8840 C.3       1 PMH601      0.0000 
      8 C5        101.6810  -28.1740   50.6030 C.ar      1 PMH601      0.0000 
      9 C6        102.4360  -29.3410   50.2890 C.ar      1 PMH601      0.0000 
     10 C5A       101.6590  -27.6910   52.0340 C.3       1 PMH601      0.0000 
     11 O4P       100.3320  -27.9070   52.5250 O.3       1 PMH601      0.0000 
     12 P         100.0940  -27.4110   54.0180 P.3       1 PMH601      0.0000 
     13 O1P       100.2620  -25.6430   54.0950 O.co2     1 PMH601      0.0000 
     14 O2P        98.4800  -27.8930   54.5220 O.co2     1 PMH601      0.0000 
     15 O3P       101.2690  -28.1410   55.1070 O.co2     1 PMH601      0.0000 
     16 N          98.7260  -26.6250   50.0900 N.pl3     1 PMH601      0.0000 
     17 CA         97.7590  -25.6600   49.8430 C.2       1 PMH601      0.0000 
     18 C          97.3340  -25.1860   48.5910 C.2       1 PMH601      0.0000 
     19 O          97.8890  -25.5240   47.4260 O.3       1 PMH601      0.0000 
     20 ND         96.2560  -24.4750   48.7480 N.2       1 PMH601      0.0000 
     21 OG         96.0000  -24.3810   50.1010 O.3       1 PMH601      0.0000 
     22 CB         96.9120  -25.1220   50.7740 C.2       1 PMH601      0.0000 
     23 H         100.2467  -25.5389   49.0817 H         1 PMH601      0.0000 
     24 H         100.5682  -25.8413   50.7978 H         1 PMH601      0.0000 
     25 H         102.9528  -29.8085   51.0446 H         1 PMH601      0.0000 
     26 H         101.9260  -26.6386   52.0466 H         1 PMH601      0.0000 
     27 H         102.3939  -28.2558   52.5997 H         1 PMH601      0.0000 
     28 H          98.5078  -27.5550   50.4035 H         1 PMH601      0.0000 
     29 H          96.9620  -25.2501   51.7165 H         1 PMH601      0.0000 
     30 H         102.8266  -29.8674   46.2510 H         1 PMH601      0.0000 
     31 H         101.5430  -30.7825   46.5693 H         1 PMH601      0.0000 
     32 H         101.3496  -29.3236   45.9210 H         1 PMH601      0.0000 
     33 H         101.0353  -26.9246   46.7174 H         1 PMH601      0.0000 
     34 H          98.7390  -25.9908   47.6701 H         1 PMH601      0.0000 
@<TRIPOS>BOND
     1    2    1 ar   
     2    9    1 ar   
     3    3    2 1    
     4    4    2 ar   
     5   30    3 1    
     6   31    3 1    
     7   32    3 1    
     8    5    4 1    
     9    6    4 ar   
    10   33    5 1    
    11    7    6 1    
    12    8    6 ar   
    13   16    7 1    
    14   23    7 1    
    15   24    7 1    
    16    9    8 ar   
    17   10    8 1    
    18   25    9 1    
    19   11   10 1    
    20   26   10 1    
    21   27   10 1    
    22   12   11 1    
    23   13   12 ar   
    24   14   12 ar   
    25   15   12 ar   
    26   17   16 1    
    27   28   16 1    
    28   18   17 1    
    29   22   17 2    
    30   19   18 1    
    31   20   18 2    
    32   34   19 1    
    33   21   20 1    
    34   22   21 1    
    35   29   22 1    
@<TRIPOS>SUBSTRUCTURE
     1 PMH601      1 GROUP   
@<TRIPOS>SET

