#    Name: 3vhm_NPK_2_INTS_M
#    Modification time : Tue Mar 25 00:52:58 2014

@<TRIPOS>MOLECULE
3vhm_NPK_2_INTS_M
   73     0     9     0     0
SMALL
NO_CHARGES


@<TRIPOS>ATOM
      1 CA        -17.4380    5.1630  -25.4125 C.3       3 GLC5        0.0000 
      2 CA        -17.9340    3.8060  -27.0160 C.3       9 GLL5        0.0000 
      3 CA        -16.9420    6.5200  -23.8090 C.3       6 GLP5        0.0000 
      4 CA        -18.7430    4.2200  -30.6260 C.3       3 GLC5        0.0000 
      5 CA        -18.8370    3.5320  -28.5220 C.3       9 GLL5        0.0000 
      6 CA        -18.6490    4.9080  -32.7300 C.3       6 GLP5        0.0000 
      7 O         -18.4075    2.9200  -31.1200 O.2       1 ALC1        0.0000 
      8 O         -17.9330    2.2350  -30.0650 O.2       7 ALL1        0.0000 
      9 O         -18.8820    3.6050  -32.1750 O.2       4 ALP1        0.0000 
     10 N         -15.8370    2.0060  -32.0865 N.am      2 SEC2        0.0000 
     11 N         -15.8730    1.9810  -30.8060 N.am      8 SEL2        0.0000 
     12 N         -15.8010    2.0310  -33.3670 N.am      5 SEP2        0.0000 
     13 N         -14.8880    2.9350  -30.4220 N.am      2 SEC2        0.0000 
     14 N         -13.9030    3.8890  -30.0380 N.am      5 SEP2        0.0000 
     15 CA        -19.4815    0.9195  -30.1710 C.3       3 GLC5        0.0000 
     16 CA        -18.7270    2.0470  -28.8280 C.3       9 GLL5        0.0000 
     17 CA        -20.2360   -0.2080  -31.5140 C.3       6 GLP5        0.0000 
     18 CA        -17.6540    0.5945  -25.8750 C.3       3 GLC5        0.0000 
     19 CA        -17.7870    1.2560  -27.9250 C.3       9 GLL5        0.0000 
     20 CA        -17.5210   -0.0670  -23.8250 C.3       6 GLP5        0.0000 
     21 CA        -16.7890    1.5025  -25.2985 C.3       3 GLC5        0.0000 
     22 CA        -17.1760    2.1970  -26.8830 C.3       9 GLL5        0.0000 
     23 CA        -16.4020    0.8080  -23.7140 C.3       6 GLP5        0.0000 
     24 CA        -21.3695    2.4860  -28.0480 C.3       3 GLC5        0.0000 
     25 CA        -20.2820    3.9690  -28.5220 C.3       9 GLL5        0.0000 
     26 CA        -22.4570    1.0030  -27.5740 C.3       6 GLP5        0.0000 
     27 CA        -20.3275    5.4245  -31.0915 C.3       3 GLC5        0.0000 
     28 CA        -20.6090    5.2460  -29.2120 C.3       9 GLL5        0.0000 
     29 CA        -20.0460    5.6030  -32.9710 C.3       6 GLP5        0.0000 
     30 CA        -22.9580    4.3115  -29.8895 C.3       3 GLC5        0.0000 
     31 CA        -21.9000    5.7360  -28.6560 C.3       9 GLL5        0.0000 
     32 CA        -24.0160    2.8870  -31.1230 C.3       6 GLP5        0.0000 
     33 CA        -24.1680    8.4570  -28.3980 C.3       3 GLC5        0.0000 
     34 CA        -22.6030    6.8590  -28.4210 C.3       9 GLL5        0.0000 
     35 CA        -25.7330   10.0550  -28.3750 C.3       6 GLP5        0.0000 
     36 N         -24.7700    5.0160  -29.5605 N.am      2 SEC2        0.0000 
     37 N         -24.1460    5.1080  -28.1960 N.am      8 SEL2        0.0000 
     38 N         -25.3940    4.9240  -30.9250 N.am      5 SEP2        0.0000 
     39 N         -24.7375    3.8570  -28.6285 N.am      2 SEC2        0.0000 
     40 N         -25.3290    2.6060  -29.0610 N.am      5 SEP2        0.0000 
     41 CA        -16.4865   -1.4650  -25.1105 C.3       3 GLC5        0.0000 
     42 CA        -15.4520   -2.8630  -26.3960 C.3       9 GLL5        0.0000 
     43 CA        -17.6100   -3.6050  -28.1435 C.3       3 GLC5        0.0000 
     44 CA        -16.0920   -3.9770  -29.4740 C.3       9 GLL5        0.0000 
     45 CA        -19.1280   -3.2330  -26.8130 C.3       6 GLP5        0.0000 
     46 CA        -16.6685   -5.1445  -33.0200 C.3       3 GLC5        0.0000 
     47 CA        -15.7250   -6.7910  -31.8350 C.3       9 GLL5        0.0000 
     48 CA        -17.6120   -3.4980  -34.2050 C.3       6 GLP5        0.0000 
     49 N         -10.1975   -2.1430  -28.1380 N.am      2 SEC2        0.0000 
     50 N         -11.3160   -3.0410  -28.9950 N.am      8 SEL2        0.0000 
     51 N          -9.0790   -1.2450  -27.2810 N.am      5 SEP2        0.0000 
     52 CA        -18.4017    5.6250  -28.0915 C.3       3 GLC5        0.0000 
     53 CA        -18.4180    7.5810  -28.4140 C.3       6 GLP5        0.0000 
     54 CA        -15.8500    4.0983  -26.6292 C.3       3 GLC5        0.0000 
     55 CA        -14.1450    5.1950  -26.3090 C.3       6 GLP5        0.0000 
     56 CA        -20.1540    1.8178  -27.6060 C.3       3 GLC5        0.0000 
     57 CA        -21.5260    0.8460  -26.5370 C.3       6 GLP5        0.0000 
     58 CA        -19.0992    0.7278  -26.9180 C.3       3 GLC5        0.0000 
     59 CA        -20.7170   -0.2710  -26.4320 C.3       6 GLP5        0.0000 
     60 CA        -19.4318    6.0943  -28.6405 C.3       3 GLC5        0.0000 
     61 CA        -20.8417    7.3962  -28.2858 C.3       3 GLC5        0.0000 
     62 CA        -19.4320    8.4950  -28.0330 C.3       6 GLP5        0.0000 
     63 CA        -22.2579    7.1125  -30.3577 C.3       3 GLC5        0.0000 
     64 CA        -22.5870    8.0500  -32.0380 C.3       6 GLP5        0.0000 
     65 CA        -17.3622   -2.9075  -26.9588 C.3       3 GLC5        0.0000 
     66 CA        -15.7410   -2.3010  -27.8130 C.3       9 GLL5        0.0000 
     67 CA        -15.6098   -3.4840  -31.6517 C.3       3 GLC5        0.0000 
     68 CA        -15.2990   -2.5110  -33.3530 C.3       6 GLP5        0.0000 
     69 CA        -12.2957   -5.2348  -31.7458 C.3       3 GLC5        0.0000 
     70 CA        -14.3590   -5.2160  -30.8120 C.3       9 GLL5        0.0000 
     71 CA        -10.7660   -5.6170  -32.9680 C.3       6 GLP5        0.0000 
     72 CA        -14.5623   -3.6818  -31.9383 C.3       3 GLC5        0.0000 
     73 CA        -13.2920   -4.4890  -30.2350 C.3       9 GLL5        0.0000 
@<TRIPOS>BOND
@<TRIPOS>SUBSTRUCTURE
     1 ALC1        7 GROUP        1 X    ALC  0     ROOT ALC X 1
     2 SEC2       10 GROUP        1 X    SEC  0     **** SEC X 2
     3 GLC5        1 GROUP        1 X    GLC  0     **** GLC X 6
     4 ALP1        9 GROUP        1 Y    ALP  0     ROOT ALP Y 8
     5 SEP2       12 GROUP        1 Y    SEP  0     **** SEP Y 9
     6 GLP5        3 GROUP        1 Y    GLP  0     **** GLP Y 13
     7 ALL1        8 GROUP        1 Z    ALL  0     ROOT ALL Z 15
     8 SEL2       11 GROUP        1 Z    SEL  0     **** SEL Z 16
     9 GLL5        2 GROUP        1 Z    GLL  0     **** GLL Z 20
@<TRIPOS>SET

