#    Name: 3vhm_NPK_2_ligand
#    Modification time : Tue Mar 25 00:52:58 2014

@<TRIPOS>MOLECULE
3vhm_NPK_2_ligand
   55    58     1     0     0
SMALL
NO_CHARGES


@<TRIPOS>ATOM
      1 N1        -16.7040    0.9670  -28.8950 N.am      1 NPK1124     0.0000 
      2 S1        -17.9340    3.8060  -27.0160 S.3       1 NPK1124     0.0000 
      3 C2        -18.8370    3.5320  -28.5220 C.3       1 NPK1124     0.0000 
      4 N2        -17.9330    2.2350  -30.0650 N.am      1 NPK1124     0.0000 
      5 C3        -16.7750    1.7660  -29.9910 C.2       1 NPK1124     0.0000 
      6 O3        -15.8730    1.9810  -30.8060 O.2       1 NPK1124     0.0000 
      7 C4        -18.7270    2.0470  -28.8280 C.3       1 NPK1124     0.0000 
      8 C5        -17.7870    1.2560  -27.9250 C.3       1 NPK1124     0.0000 
      9 C6        -17.1760    2.1970  -26.8830 C.3       1 NPK1124     0.0000 
     10 C7        -20.2820    3.9690  -28.5220 C.3       1 NPK1124     0.0000 
     11 C8        -20.6090    5.2460  -29.2120 C.3       1 NPK1124     0.0000 
     12 C9        -21.9000    5.7360  -28.6560 C.3       1 NPK1124     0.0000 
     13 C10       -22.6030    6.8590  -28.4210 C.3       1 NPK1124     0.0000 
     14 C11       -23.8010    6.2570  -27.7590 C.2       1 NPK1124     0.0000 
     15 O11       -24.4760    6.7480  -26.8020 O.co2     1 NPK1124     0.0000 
     16 O12       -24.1460    5.1080  -28.1960 O.co2     1 NPK1124     0.0000 
     17 C30       -15.7600    0.0020  -28.7860 C.2       1 NPK1124     0.0000 
     18 O31       -14.8440   -0.1880  -29.5760 O.2       1 NPK1124     0.0000 
     19 O32       -15.6880   -0.8670  -27.6380 O.3       1 NPK1124     0.0000 
     20 C33       -15.7410   -2.3010  -27.8130 C.3       1 NPK1124     0.0000 
     21 C34       -15.4520   -2.8630  -26.3960 C.3       1 NPK1124     0.0000 
     22 C35       -15.0910   -3.2030  -28.8600 C.ar      1 NPK1124     0.0000 
     23 C36       -16.0920   -3.9770  -29.4740 C.ar      1 NPK1124     0.0000 
     24 C37       -15.7490   -4.9370  -30.4270 C.ar      1 NPK1124     0.0000 
     25 C38       -14.3590   -5.2160  -30.8120 C.ar      1 NPK1124     0.0000 
     26 C39       -13.2920   -4.4890  -30.2350 C.ar      1 NPK1124     0.0000 
     27 C40       -13.6080   -3.5180  -29.2520 C.ar      1 NPK1124     0.0000 
     28 N40       -12.5030   -2.8020  -28.7590 N.pl3     1 NPK1124     0.0000 
     29 O44       -16.5450   -5.7950  -31.1430 O.3       1 NPK1124     0.0000 
     30 C45       -15.7250   -6.7910  -31.8350 C.3       1 NPK1124     0.0000 
     31 O46       -14.3900   -6.2300  -31.7680 O.3       1 NPK1124     0.0000 
     32 O54       -12.7780   -1.8020  -28.1250 O.2       1 NPK1124     0.0000 
     33 O55       -11.3160   -3.0410  -28.9950 O.2       1 NPK1124     0.0000 
     34 H         -18.2498    4.0764  -29.2536 H         1 NPK1124     0.0000 
     35 H         -18.3863    2.7057  -30.8195 H         1 NPK1124     0.0000 
     36 H         -19.6005    1.6207  -29.0266 H         1 NPK1124     0.0000 
     37 H         -18.2076    0.4411  -27.5506 H         1 NPK1124     0.0000 
     38 H         -17.3889    1.9101  -25.8846 H         1 NPK1124     0.0000 
     39 H         -16.1486    2.3979  -27.0523 H         1 NPK1124     0.0000 
     40 H         -20.6317    4.0276  -27.4557 H         1 NPK1124     0.0000 
     41 H         -20.8994    3.1423  -28.9672 H         1 NPK1124     0.0000 
     42 H         -20.7073    5.0755  -30.2776 H         1 NPK1124     0.0000 
     43 H         -19.8283    5.9750  -29.0294 H         1 NPK1124     0.0000 
     44 H         -21.9783    5.0551  -27.5880 H         1 NPK1124     0.0000 
     45 H         -22.7178    4.9280  -29.1933 H         1 NPK1124     0.0000 
     46 H         -22.9319    7.3669  -29.3042 H         1 NPK1124     0.0000 
     47 H         -22.1424    7.5309  -27.7263 H         1 NPK1124     0.0000 
     48 H         -16.9030   -2.5677  -27.8686 H         1 NPK1124     0.0000 
     49 H         -17.0744   -3.8320  -29.2176 H         1 NPK1124     0.0000 
     50 H         -12.3406   -4.6543  -30.5118 H         1 NPK1124     0.0000 
     51 H         -16.0462   -6.8935  -32.8556 H         1 NPK1124     0.0000 
     52 H         -15.7703   -7.7333  -31.3199 H         1 NPK1124     0.0000 
     53 H         -14.5572   -2.5728  -26.0568 H         1 NPK1124     0.0000 
     54 H         -16.1316   -2.5569  -25.7293 H         1 NPK1124     0.0000 
     55 H         -15.4597   -3.8629  -26.3843 H         1 NPK1124     0.0000 
@<TRIPOS>BOND
     1    5    1 am   
     2    8    1 1    
     3   17    1 am   
     4    3    2 1    
     5    9    2 1    
     6    7    3 1    
     7   10    3 1    
     8   34    3 1    
     9    5    4 am   
    10    7    4 1    
    11   35    4 1    
    12    6    5 2    
    13    8    7 1    
    14   36    7 1    
    15    9    8 1    
    16   37    8 1    
    17   38    9 1    
    18   39    9 1    
    19   11   10 1    
    20   40   10 1    
    21   41   10 1    
    22   12   11 1    
    23   42   11 1    
    24   43   11 1    
    25   13   12 1    
    26   44   12 1    
    27   45   12 1    
    28   14   13 1    
    29   46   13 1    
    30   47   13 1    
    31   15   14 ar   
    32   16   14 ar   
    33   18   17 2    
    34   19   17 1    
    35   20   19 1    
    36   21   20 1    
    37   22   20 1    
    38   48   20 1    
    39   53   21 1    
    40   54   21 1    
    41   55   21 1    
    42   23   22 ar   
    43   27   22 ar   
    44   24   23 ar   
    45   49   23 1    
    46   25   24 ar   
    47   29   24 1    
    48   26   25 ar   
    49   31   25 1    
    50   27   26 ar   
    51   50   26 1    
    52   28   27 1    
    53   32   28 2    
    54   33   28 2    
    55   30   29 1    
    56   31   30 1    
    57   51   30 1    
    58   52   30 1    
@<TRIPOS>SUBSTRUCTURE
     1 NPK1124     1 GROUP   
@<TRIPOS>SET

