#    Name: 4ksp_1SU_2_INTS_M
#    Modification time : Tue Mar 25 08:52:45 2014

@<TRIPOS>MOLECULE
4ksp_1SU_2_INTS_M
   93     0     9     0     0
SMALL
NO_CHARGES


@<TRIPOS>ATOM
      1 CA         29.7250  -19.0750    1.3830 C.3       3 GLC5        0.0000 
      2 CA         28.8340  -18.5840   -0.3400 C.3       9 GLL5        0.0000 
      3 CA         30.6160  -19.5660    3.1060 C.3       6 GLP5        0.0000 
      4 CA         29.3545  -20.3620   -1.5115 C.3       3 GLC5        0.0000 
      5 CA         29.8750  -22.1400   -2.6830 C.3       6 GLP5        0.0000 
      6 CA         28.6880  -20.3525    0.8115 C.3       3 GLC5        0.0000 
      7 CA         28.5420  -22.1210    1.9630 C.3       6 GLP5        0.0000 
      8 CA         30.6385  -17.3970    1.5290 C.3       3 GLC5        0.0000 
      9 CA         29.3990  -17.3860    0.0750 C.3       9 GLL5        0.0000 
     10 CA         31.8780  -17.4080    2.9830 C.3       6 GLP5        0.0000 
     11 CA         30.7550  -16.0160   -1.8080 C.3       3 GLC5        0.0000 
     12 CA         31.1860  -14.4370   -0.5420 C.3       9 GLL5        0.0000 
     13 CA         30.3240  -17.5950   -3.0740 C.3       6 GLP5        0.0000 
     14 CA         34.3720  -12.8355   -0.8620 C.3       3 GLC5        0.0000 
     15 CA         32.4250  -13.8560   -0.3990 C.3       9 GLL5        0.0000 
     16 CA         36.3190  -11.8150   -1.3250 C.3       6 GLP5        0.0000 
     17 CA         31.7795  -11.3905    0.7975 C.3       3 GLC5        0.0000 
     18 CA         31.9080  -13.2110    1.8690 C.3       9 GLL5        0.0000 
     19 CA         31.6510   -9.5700   -0.2740 C.3       6 GLP5        0.0000 
     20 CA         34.0210  -10.6125    4.6735 C.3       3 GLC5        0.0000 
     21 CA         32.6630  -11.8950    5.2920 C.3       9 GLL5        0.0000 
     22 CA         35.3790   -9.3300    4.0550 C.3       6 GLP5        0.0000 
     23 CA         26.5665  -15.7965    1.2965 C.3       3 GLC5        0.0000 
     24 CA         26.5800  -15.0500   -0.4160 C.3       9 GLL5        0.0000 
     25 CA         26.5530  -16.5430    3.0090 C.3       6 GLP5        0.0000 
     26 N          27.4380  -21.1545   -1.1755 N.am      2 SEC2        0.0000 
     27 N          26.8070  -19.7220   -1.2460 N.am      8 SEL2        0.0000 
     28 N          28.0690  -22.5870   -1.1050 N.am      5 SEP2        0.0000 
     29 O          32.8530  -11.2025    2.9465 O.2       1 ALC1        0.0000 
     30 O          32.3320  -12.5620    3.0590 O.2       7 ALL1        0.0000 
     31 O          33.3740   -9.8430    2.8340 O.2       4 ALP1        0.0000 
     32 O          24.9630  -21.7535   -1.8415 O.2       1 ALC1        0.0000 
     33 O          24.5940  -20.2420   -2.1040 O.2       7 ALL1        0.0000 
     34 O          25.3320  -23.2650   -1.5790 O.2       4 ALP1        0.0000 
     35 N          30.1905  -13.8525    5.4625 N.am      2 SEC2        0.0000 
     36 N          31.3900  -13.8940    4.7210 N.am      8 SEL2        0.0000 
     37 N          28.9910  -13.8110    6.2040 N.am      5 SEP2        0.0000 
     38 CA         32.8255  -11.1325    0.3060 C.3       3 GLC5        0.0000 
     39 CA         34.0000  -12.6950    0.8860 C.3       9 GLL5        0.0000 
     40 CA         35.2030  -13.1845    2.1815 C.3       3 GLC5        0.0000 
     41 CA         36.4060  -13.6740    3.4770 C.3       6 GLP5        0.0000 
     42 CA         32.8015  -15.5995   12.0130 C.3       3 GLC5        0.0000 
     43 CA         32.5810  -15.3080   10.0170 C.3       9 GLL5        0.0000 
     44 CA         33.0220  -15.8910   14.0090 C.3       6 GLP5        0.0000 
     45 CA         31.3165  -14.4630   11.0905 C.3       3 GLC5        0.0000 
     46 CA         30.0520  -13.6180   12.1640 C.3       6 GLP5        0.0000 
     47 CA         31.0505  -16.2435   10.6765 C.3       3 GLC5        0.0000 
     48 CA         29.5200  -17.1790   11.3360 C.3       6 GLP5        0.0000 
     49 CA         31.1080  -15.5630    8.7155 C.3       3 GLC5        0.0000 
     50 CA         29.6350  -15.8180    7.4140 C.3       6 GLP5        0.0000 
     51 CA         34.5720  -17.2360    8.6040 C.3       3 GLC5        0.0000 
     52 CA         34.1020  -15.3570    8.4790 C.3       9 GLL5        0.0000 
     53 CA         35.0420  -19.1150    8.7290 C.3       6 GLP5        0.0000 
     54 CA         36.0010  -12.9760   10.0585 C.3       3 GLC5        0.0000 
     55 CA         34.4720  -14.2440   10.3220 C.3       9 GLL5        0.0000 
     56 CA         37.5300  -11.7080    9.7950 C.3       6 GLP5        0.0000 
     57 CA         34.8780  -15.3460   11.7320 C.3       3 GLC5        0.0000 
     58 CA         35.2840  -16.4480   13.1420 C.3       6 GLP5        0.0000 
     59 CA         35.2620  -13.2210   11.9780 C.3       3 GLC5        0.0000 
     60 CA         36.0520  -12.1980   13.6340 C.3       6 GLP5        0.0000 
     61 CA         29.7203  -17.7900   -1.6032 C.3       3 GLC5        0.0000 
     62 CA         33.1058  -15.3912    0.0812 C.3       3 GLC5        0.0000 
     63 CA         34.4060  -16.6360    0.6330 C.3       6 GLP5        0.0000 
     64 CA         34.4273  -13.9783    6.8792 C.3       3 GLC5        0.0000 
     65 CA         33.0410  -13.1600    7.4050 C.3       9 GLL5        0.0000 
     66 CA         35.8640  -14.7170    5.6710 C.3       6 GLP5        0.0000 
     67 CA         31.3128  -14.5288    7.7507 C.3       3 GLC5        0.0000 
     68 CA         29.1707  -16.9118   -1.6240 C.3       3 GLC5        0.0000 
     69 CA         28.6670  -16.2180    0.0460 C.3       9 GLL5        0.0000 
     70 CA         34.2278  -13.3440    5.8543 C.3       3 GLC5        0.0000 
     71 CA         30.6683  -11.6645    5.9413 C.3       3 GLC5        0.0000 
     72 CA         28.7450  -11.3580    5.8450 C.3       6 GLP5        0.0000 
     73 CA         27.2310  -14.7223   -2.0370 C.3       3 GLC5        0.0000 
     74 CA         27.4880  -13.8000   -3.6690 C.3       6 GLP5        0.0000 
     75 CA         31.1305  -12.8274   10.5991 C.3       3 GLC5        0.0000 
     76 CA         31.7910  -11.2360    8.9170 C.3       9 GLL5        0.0000 
     77 CA         30.2948  -11.2575    7.0390 C.3       3 GLC5        0.0000 
     78 CA         28.7445  -17.8102   -1.9387 C.3       3 GLC5        0.0000 
     79 CA         26.8130  -17.4300   -0.8110 C.3       9 GLL5        0.0000 
     80 CA         31.3417  -15.6799    2.0699 C.3       3 GLC5        0.0000 
     81 CA         30.3230  -14.4040    0.5230 C.3       9 GLL5        0.0000 
     82 CA         32.0321  -12.3716   -1.0749 C.3       3 GLC5        0.0000 
     83 CA         31.7750  -11.0450   -2.3100 C.3       6 GLP5        0.0000 
     84 CA         35.1208  -12.8742    0.2843 C.3       3 GLC5        0.0000 
     85 CA         32.7730  -13.2500    0.7910 C.3       9 GLL5        0.0000 
     86 CA         36.8550  -12.7760   -0.2700 C.3       6 GLP5        0.0000 
     87 CA         22.8475  -21.4595   -0.8960 C.3       3 GLC5        0.0000 
     88 CA         22.2630  -20.7350   -2.5360 C.3       9 GLL5        0.0000 
     89 CA         23.3390  -21.5000    1.0310 C.3       6 GLP5        0.0000 
     90 CA         23.5971  -20.9748   -4.1305 C.3       3 GLC5        0.0000 
     91 CA         25.0450  -20.7820   -5.2530 C.3       6 GLP5        0.0000 
     92 CA         34.8362  -14.8323    7.3042 C.3       3 GLC5        0.0000 
     93 CA         33.7881  -14.7994    0.8705 C.3       3 GLC5        0.0000 
@<TRIPOS>BOND
@<TRIPOS>SUBSTRUCTURE
     1 ALC1       29 GROUP        1 X    ALC  0     ROOT ALC X 1
     2 SEC2       26 GROUP        1 X    SEC  0     **** SEC X 2
     3 GLC5        1 GROUP        1 X    GLC  0     **** GLC X 6
     4 ALP1       31 GROUP        1 Y    ALP  0     ROOT ALP Y 8
     5 SEP2       28 GROUP        1 Y    SEP  0     **** SEP Y 9
     6 GLP5        3 GROUP        1 Y    GLP  0     **** GLP Y 13
     7 ALL1       30 GROUP        1 Z    ALL  0     ROOT ALL Z 15
     8 SEL2       27 GROUP        1 Z    SEL  0     **** SEL Z 16
     9 GLL5        2 GROUP        1 Z    GLL  0     **** GLL Z 20
@<TRIPOS>SET

