#    Name: 4ksp_1SU_2_ligand
#    Modification time : Tue Mar 25 08:52:45 2014

@<TRIPOS>MOLECULE
4ksp_1SU_2_ligand
   57    61     1     0     0
SMALL
NO_CHARGES


@<TRIPOS>ATOM
      1 C4         32.3140  -12.3560    9.5330 C.ar      1 1SU901      0.0000 
      2 C5         28.8340  -18.5840   -0.3400 C.ar      1 1SU901      0.0000 
      3 C6         29.3990  -17.3860    0.0750 C.ar      1 1SU901      0.0000 
      4 C7         31.1860  -14.4370   -0.5420 C.ar      1 1SU901      0.0000 
      5 C8         32.4250  -13.8560   -0.3990 C.ar      1 1SU901      0.0000 
      6 C10        30.6680  -13.7880    1.7120 C.ar      1 1SU901      0.0000 
      7 C13        32.9400  -13.3190    8.7700 C.ar      1 1SU901      0.0000 
      8 C15        31.9080  -13.2110    1.8690 C.ar      1 1SU901      0.0000 
      9 C17        28.6670  -16.2180    0.0460 C.ar      1 1SU901      0.0000 
     10 C20        25.5800  -19.3940   -1.6070 C.2       1 1SU901      0.0000 
     11 C21        23.3690  -19.7620   -2.5480 C.2       1 1SU901      0.0000 
     12 C22        32.0410  -12.9210    4.3660 C.2       1 1SU901      0.0000 
     13 C24        21.6220  -21.0970   -3.8500 C.3       1 1SU901      0.0000 
     14 C26        32.6630  -11.8950    5.2920 C.3       1 1SU901      0.0000 
     15 C1         26.5800  -15.0500   -0.4160 C.1       1 1SU901      0.0000 
     16 C2         31.7910  -11.2360    8.9170 C.ar      1 1SU901      0.0000 
     17 C3         31.8980  -11.0780    7.5490 C.ar      1 1SU901      0.0000 
     18 C9         33.0410  -13.1600    7.4050 C.ar      1 1SU901      0.0000 
     19 C11        27.3680  -16.2390   -0.3940 C.ar      1 1SU901      0.0000 
     20 C12        32.5200  -12.0470    6.7830 C.ar      1 1SU901      0.0000 
     21 C14        27.5170  -18.6210   -0.7960 C.ar      1 1SU901      0.0000 
     22 C16        30.3230  -14.4040    0.5230 C.ar      1 1SU901      0.0000 
     23 C18        32.7730  -13.2500    0.7910 C.ar      1 1SU901      0.0000 
     24 C19        26.8130  -17.4300   -0.8110 C.ar      1 1SU901      0.0000 
     25 C23        22.4490  -22.1030   -3.1100 C.3       1 1SU901      0.0000 
     26 C25        22.2630  -20.7350   -2.5360 C.3       1 1SU901      0.0000 
     27 C27        33.5150  -14.5380    9.3960 C.3       1 1SU901      0.0000 
     28 N28        25.9740  -14.0570   -0.4580 N.1       1 1SU901      0.0000 
     29 N29        26.8070  -19.7220   -1.2460 N.2       1 1SU901      0.0000 
     30 N30        32.3320  -12.5620    3.0590 N.am      1 1SU901      0.0000 
     31 N31        24.5940  -20.2420   -2.1040 N.am      1 1SU901      0.0000 
     32 O32        23.1120  -18.6330   -2.9460 O.2       1 1SU901      0.0000 
     33 O33        31.3900  -13.8940    4.7210 O.2       1 1SU901      0.0000 
     34 O34        29.0520  -14.9360    0.4390 O.3       1 1SU901      0.0000 
     35 F35        34.0000  -12.6950    0.8860 F         1 1SU901      0.0000 
     36 F36        32.5810  -15.3080   10.0170 F         1 1SU901      0.0000 
     37 F37        34.1020  -15.3570    8.4790 F         1 1SU901      0.0000 
     38 F38        34.4720  -14.2440   10.3220 F         1 1SU901      0.0000 
     39 S39        25.2300  -17.7240   -1.4140 S.3       1 1SU901      0.0000 
     40 H          32.2368  -12.4698   10.5516 H         1 1SU901      0.0000 
     41 H          29.3886  -19.4521   -0.3120 H         1 1SU901      0.0000 
     42 H          30.3785  -17.3737    0.4084 H         1 1SU901      0.0000 
     43 H          30.9171  -14.8825   -1.4228 H         1 1SU901      0.0000 
     44 H          33.0978  -13.8725   -1.1833 H         1 1SU901      0.0000 
     45 H          29.9847  -13.7619    2.4906 H         1 1SU901      0.0000 
     46 H          20.7052  -21.2858   -3.6883 H         1 1SU901      0.0000 
     47 H          22.1515  -20.7287   -4.5473 H         1 1SU901      0.0000 
     48 H          32.2705  -10.8737    4.9975 H         1 1SU901      0.0000 
     49 H          33.7663  -11.8227    5.0442 H         1 1SU901      0.0000 
     50 H          31.3169  -10.5121    9.4826 H         1 1SU901      0.0000 
     51 H          31.5126  -10.2339    7.0960 H         1 1SU901      0.0000 
     52 H          33.5162  -13.8890    6.8381 H         1 1SU901      0.0000 
     53 H          23.3080  -22.1450   -3.5187 H         1 1SU901      0.0000 
     54 H          21.8617  -22.7021   -2.6597 H         1 1SU901      0.0000 
     55 H          21.5483  -20.8131   -1.8666 H         1 1SU901      0.0000 
     56 H          32.9511  -11.6909    2.9161 H         1 1SU901      0.0000 
     57 H          24.7821  -21.2658   -2.1433 H         1 1SU901      0.0000 
@<TRIPOS>BOND
     1    7    1 ar   
     2   16    1 ar   
     3   40    1 1    
     4    3    2 ar   
     5   21    2 ar   
     6   41    2 1    
     7    9    3 ar   
     8   42    3 1    
     9    5    4 ar   
    10   22    4 ar   
    11   43    4 1    
    12   23    5 ar   
    13   44    5 1    
    14    8    6 ar   
    15   22    6 ar   
    16   45    6 1    
    17   18    7 ar   
    18   27    7 1    
    19   23    8 ar   
    20   30    8 1    
    21   19    9 ar   
    22   34    9 1    
    23   29   10 2    
    24   31   10 1    
    25   39   10 1    
    26   26   11 1    
    27   31   11 am   
    28   32   11 2    
    29   14   12 1    
    30   30   12 am   
    31   33   12 2    
    32   25   13 1    
    33   26   13 1    
    34   46   13 1    
    35   47   13 1    
    36   20   14 1    
    37   48   14 1    
    38   49   14 1    
    39   19   15 1    
    40   28   15 3    
    41   17   16 ar   
    42   50   16 1    
    43   20   17 ar   
    44   51   17 1    
    45   20   18 ar   
    46   52   18 1    
    47   24   19 ar   
    48   24   21 ar   
    49   29   21 1    
    50   34   22 1    
    51   35   23 1    
    52   39   24 1    
    53   26   25 1    
    54   53   25 1    
    55   54   25 1    
    56   55   26 1    
    57   36   27 1    
    58   37   27 1    
    59   38   27 1    
    60   56   30 1    
    61   57   31 1    
@<TRIPOS>SUBSTRUCTURE
     1 1SU901      1 GROUP   
@<TRIPOS>SET

