#    Name: 2zjm_F1M_1_INTS_M
#    Modification time : Mon Apr  7 18:46:43 2014

@<TRIPOS>MOLECULE
2zjm_F1M_1_INTS_M
   91     0    12     0     0
SMALL
NO_CHARGES


@<TRIPOS>ATOM
      1 CA         33.3865   37.7885    0.2485 C.3       4 GLC5        0.0000 
      2 CA         33.4300   39.1020    1.9790 C.3      12 GLL5        0.0000 
      3 CA         33.3430   36.4750   -1.4820 C.3       8 GLP5        0.0000 
      4 CA         30.0380   35.6935    4.4630 C.3       4 GLC5        0.0000 
      5 CA         30.6180   36.4540    2.4340 C.3      12 GLL5        0.0000 
      6 CA         29.4580   34.9330    6.4920 C.3       8 GLP5        0.0000 
      7 CA         27.9620   35.0330    4.9210 C.3       4 GLC5        0.0000 
      8 CA         26.4660   35.1330    3.3500 C.3      12 GLL5        0.0000 
      9 CA         26.6135   33.4185    3.5190 C.3       4 GLC5        0.0000 
     10 CA         26.7610   31.7040    3.6880 C.3       8 GLP5        0.0000 
     11 CA         25.3425   35.0890    4.6120 C.3       4 GLC5        0.0000 
     12 CA         24.2190   35.0450    5.8740 C.3       8 GLP5        0.0000 
     13 CA         36.6200   40.7035   -1.6495 C.3       4 GLC5        0.0000 
     14 CA         35.3770   41.7790   -1.1620 C.3      12 GLL5        0.0000 
     15 CA         37.8630   39.6280   -2.1370 C.3       8 GLP5        0.0000 
     16 OD1        32.5770   37.5795    3.5945 O.co2     3 ASC3        0.0000 
     17 OD1        32.1450   38.4660    2.4740 O.co2    11 ASL3        0.0000 
     18 OD1        33.0090   36.6930    4.7150 O.co2     7 ASP3        0.0000 
     19 O          32.5770   37.5795    3.5945 O.2       1 ALC1        0.0000 
     20 O          32.1450   38.4660    2.4740 O.2       9 ALL1        0.0000 
     21 O          33.0090   36.6930    4.7150 O.2       5 ALP1        0.0000 
     22 CA         34.2325   44.2115    5.7455 C.3       4 GLC5        0.0000 
     23 CA         34.0170   42.6820    4.3060 C.3      12 GLL5        0.0000 
     24 CA         34.4480   45.7410    7.1850 C.3       8 GLP5        0.0000 
     25 N          19.7705   38.2025    0.2495 N.am      2 SEC2        0.0000 
     26 N          20.7150   37.9680   -0.6210 N.am     10 SEL2        0.0000 
     27 N          18.8260   38.4370    1.1200 N.am      6 SEP2        0.0000 
     28 N          19.6080   38.1865   -1.2095 N.am      2 SEC2        0.0000 
     29 N          18.5010   38.4050   -1.7980 N.am      6 SEP2        0.0000 
     30 N          20.4625   37.5590   -2.1225 N.am      2 SEC2        0.0000 
     31 N          20.2100   37.1500   -3.6240 N.am      6 SEP2        0.0000 
     32 O          27.7515   37.4585    4.1710 O.2       1 ALC1        0.0000 
     33 O          28.2190   36.7140    3.0870 O.2       9 ALL1        0.0000 
     34 O          27.2840   38.2030    5.2550 O.2       5 ALP1        0.0000 
     35 O          21.3320   37.4435   -3.0310 O.2       1 ALC1        0.0000 
     36 O          22.4540   37.7370   -2.4380 O.2       9 ALL1        0.0000 
     37 O          20.2100   37.1500   -3.6240 O.2       5 ALP1        0.0000 
     38 CA         23.0845   39.7620    1.5610 C.3       4 GLC5        0.0000 
     39 CA         23.8230   37.7390    1.1760 C.3      12 GLL5        0.0000 
     40 CA         22.3460   41.7850    1.9460 C.3       8 GLP5        0.0000 
     41 CA         28.7065   40.4180    4.1395 C.3       4 GLC5        0.0000 
     42 CA         29.7440   38.6810    3.1880 C.3      12 GLL5        0.0000 
     43 CA         27.6690   42.1550    5.0910 C.3       8 GLP5        0.0000 
     44 CA         36.1430   41.1360    6.3700 C.3       4 GLC5        0.0000 
     45 CA         34.2020   41.2690    6.5410 C.3      12 GLL5        0.0000 
     46 CA         38.0840   41.0030    6.1990 C.3       8 GLP5        0.0000 
     47 CA         34.1345   39.3190    6.6295 C.3       4 GLC5        0.0000 
     48 CA         34.0670   37.3690    6.7180 C.3       8 GLP5        0.0000 
     49 CA         32.5240   40.8680    6.4285 C.3       4 GLC5        0.0000 
     50 CA         30.8460   40.4670    6.3160 C.3       8 GLP5        0.0000 
     51 CA         21.8355   35.4065    1.3015 C.3       4 GLC5        0.0000 
     52 CA         23.7650   34.9410    0.8360 C.3      12 GLL5        0.0000 
     53 CA         19.9060   35.8720    1.7670 C.3       8 GLP5        0.0000 
     54 CA         34.4450   46.7685    3.6380 C.3       4 GLC5        0.0000 
     55 CA         34.3610   45.2060    2.8580 C.3      12 GLL5        0.0000 
     56 CA         34.5290   48.3310    4.4180 C.3       8 GLP5        0.0000 
     57 CA         34.4045   45.4735    5.0215 C.3       4 GLC5        0.0000 
     58 CA         35.2985   46.3635    1.3675 C.3       4 GLC5        0.0000 
     59 CA         36.2360   47.5210   -0.1230 C.3       8 GLP5        0.0000 
     60 CA         37.1885   41.7290    2.4700 C.3       4 GLC5        0.0000 
     61 CA         36.4820   41.3580    0.9570 C.3      12 GLL5        0.0000 
     62 CA         37.8950   42.1000    3.9830 C.3       8 GLP5        0.0000 
     63 CA         35.9278   42.4268    3.7950 C.3       4 GLC5        0.0000 
     64 CA         33.9040   42.8250    2.9080 C.3      12 GLL5        0.0000 
     65 CA         35.9610   41.4718    4.2402 C.3       4 GLC5        0.0000 
     66 CA         33.9650   40.2640    4.1190 C.3      12 GLL5        0.0000 
     67 CA         34.0470   39.1063    5.6078 C.3       4 GLC5        0.0000 
     68 CA         34.0890   41.4230    4.8760 C.3      12 GLL5        0.0000 
     69 CA         34.9908   38.5519    3.4094 C.3       4 GLC5        0.0000 
     70 CA         36.2060   37.1050    3.5810 C.3       8 GLP5        0.0000 
     71 CA         30.5930   39.7420    4.5750 C.3       4 GLC5        0.0000 
     72 CA         30.9360   39.3530    2.4800 C.3      12 GLL5        0.0000 
     73 CA         32.1457   35.2218    3.0110 C.3       4 GLC5        0.0000 
     74 CA         33.0720   33.6190    3.9090 C.3       8 GLP5        0.0000 
     75 CA         32.1568   36.1358    0.7715 C.3       4 GLC5        0.0000 
     76 CA         33.0940   35.4470   -0.5700 C.3       8 GLP5        0.0000 
     77 CA         24.8090   36.9318   -0.7720 C.3       4 GLC5        0.0000 
     78 CA         23.0320   37.1600    0.1910 C.3      12 GLL5        0.0000 
     79 CA         26.6140   37.4010   -1.6450 C.3       8 GLP5        0.0000 
     80 CA         36.8985   40.3615   -0.1315 C.3       4 GLC5        0.0000 
     81 CA         35.2500   42.0800    0.3090 C.3      12 GLL5        0.0000 
     82 CA         37.9310   39.0040   -0.8960 C.3       8 GLP5        0.0000 
     83 CA         32.4340   41.1149    5.3589 C.3       4 GLC5        0.0000 
     84 CA         21.6597   36.4864    1.2027 C.3       4 GLC5        0.0000 
     85 CA         25.5116   36.9119    0.0286 C.3       4 GLC5        0.0000 
     86 CA         24.6060   36.9240    1.9930 C.3      12 GLL5        0.0000 
     87 CA         24.4120   35.6320    3.8902 C.3       4 GLC5        0.0000 
     88 CA         22.7514   37.6564    2.7686 C.3       4 GLC5        0.0000 
     89 CA         21.4860   38.1260    4.1990 C.3       8 GLP5        0.0000 
     90 CA         37.4739   42.6574    0.4261 C.3       4 GLC5        0.0000 
     91 CA         39.0500   43.6710    0.5870 C.3       8 GLP5        0.0000 
@<TRIPOS>BOND
@<TRIPOS>SUBSTRUCTURE
     1 ALC1       19 GROUP        1 X    ALC  0     ROOT ALC X 1
     2 SEC2       25 GROUP        1 X    SEC  0     **** SEC X 2
     3 ASC3       16 GROUP        1 X    ASC  0     **** ASC X 3
     4 GLC5        1 GROUP        1 X    GLC  0     **** GLC X 6
     5 ALP1       21 GROUP        1 Y    ALP  0     ROOT ALP Y 8
     6 SEP2       27 GROUP        1 Y    SEP  0     **** SEP Y 9
     7 ASP3       18 GROUP        1 Y    ASP  0     **** ASP Y 10
     8 GLP5        3 GROUP        1 Y    GLP  0     **** GLP Y 13
     9 ALL1       20 GROUP        1 Z    ALL  0     ROOT ALL Z 15
    10 SEL2       26 GROUP        1 Z    SEL  0     **** SEL Z 16
    11 ASL3       17 GROUP        1 Z    ASL  0     **** ASL Z 17
    12 GLL5        2 GROUP        1 Z    GLL  0     **** GLL Z 20
@<TRIPOS>SET

