#    Name: 2zjm_F1M_1_ligand
#    Modification time : Mon Apr  7 18:46:43 2014

@<TRIPOS>MOLECULE
2zjm_F1M_1_ligand
   67    69     1     0     0
SMALL
NO_CHARGES


@<TRIPOS>ATOM
      1 C1         33.8070   41.6450    2.1170 C.ar      1 F1M395      0.0000 
      2 C2         33.9040   42.8250    2.9080 C.ar      1 F1M395      0.0000 
      3 C3         33.4300   39.1020    1.9790 C.3       1 F1M395      0.0000 
      4 C7         27.5550   35.7110    2.4780 C.2       1 F1M395      0.0000 
      5 C8         33.9650   40.2640    4.1190 C.ar      1 F1M395      0.0000 
      6 C11        34.0890   41.4230    4.8760 C.ar      1 F1M395      0.0000 
      7 C13        30.9360   39.3530    2.4800 C.3       1 F1M395      0.0000 
      8 C14        31.8210   37.1950    1.7920 C.3       1 F1M395      0.0000 
      9 C16        22.9760   35.7650    0.0110 C.ar      1 F1M395      0.0000 
     10 C19        30.6180   36.4540    2.4340 C.3       1 F1M395      0.0000 
     11 C20        29.3820   37.3770    2.4460 C.3       1 F1M395      0.0000 
     12 C22        26.4660   35.1330    3.3500 C.3       1 F1M395      0.0000 
     13 C27        35.2500   42.0800    0.3090 C.3       1 F1M395      0.0000 
     14 C30        35.3770   41.7790   -1.1620 C.3       1 F1M395      0.0000 
     15 S          22.1010   38.2620   -0.8150 S.o2      1 F1M395      0.0000 
     16 C          33.7420   40.3650    2.7340 C.ar      1 F1M395      0.0000 
     17 N          32.1450   38.4660    2.4740 N.4       1 F1M395      0.0000 
     18 C4         23.0320   37.1600    0.1910 C.ar      1 F1M395      0.0000 
     19 C5         34.0170   42.6820    4.3060 C.ar      1 F1M395      0.0000 
     20 O          20.7150   37.9680   -0.6210 O.2       1 F1M395      0.0000 
     21 O6         22.5730   39.6120   -0.6500 O.2       1 F1M395      0.0000 
     22 O9         33.9250   41.7050    0.7320 O.3       1 F1M395      0.0000 
     23 N10        28.2190   36.7140    3.0870 N.am      1 F1M395      0.0000 
     24 N12        22.4540   37.7370   -2.4380 N.pl3     1 F1M395      0.0000 
     25 O15        27.7730   35.2920    1.3540 O.2       1 F1M395      0.0000 
     26 C17        23.8230   37.7390    1.1760 C.ar      1 F1M395      0.0000 
     27 C18        29.7440   38.6810    3.1880 C.3       1 F1M395      0.0000 
     28 O21        25.4090   34.6270    2.5490 O.3       1 F1M395      0.0000 
     29 C23        24.6040   35.5140    1.8200 C.ar      1 F1M395      0.0000 
     30 O24        33.9050   44.0330    2.1990 O.3       1 F1M395      0.0000 
     31 CL         34.2020   41.2690    6.5410 Cl        1 F1M395      0.0000 
     32 C25        23.7650   34.9410    0.8360 C.ar      1 F1M395      0.0000 
     33 C26        24.6060   36.9240    1.9930 C.ar      1 F1M395      0.0000 
     34 C28        34.3610   45.2060    2.8580 C.3       1 F1M395      0.0000 
     35 C29        36.4820   41.3580    0.9570 C.3       1 F1M395      0.0000 
     36 H          34.2521   38.3892    2.1001 H         1 F1M395      0.0000 
     37 H          33.3304   39.3270    0.9122 H         1 F1M395      0.0000 
     38 H          34.0340   39.3440    4.5573 H         1 F1M395      0.0000 
     39 H          30.6397   39.5905    1.4543 H         1 F1M395      0.0000 
     40 H          31.1609   40.2905    2.9964 H         1 F1M395      0.0000 
     41 H          31.5765   37.3749    0.7337 H         1 F1M395      0.0000 
     42 H          32.6846   36.5125    1.8146 H         1 F1M395      0.0000 
     43 H          22.3773   35.3602   -0.7010 H         1 F1M395      0.0000 
     44 H          30.8724   36.1823    3.4479 H         1 F1M395      0.0000 
     45 H          30.3993   35.5695    1.8540 H         1 F1M395      0.0000 
     46 H          29.1497   37.6348    1.4220 H         1 F1M395      0.0000 
     47 H          26.1167   35.9269    4.0289 H         1 F1M395      0.0000 
     48 H          26.9139   34.3452    3.9760 H         1 F1M395      0.0000 
     49 H          35.4245   43.1530    0.4112 H         1 F1M395      0.0000 
     50 H          32.3288   38.1895    3.5656 H         1 F1M395      0.0000 
     51 H          34.0451   43.5245    4.8953 H         1 F1M395      0.0000 
     52 H          27.9581   37.0709    4.0201 H         1 F1M395      0.0000 
     53 H          23.8324   38.7549    1.3026 H         1 F1M395      0.0000 
     54 H          28.8958   39.3473    3.1703 H         1 F1M395      0.0000 
     55 H          30.0178   38.4471    4.2049 H         1 F1M395      0.0000 
     56 H          23.7334   33.9246    0.7257 H         1 F1M395      0.0000 
     57 H          25.1923   37.3351    2.7284 H         1 F1M395      0.0000 
     58 H          36.2803   42.0236   -1.5145 H         1 F1M395      0.0000 
     59 H          35.2401   40.8075   -1.3555 H         1 F1M395      0.0000 
     60 H          34.7045   42.2833   -1.7037 H         1 F1M395      0.0000 
     61 H          35.3090   45.1158    3.1633 H         1 F1M395      0.0000 
     62 H          34.3204   46.0071    2.2608 H         1 F1M395      0.0000 
     63 H          33.8113   45.4151    3.6668 H         1 F1M395      0.0000 
     64 H          37.3477   41.7041    0.5955 H         1 F1M395      0.0000 
     65 H          36.5071   41.4842    1.9487 H         1 F1M395      0.0000 
     66 H          36.4665   40.3726    0.7873 H         1 F1M395      0.0000 
     67 H          21.5665   37.4961   -2.8308 H         1 F1M395      0.0000 
@<TRIPOS>BOND
     1    2    1 ar   
     2   16    1 ar   
     3   22    1 1    
     4   19    2 ar   
     5   30    2 1    
     6   16    3 1    
     7   17    3 1    
     8   36    3 1    
     9   37    3 1    
    10   12    4 1    
    11   23    4 am   
    12   25    4 2    
    13    6    5 ar   
    14   16    5 ar   
    15   38    5 1    
    16   19    6 ar   
    17   31    6 1    
    18   17    7 1    
    19   27    7 1    
    20   39    7 1    
    21   40    7 1    
    22   10    8 1    
    23   17    8 1    
    24   41    8 1    
    25   42    8 1    
    26   18    9 ar   
    27   32    9 ar   
    28   43    9 1    
    29   11   10 1    
    30   44   10 1    
    31   45   10 1    
    32   23   11 1    
    33   27   11 1    
    34   46   11 1    
    35   28   12 1    
    36   47   12 1    
    37   48   12 1    
    38   14   13 1    
    39   22   13 1    
    40   35   13 1    
    41   49   13 1    
    42   58   14 1    
    43   59   14 1    
    44   60   14 1    
    45   18   15 1    
    46   20   15 2    
    47   21   15 2    
    48   24   15 1    
    49   50   17 1    
    50   26   18 ar   
    51   51   19 1    
    52   52   23 1    
    53   67   24 1    
    54   33   26 ar   
    55   53   26 1    
    56   54   27 1    
    57   55   27 1    
    58   29   28 1    
    59   32   29 ar   
    60   33   29 ar   
    61   34   30 1    
    62   56   32 1    
    63   57   33 1    
    64   61   34 1    
    65   62   34 1    
    66   63   34 1    
    67   64   35 1    
    68   65   35 1    
    69   66   35 1    
@<TRIPOS>SUBSTRUCTURE
     1 F1M395      1 GROUP   
@<TRIPOS>SET

