#    Name: 4lez_1SY_2_INTS_M
#    Modification time : Tue Mar 25 10:00:34 2014

@<TRIPOS>MOLECULE
4lez_1SY_2_INTS_M
   47     0    12     0     0
SMALL
NO_CHARGES


@<TRIPOS>ATOM
      1 CA        -33.6890    5.4205   26.4235 C.3       4 GLC5        0.0000 
      2 CA        -35.3610    6.3290   25.3410 C.3      12 GLL5        0.0000 
      3 CA        -32.0170    4.5120   27.5060 C.3       8 GLP5        0.0000 
      4 CA        -35.2590    7.3400   27.0380 C.3       4 GLC5        0.0000 
      5 CA        -35.1570    8.3510   28.7350 C.3       8 GLP5        0.0000 
      6 CA        -36.2220    5.9335   27.1140 C.3       4 GLC5        0.0000 
      7 CA        -37.0830    5.5380   28.8870 C.3       8 GLP5        0.0000 
      8 CA        -35.8610    4.4475   25.4890 C.3       4 GLC5        0.0000 
      9 CA        -36.3610    2.5660   25.6370 C.3       8 GLP5        0.0000 
     10 O         -39.0635    3.3510   24.2665 O.2       1 ALC1        0.0000 
     11 O         -38.4950    4.9480   24.0700 O.2       9 ALL1        0.0000 
     12 O         -39.6320    1.7540   24.4630 O.2       5 ALP1        0.0000 
     13 CA        -36.9150    4.2385   25.0340 C.3       4 GLC5        0.0000 
     14 CA        -37.4690    5.9110   24.4310 C.3      12 GLL5        0.0000 
     15 N         -35.7595    4.2995   25.0445 N.am      2 SEC2        0.0000 
     16 N         -36.3400    5.4930   25.0020 N.am     10 SEL2        0.0000 
     17 N         -35.1790    3.1060   25.0870 N.am      6 SEP2        0.0000 
     18 CA        -35.8630    8.2515   26.6555 C.3       4 GLC5        0.0000 
     19 CA        -36.5690    8.1520   24.5760 C.3      12 GLL5        0.0000 
     20 CA        -37.6795   10.1575   25.7690 C.3       4 GLC5        0.0000 
     21 CA        -36.2380   10.5880   24.4510 C.3      12 GLL5        0.0000 
     22 CA        -39.1210    9.7270   27.0870 C.3       8 GLP5        0.0000 
     23 O         -34.4240   13.0380   24.1770 O.2       1 ALC1        0.0000 
     24 O         -34.1980   11.5880   23.7820 O.2       9 ALL1        0.0000 
     25 O         -34.6500   14.4880   24.5720 O.2       5 ALP1        0.0000 
     26 CA        -40.3635   10.9510   17.2540 C.3       4 GLC5        0.0000 
     27 CA        -39.9780   11.0440   18.9040 C.3      12 GLL5        0.0000 
     28 CA        -40.7490   10.8580   15.6040 C.3       8 GLP5        0.0000 
     29 CA        -39.0470    9.4975   17.6100 C.3       4 GLC5        0.0000 
     30 CA        -38.1160    7.9510   16.3160 C.3       8 GLP5        0.0000 
     31 NZ        -42.5840   10.7635   22.7595 N.4       3 LYC4        0.0000 
     32 NZ        -41.5900   11.7480   23.0290 N.4      11 LYL4        0.0000 
     33 NZ        -43.5780    9.7790   22.4900 N.4       7 LYP4        0.0000 
     34 N         -42.5840   10.7635   22.7595 N.am      2 SEC2        0.0000 
     35 N         -41.5900   11.7480   23.0290 N.am     10 SEL2        0.0000 
     36 N         -43.5780    9.7790   22.4900 N.am      6 SEP2        0.0000 
     37 CA        -38.4740    6.2508   26.0648 C.3       4 GLC5        0.0000 
     38 CA        -37.6310    7.2940   24.1920 C.3      12 GLL5        0.0000 
     39 CA        -39.3980    5.8990   27.8180 C.3       8 GLP5        0.0000 
     40 CA        -38.1105    8.7250   25.7355 C.3       4 GLC5        0.0000 
     41 CA        -34.4655   10.3780   25.2535 C.3       4 GLC5        0.0000 
     42 CA        -33.1240    9.9840   26.6370 C.3       8 GLP5        0.0000 
     43 CA        -38.9996   12.6669   16.9129 C.3       4 GLC5        0.0000 
     44 CA        -39.0080   13.1170   19.4220 C.3      12 GLL5        0.0000 
     45 CA        -40.2110   12.5770   15.2830 C.3       8 GLP5        0.0000 
     46 CA        -38.7832    8.0883   18.0605 C.3       4 GLC5        0.0000 
     47 CA        -39.1630    8.8600   19.7140 C.3      12 GLL5        0.0000 
@<TRIPOS>BOND
@<TRIPOS>SUBSTRUCTURE
     1 ALC1       10 GROUP        1 X    ALC  0     ROOT ALC X 1
     2 SEC2       15 GROUP        1 X    SEC  0     **** SEC X 2
     3 LYC4       31 GROUP        1 X    LYC  0     **** LYC X 4
     4 GLC5        1 GROUP        1 X    GLC  0     **** GLC X 6
     5 ALP1       12 GROUP        1 Y    ALP  0     ROOT ALP Y 8
     6 SEP2       17 GROUP        1 Y    SEP  0     **** SEP Y 9
     7 LYP4       33 GROUP        1 Y    LYP  0     **** LYP Y 11
     8 GLP5        3 GROUP        1 Y    GLP  0     **** GLP Y 13
     9 ALL1       11 GROUP        1 Z    ALL  0     ROOT ALL Z 15
    10 SEL2       16 GROUP        1 Z    SEL  0     **** SEL Z 16
    11 LYL4       32 GROUP        1 Z    LYL  0     **** LYL Z 18
    12 GLL5        2 GROUP        1 Z    GLL  0     **** GLL Z 20
@<TRIPOS>SET

