#    Name: 4lez_1SY_2_ligand
#    Modification time : Tue Mar 25 10:00:34 2014

@<TRIPOS>MOLECULE
4lez_1SY_2_ligand
   67    73     1     0     0
SMALL
NO_CHARGES


@<TRIPOS>ATOM
      1 C2        -35.3610    6.3290   25.3410 C.ar      1 1SY602      0.0000 
      2 N01       -38.4950    4.9480   24.0700 N.pl3     1 1SY602      0.0000 
      3 C6        -37.4690    5.9110   24.4310 C.ar      1 1SY602      0.0000 
      4 N1        -36.3400    5.4930   25.0020 N.ar      1 1SY602      0.0000 
      5 N3        -35.4670    7.6260   25.1440 N.ar      1 1SY602      0.0000 
      6 C4        -36.5690    8.1520   24.5760 C.ar      1 1SY602      0.0000 
      7 C5        -37.6310    7.2940   24.1920 C.ar      1 1SY602      0.0000 
      8 N7        -38.5980    8.1070   23.6540 N.2       1 1SY602      0.0000 
      9 C8        -38.1870    9.3880   23.6880 C.2       1 1SY602      0.0000 
     10 N9        -36.9600    9.4290   24.2310 N.pl3     1 1SY602      0.0000 
     11 C1'       -36.2380   10.5880   24.4510 C.3       1 1SY602      0.0000 
     12 C2'       -35.3760   10.9560   23.2890 C.3       1 1SY602      0.0000 
     13 O2'       -34.1980   11.5880   23.7820 O.3       1 1SY602      0.0000 
     14 C3'       -36.2140   11.8890   22.5250 C.3       1 1SY602      0.0000 
     15 C4'       -36.9370   12.6160   23.5550 C.3       1 1SY602      0.0000 
     16 C16       -38.2570   13.1340   23.0660 C.3       1 1SY602      0.0000 
     17 O17       -39.1620   12.0990   22.9040 O.3       1 1SY602      0.0000 
     18 P18       -40.5840   12.6010   22.3430 P.3       1 1SY602      0.0000 
     19 O19       -40.9220   14.0820   22.7470 O.co2     1 1SY602      0.0000 
     20 O20       -40.7590   12.3590   20.7850 O.3       1 1SY602      0.0000 
     21 C21       -39.6170   11.9650   20.0610 C.3       1 1SY602      0.0000 
     22 C22       -39.0080   13.1170   19.4220 C.3       1 1SY602      0.0000 
     23 O23       -40.0500   14.0600   19.0550 O.3       1 1SY602      0.0000 
     24 C24       -38.3850   12.6000   18.2070 C.3       1 1SY602      0.0000 
     25 C25       -36.8800   12.6550   18.2710 C.3       1 1SY602      0.0000 
     26 O26       -36.3960   11.8470   19.3860 O.3       1 1SY602      0.0000 
     27 P27       -35.1120   12.3180   20.1830 P.3       1 1SY602      0.0000 
     28 O28       -35.4250   12.7700   21.6930 O.3       1 1SY602      0.0000 
     29 O29       -34.2310   13.2690   19.3880 O.co2     1 1SY602      0.0000 
     30 O30       -34.3110   11.1050   20.3350 O.co2     1 1SY602      0.0000 
     31 O31       -38.8650   11.1930   18.0030 O.3       1 1SY602      0.0000 
     32 C32       -39.9780   11.0440   18.9040 C.3       1 1SY602      0.0000 
     33 N33       -40.1480    9.6890   19.2330 N.pl3     1 1SY602      0.0000 
     34 C34       -41.2760    8.9770   19.1060 C.2       1 1SY602      0.0000 
     35 N35       -41.0500    7.7150   19.4980 N.2       1 1SY602      0.0000 
     36 C36       -39.1630    8.8600   19.7140 C.2       1 1SY602      0.0000 
     37 C37       -39.7380    7.5910   19.8960 C.2       1 1SY602      0.0000 
     38 C38       -38.8910    6.5490   20.3880 C.2       1 1SY602      0.0000 
     39 N39       -37.5950    6.8040   20.6790 N.2       1 1SY602      0.0000 
     40 C40       -37.0960    8.0190   20.4940 C.2       1 1SY602      0.0000 
     41 N41       -35.7440    8.2790   20.7860 N.pl3     1 1SY602      0.0000 
     42 N42       -37.8570    9.0200   20.0250 N.pl3     1 1SY602      0.0000 
     43 O43       -39.4070    5.2710   20.5860 O.2       1 1SY602      0.0000 
     44 O44       -41.5900   11.7480   23.0290 O.co2     1 1SY602      0.0000 
     45 O4'       -37.1840   11.6740   24.6110 O.3       1 1SY602      0.0000 
     46 H         -34.4795    5.9349   25.7787 H         1 1SY602      0.0000 
     47 H         -38.5770    4.1485   24.6651 H         1 1SY602      0.0000 
     48 H         -39.0345    5.1641   23.2562 H         1 1SY602      0.0000 
     49 H         -38.6933   10.1514   23.3729 H         1 1SY602      0.0000 
     50 H         -35.6214   10.5335   25.3314 H         1 1SY602      0.0000 
     51 H         -35.1811   10.0878   22.7224 H         1 1SY602      0.0000 
     52 H         -36.9173   11.3171   21.9409 H         1 1SY602      0.0000 
     53 H         -36.3468   13.4311   23.9229 H         1 1SY602      0.0000 
     54 H         -38.0723   13.6821   22.1199 H         1 1SY602      0.0000 
     55 H         -38.6109   13.8909   23.7951 H         1 1SY602      0.0000 
     56 H         -38.8901   11.4625   20.6618 H         1 1SY602      0.0000 
     57 H         -38.2852   13.5562   20.0505 H         1 1SY602      0.0000 
     58 H         -38.7188   13.1916   17.3519 H         1 1SY602      0.0000 
     59 H         -36.5708   13.6996   18.3879 H         1 1SY602      0.0000 
     60 H         -36.4738   12.2871   17.3223 H         1 1SY602      0.0000 
     61 H         -40.8571   11.4701   18.4238 H         1 1SY602      0.0000 
     62 H         -42.1274    9.3220   18.7799 H         1 1SY602      0.0000 
     63 H         -35.2017    7.4967   21.0925 H         1 1SY602      0.0000 
     64 H         -35.4409    9.2239   20.6621 H         1 1SY602      0.0000 
     65 H         -37.4198    9.9776   19.8913 H         1 1SY602      0.0000 
     66 H         -34.4270   12.5602   23.8306 H         1 1SY602      0.0000 
     67 H         -40.9019   13.6375   19.3644 H         1 1SY602      0.0000 
@<TRIPOS>BOND
     1    4    1 ar   
     2    5    1 ar   
     3   46    1 1    
     4    3    2 1    
     5   47    2 1    
     6   48    2 1    
     7    4    3 ar   
     8    7    3 ar   
     9    6    5 ar   
    10    7    6 ar   
    11   10    6 1    
    12    8    7 1    
    13    9    8 2    
    14   10    9 1    
    15   49    9 1    
    16   11   10 1    
    17   12   11 1    
    18   45   11 1    
    19   50   11 1    
    20   13   12 1    
    21   14   12 1    
    22   51   12 1    
    23   66   13 1    
    24   15   14 1    
    25   28   14 1    
    26   52   14 1    
    27   16   15 1    
    28   45   15 1    
    29   53   15 1    
    30   17   16 1    
    31   54   16 1    
    32   55   16 1    
    33   18   17 1    
    34   19   18 ar   
    35   20   18 1    
    36   44   18 ar   
    37   21   20 1    
    38   22   21 1    
    39   32   21 1    
    40   56   21 1    
    41   23   22 1    
    42   24   22 1    
    43   57   22 1    
    44   67   23 1    
    45   25   24 1    
    46   31   24 1    
    47   58   24 1    
    48   26   25 1    
    49   59   25 1    
    50   60   25 1    
    51   27   26 1    
    52   28   27 1    
    53   29   27 ar   
    54   30   27 ar   
    55   32   31 1    
    56   33   32 1    
    57   61   32 1    
    58   34   33 1    
    59   36   33 1    
    60   35   34 2    
    61   62   34 1    
    62   37   35 1    
    63   37   36 2    
    64   42   36 1    
    65   38   37 1    
    66   39   38 1    
    67   43   38 2    
    68   40   39 2    
    69   41   40 1    
    70   42   40 1    
    71   63   41 1    
    72   64   41 1    
    73   65   42 1    
@<TRIPOS>SUBSTRUCTURE
     1 1SY602      1 GROUP   
@<TRIPOS>SET

