#    Name: 1w6i_VAL_VAL_ALA_IVA_STA_STA_1_INTS_M
#    Modification time : Tue Mar 25 08:41:40 2014

@<TRIPOS>MOLECULE
1w6i_VAL_VAL_ALA_IVA_STA_STA_1_INTS_M
  100     0     9     0     0
SMALL
NO_CHARGES


@<TRIPOS>ATOM
      1 O          56.8435   53.1270   26.8675 O.2       1 ALC1        0.0000 
      2 O          57.7770   54.1620   26.9420 O.2       7 ALL1        0.0000 
      3 O          55.9100   52.0920   26.7930 O.2       4 ALP1        0.0000 
      4 N          54.5360   54.6425   26.1885 N.am      2 SEC2        0.0000 
      5 N          55.5100   55.5330   26.4750 N.am      8 SEL2        0.0000 
      6 N          53.5620   53.7520   25.9020 N.am      5 SEP2        0.0000 
      7 CA         56.4510   53.3415   25.1040 C.3       3 GLC5        0.0000 
      8 CA         57.8490   54.8800   24.5170 C.3       9 GLL5        0.0000 
      9 CA         55.0530   51.8030   25.6910 C.3       6 GLP5        0.0000 
     10 CA         56.4925   55.0050   22.6185 C.3       3 GLC5        0.0000 
     11 CA         57.9300   56.0370   23.5410 C.3       9 GLL5        0.0000 
     12 CA         55.0550   53.9730   21.6960 C.3       6 GLP5        0.0000 
     13 CA         60.7345   54.8465   22.9870 C.3       3 GLC5        0.0000 
     14 CA         59.1150   54.1260   24.1010 C.3       9 GLL5        0.0000 
     15 CA         62.3540   55.5670   21.8730 C.3       6 GLP5        0.0000 
     16 O          58.1670   57.9415   26.6565 O.2       1 ALC1        0.0000 
     17 O          56.8970   57.4200   26.6110 O.2       7 ALL1        0.0000 
     18 O          59.4370   58.4630   26.7020 O.2       4 ALP1        0.0000 
     19 CA         54.2100   57.1540   26.3330 C.3       3 GLC5        0.0000 
     20 CA         55.8710   58.3710   27.0010 C.3       9 GLL5        0.0000 
     21 CA         52.5490   55.9370   25.6650 C.3       6 GLP5        0.0000 
     22 N          58.4265   60.8430   26.5185 N.am      2 SEC2        0.0000 
     23 N          57.0640   60.3130   26.1740 N.am      8 SEL2        0.0000 
     24 N          59.7890   61.3730   26.8630 N.am      5 SEP2        0.0000 
     25 N          58.2505   59.3880   26.4380 N.am      2 SEC2        0.0000 
     26 N          59.4370   58.4630   26.7020 N.am      5 SEP2        0.0000 
     27 CA         56.1515   61.0850   28.8085 C.3       3 GLC5        0.0000 
     28 CA         54.8980   59.8810   28.8440 C.3       9 GLL5        0.0000 
     29 CA         57.4050   62.2890   28.7730 C.3       6 GLP5        0.0000 
     30 CA         54.8095   59.8980   30.9525 C.3       3 GLC5        0.0000 
     31 CA         54.7210   59.9150   33.0610 C.3       6 GLP5        0.0000 
     32 CA         53.1500   59.9780   29.7245 C.3       3 GLC5        0.0000 
     33 CA         51.4020   60.0750   30.6050 C.3       6 GLP5        0.0000 
     34 CA         54.1305   56.7850   28.8445 C.3       3 GLC5        0.0000 
     35 CA         55.8270   57.7490   29.4860 C.3       9 GLL5        0.0000 
     36 CA         52.4340   55.8210   28.2030 C.3       6 GLP5        0.0000 
     37 CA         55.2740   58.8320   31.2735 C.3       3 GLC5        0.0000 
     38 O          52.5460   64.5265   24.0195 O.2       1 ALC1        0.0000 
     39 O          53.9090   64.7170   24.5470 O.2       7 ALL1        0.0000 
     40 O          51.1830   64.3360   23.4920 O.2       4 ALP1        0.0000 
     41 N          52.7440   67.0610   27.0960 N.am      2 SEC2        0.0000 
     42 N          53.9970   66.5470   26.7590 N.am      8 SEL2        0.0000 
     43 N          51.4910   67.5750   27.4330 N.am      5 SEP2        0.0000 
     44 CA         53.3670   65.8015   21.9090 C.3       3 GLC5        0.0000 
     45 CA         53.9660   66.8240   23.4360 C.3       9 GLL5        0.0000 
     46 CA         52.7680   64.7790   20.3820 C.3       6 GLP5        0.0000 
     47 CA         55.3750   67.7455   22.1785 C.3       3 GLC5        0.0000 
     48 CA         56.7840   68.6670   20.9210 C.3       6 GLP5        0.0000 
     49 CA         52.2170   67.8795   23.8310 C.3       3 GLC5        0.0000 
     50 CA         50.4680   68.9350   24.2260 C.3       6 GLP5        0.0000 
     51 CA         55.4325   52.9985   30.4595 C.3       3 GLC5        0.0000 
     52 CA         57.2770   54.1100   30.3810 C.3       9 GLL5        0.0000 
     53 CA         53.5880   51.8870   30.5380 C.3       6 GLP5        0.0000 
     54 CA         53.5865   58.4940   22.5380 C.3       3 GLC5        0.0000 
     55 CA         55.2460   59.6170   22.9010 C.3       9 GLL5        0.0000 
     56 CA         51.9270   57.3710   22.1750 C.3       6 GLP5        0.0000 
     57 CA         56.5925   61.7145   21.9930 C.3       3 GLC5        0.0000 
     58 CA         56.4240   59.7480   21.9720 C.3       9 GLL5        0.0000 
     59 CA         56.7610   63.6810   22.0140 C.3       6 GLP5        0.0000 
     60 CA         58.1450   61.6305   23.2575 C.3       3 GLC5        0.0000 
     61 CA         57.7250   59.7110   22.7310 C.3       9 GLL5        0.0000 
     62 CA         58.5650   63.5500   23.7840 C.3       6 GLP5        0.0000 
     63 CA         59.0100   59.4575   24.3000 C.3       3 GLC5        0.0000 
     64 CA         60.2950   59.2040   25.8690 C.3       6 GLP5        0.0000 
     65 CA         59.4395   59.5180   21.6415 C.3       3 GLC5        0.0000 
     66 CA         61.1540   59.3250   20.5520 C.3       6 GLP5        0.0000 
     67 CA         56.6650   57.2150   19.7085 C.3       3 GLC5        0.0000 
     68 CA         56.3990   58.6140   21.0030 C.3       9 GLL5        0.0000 
     69 CA         56.9310   55.8160   18.4140 C.3       6 GLP5        0.0000 
     70 O          52.0785   60.4640   22.7840 O.2       1 ALC1        0.0000 
     71 O          52.6090   60.6280   23.9920 O.2       7 ALL1        0.0000 
     72 O          51.5480   60.3000   21.5760 O.2       4 ALP1        0.0000 
     73 O          52.6970   61.2815   22.4130 O.2       1 ALC1        0.0000 
     74 O          52.7850   61.9350   20.8340 O.2       4 ALP1        0.0000 
     75 N          56.8910   63.5585   26.2280 N.am      2 SEC2        0.0000 
     76 N          55.6140   63.5610   25.6490 N.am      8 SEL2        0.0000 
     77 N          58.1680   63.5560   26.8070 N.am      5 SEP2        0.0000 
     78 CA         58.6420   68.8705   26.0700 C.3       3 GLC5        0.0000 
     79 CA         57.1860   68.6750   27.6450 C.3       9 GLL5        0.0000 
     80 CA         60.0980   69.0660   24.4950 C.3       6 GLP5        0.0000 
     81 CA         52.3160   69.5380   24.9660 C.3       3 GLC5        0.0000 
     82 CA         54.1640   70.1410   25.7060 C.3       9 GLL5        0.0000 
     83 CA         57.3125   53.5385   23.1400 C.3       3 GLC5        0.0000 
     84 CA         56.1430   52.5740   21.9710 C.3       6 GLP5        0.0000 
     85 CA         56.9055   59.9363   29.5033 C.3       3 GLC5        0.0000 
     86 CA         56.0090   58.8680   28.4810 C.3       9 GLL5        0.0000 
     87 CA         57.8930   61.5640   30.0230 C.3       6 GLP5        0.0000 
     88 CA         55.5323   65.0383   22.9880 C.3       3 GLC5        0.0000 
     89 CA         54.6410   65.9670   24.4880 C.3       9 GLL5        0.0000 
     90 CA         57.4144   53.0924   32.2181 C.3       3 GLC5        0.0000 
     91 CA         56.7640   53.4950   33.8490 C.3       6 GLP5        0.0000 
     92 CA         57.2784   60.0009   20.0286 C.3       3 GLC5        0.0000 
     93 CA         57.8200   60.8300   18.3800 C.3       6 GLP5        0.0000 
     94 CA         51.6377   62.2722   23.7752 C.3       3 GLC5        0.0000 
     95 CA         53.7590   61.4730   23.9050 C.3       9 GLL5        0.0000 
     96 CA         49.6150   62.5970   23.0450 C.3       6 GLP5        0.0000 
     97 CA         55.6069   62.2374   22.8514 C.3       3 GLC5        0.0000 
     98 CA         56.6938   65.2103   28.9700 C.3       3 GLC5        0.0000 
     99 CA         57.6250   67.3530   28.3040 C.3       9 GLL5        0.0000 
    100 CA         56.2790   63.2530   29.1070 C.3       6 GLP5        0.0000 
@<TRIPOS>BOND
@<TRIPOS>SUBSTRUCTURE
     1 ALC1        1 GROUP        1 X    ALC  0     ROOT ALC X 1
     2 SEC2        4 GROUP        1 X    SEC  0     **** SEC X 2
     3 GLC5        7 GROUP        1 X    GLC  0     **** GLC X 6
     4 ALP1        3 GROUP        1 Y    ALP  0     ROOT ALP Y 8
     5 SEP2        6 GROUP        1 Y    SEP  0     **** SEP Y 9
     6 GLP5        9 GROUP        1 Y    GLP  0     **** GLP Y 13
     7 ALL1        2 GROUP        1 Z    ALL  0     ROOT ALL Z 15
     8 SEL2        5 GROUP        1 Z    SEL  0     **** SEL Z 16
     9 GLL5        8 GROUP        1 Z    GLL  0     **** GLL Z 20
@<TRIPOS>SET

