#    Name: 1w6i_VAL_VAL_ALA_IVA_STA_STA_1_ligand
#    Modification time : Tue Mar 25 08:41:40 2014

@<TRIPOS>MOLECULE
1w6i_VAL_VAL_ALA_IVA_STA_STA_1_ligand
  108   107     6     0     0
SMALL
NO_CHARGES


@<TRIPOS>ATOM
      1 N          57.7770   54.1620   26.9420 N.am      1 VAL1331     0.0000
      2 CA         57.8630   55.3280   26.0210 C.3       1 VAL1331     0.0000
      3 C          56.6090   56.1040   26.4000 C.2       1 VAL1331     0.0000
      4 O          55.5100   55.5330   26.4750 O.2       1 VAL1331     0.0000
      5 CB         57.8490   54.8800   24.5170 C.3       1 VAL1331     0.0000
      6 CG1        57.9300   56.0370   23.5410 C.3       1 VAL1331     0.0000
      7 CG2        59.1150   54.1260   24.1010 C.3       1 VAL1331     0.0000
      8 HNCA       56.9614   53.5832   26.8797 H         1 VAL1331     0.0000
      9 HA         58.7103   55.9036   26.2337 H         1 VAL1331     0.0000
     10 HB         57.0128   54.2904   24.2917 H         1 VAL1331     0.0000
     11 H          58.7676   56.5692   23.6646 H         1 VAL1331     0.0000
     12 H          57.9194   55.7234   22.5915 H         1 VAL1331     0.0000
     13 H          57.1625   56.6689   23.6495 H         1 VAL1331     0.0000
     14 HG21       59.9358   54.6850   24.2187 H         1 VAL1331     0.0000
     15 HG22       59.2466   53.2947   24.6411 H         1 VAL1331     0.0000
     16 HG23       59.0839   53.8496   23.1405 H         1 VAL1331     0.0000
     17 N          56.8970   57.4200   26.6110 N.am      2 VAL1332     0.0000
     18 CA         55.8710   58.3710   27.0010 C.3       2 VAL1332     0.0000
     19 C          56.0810   59.5760   26.0610 C.2       2 VAL1332     0.0000
     20 O          57.0640   60.3130   26.1740 O.2       2 VAL1332     0.0000
     21 CB         56.0090   58.8680   28.4810 C.3       2 VAL1332     0.0000
     22 CG1        54.8980   59.8810   28.8440 C.3       2 VAL1332     0.0000
     23 CG2        55.8270   57.7490   29.4860 C.3       2 VAL1332     0.0000
     24 HNCA       57.8581   57.7873   26.5004 H         2 VAL1332     0.0000
     25 HA         54.8955   57.9990   26.8412 H         2 VAL1332     0.0000
     26 HB         56.9488   59.3322   28.6269 H         2 VAL1332     0.0000
     27 H          54.9798   60.1994   29.7884 H         2 VAL1332     0.0000
     28 H          54.9279   60.6908   28.2581 H         2 VAL1332     0.0000
     29 H          53.9860   59.4826   28.7470 H         2 VAL1332     0.0000
     30 HG21       56.5044   57.0240   29.3614 H         2 VAL1332     0.0000
     31 HG22       55.9176   58.0762   30.4266 H         2 VAL1332     0.0000
     32 HG23       54.9252   57.3238   29.4091 H         2 VAL1332     0.0000
     33 N          53.9090   64.7170   24.5470 N.am      3 ALA1334     0.0000
     34 CA         54.6410   65.9670   24.4880 C.3       3 ALA1334     0.0000
     35 C          54.7850   66.7320   25.8200 C.2       3 ALA1334     0.0000
     36 O          53.9970   66.5470   26.7590 O.2       3 ALA1334     0.0000
     37 CB         53.9660   66.8240   23.4360 C.3       3 ALA1334     0.0000
     38 H          52.9700   64.6953   24.1405 H         3 ALA1334     0.0000
     39 HA         55.6637   65.7700   24.1074 H         3 ALA1334     0.0000
     40 HB1        54.4140   67.7126   23.3374 H         3 ALA1334     0.0000
     41 HB2        53.9797   66.3874   22.5365 H         3 ALA1334     0.0000
     42 HB3        53.0080   67.0021   23.6608 H         3 ALA1334     0.0000
     43 CA         58.6190   52.7600   28.6790 C.3       4 IVA1330     0.0000
     44 CB         58.4360   53.1190   30.1680 C.3       4 IVA1330     0.0000
     45 CG1        57.2770   54.1100   30.3810 C.3       4 IVA1330     0.0000
     46 CG2        58.2730   51.7650   30.9000 C.3       4 IVA1330     0.0000
     47 C          58.8030   53.9710   27.7920 C.2       4 IVA1330     0.0000
     48 O          59.8230   54.6760   27.8930 O.co2     4 IVA1330     0.0000
     49 H          57.7386   52.1910   28.3483 H         4 IVA1330     0.0000
     50 H          59.4921   52.0987   28.5861 H         4 IVA1330     0.0000
     51 H          59.3665   53.5648   30.5042 H         4 IVA1330     0.0000
     52 H          57.1605   54.3433   31.3464 H         4 IVA1330     0.0000
     53 H          57.4261   54.9673   29.8883 H         4 IVA1330     0.0000
     54 H          56.4058   53.7365   30.0625 H         4 IVA1330     0.0000
     55 H          59.0728   51.1776   30.7768 H         4 IVA1330     0.0000
     56 H          58.1483   51.8877   31.8846 H         4 IVA1330     0.0000
     57 H          57.4805   51.2550   30.5655 H         4 IVA1330     0.0000
     58 N          55.0930   59.7260   25.1860 N.4       5 STA1333     0.0000
     59 CA         55.0470   60.6120   24.0440 C.3       5 STA1333     0.0000
     60 CB         55.2460   59.6170   22.9010 C.3       5 STA1333     0.0000
     61 CG         56.4240   59.7480   21.9720 C.3       5 STA1333     0.0000
     62 CD1        57.7250   59.7110   22.7310 C.3       5 STA1333     0.0000
     63 CD2        56.3990   58.6140   21.0030 C.3       5 STA1333     0.0000
     64 CH         53.7590   61.4730   23.9050 C.3       5 STA1333     0.0000
     65 OH         52.6090   60.6280   23.9920 O.3       5 STA1333     0.0000
     66 CM         53.5620   62.4220   25.1060 C.3       5 STA1333     0.0000
     67 C          54.4760   63.6230   25.1300 C.2       5 STA1333     0.0000
     68 O          55.6140   63.5610   25.6490 O.co2     5 STA1333     0.0000
     69 H          55.9188   61.2558   24.0484 H         5 STA1333     0.0000
     70 H          54.2966   59.6123   22.2800 H         5 STA1333     0.0000
     71 H          55.2556   58.5751   23.3498 H         5 STA1333     0.0000
     72 H          56.3518   60.6740   21.4331 H         5 STA1333     0.0000
     73 H          53.7765   62.0305   23.0234 H         5 STA1333     0.0000
     74 H          53.6998   61.8349   26.0354 H         5 STA1333     0.0000
     75 H          52.5073   62.7610   25.1079 H         5 STA1333     0.0000
     76 H          58.5132   59.7957   22.1214 H         5 STA1333     0.0000
     77 H          57.7880   60.4547   23.3966 H         5 STA1333     0.0000
     78 H          57.8360   58.8552   23.2363 H         5 STA1333     0.0000
     79 H          57.1638   58.6578   20.3602 H         5 STA1333     0.0000
     80 H          56.4551   57.7291   21.4654 H         5 STA1333     0.0000
     81 H          55.5595   58.6081   20.4597 H         5 STA1333     0.0000
     82 H          52.2964   60.5186   23.0484 H         5 STA1333     0.0000
     83 N          55.8050   67.6030   25.9210 N.4       6 STA1335     0.0000
     84 CA         55.8060   68.6950   26.9750 C.3       6 STA1335     0.0000
     85 CB         57.1860   68.6750   27.6450 C.3       6 STA1335     0.0000
     86 CG         57.6250   67.3530   28.3040 C.3       6 STA1335     0.0000
     87 CD1        59.0270   67.5530   28.8670 C.3       6 STA1335     0.0000
     88 CD2        56.5920   66.9820   29.3620 C.3       6 STA1335     0.0000
     89 CH         55.5440   70.1280   26.3620 C.3       6 STA1335     0.0000
     90 OH         56.6810   70.5370   25.4520 O.3       6 STA1335     0.0000
     91 CM         54.1640   70.1410   25.7060 C.3       6 STA1335     0.0000
     92 C          53.8190   71.4520   25.0680 C.2       6 STA1335     0.0000
     93 O          53.8280   71.4660   23.8200 O.co2     6 STA1335     0.0000
     94 OXT        53.5600   72.4090   25.7680 O.co2     6 STA1335     0.0000
     95 H          55.0647   68.4959   27.7119 H         6 STA1335     0.0000
     96 H          57.2183   69.4785   28.4161 H         6 STA1335     0.0000
     97 H          57.9524   68.9609   26.8886 H         6 STA1335     0.0000
     98 H          57.6470   66.6007   27.5402 H         6 STA1335     0.0000
     99 H          55.5145   70.8125   27.2249 H         6 STA1335     0.0000
    100 H          53.4101   69.8908   26.4719 H         6 STA1335     0.0000
    101 H          54.1287   69.3389   24.9491 H         6 STA1335     0.0000
    102 H          59.3723   66.7240   29.3069 H         6 STA1335     0.0000
    103 H          59.6821   67.8006   28.1531 H         6 STA1335     0.0000
    104 H          59.0516   68.2806   29.5525 H         6 STA1335     0.0000
    105 H          56.8254   66.1270   29.8252 H         6 STA1335     0.0000
    106 H          56.5140   67.6860   30.0679 H         6 STA1335     0.0000
    107 H          55.6816   66.8618   28.9661 H         6 STA1335     0.0000
    108 H          56.3541   70.3440   24.5268 H         6 STA1335     0.0000
@<TRIPOS>BOND
     1    2    1 1
     2    8    1 1
     3    3    2 1
     4    5    2 1
     5    9    2 1
     6    4    3 2
     7    6    5 1
     8    7    5 1
     9   10    5 1
    10   11    6 1
    11   12    6 1
    12   13    6 1
    13   14    7 1
    14   15    7 1
    15   16    7 1
    16   18   17 1
    17   24   17 1
    18   19   18 1
    19   21   18 1
    20   25   18 1
    21   20   19 2
    22   22   21 1
    23   23   21 1
    24   26   21 1
    25   27   22 1
    26   28   22 1
    27   29   22 1
    28   30   23 1
    29   31   23 1
    30   32   23 1
    31   34   33 1
    32   38   33 1
    33   35   34 1
    34   37   34 1
    35   39   34 1
    36   36   35 2
    37   40   37 1
    38   41   37 1
    39   42   37 1
    40   44   43 1
    41   47   43 1
    42   49   43 1
    43   50   43 1
    44   45   44 1
    45   46   44 1
    46   51   44 1
    47   52   45 1
    48   53   45 1
    49   54   45 1
    50   55   46 1
    51   56   46 1
    52   57   46 1
    53   48   47 ar
    54   59   58 1
    55   60   59 1
    56   64   59 1
    57   69   59 1
    58   61   60 1
    59   70   60 1
    60   71   60 1
    61   62   61 1
    62   63   61 1
    63   72   61 1
    64   76   62 1
    65   77   62 1
    66   78   62 1
    67   79   63 1
    68   80   63 1
    69   81   63 1
    70   65   64 1
    71   66   64 1
    72   73   64 1
    73   82   65 1
    74   67   66 1
    75   74   66 1
    76   75   66 1
    77   68   67 ar
    78   84   83 1
    79   85   84 1
    80   89   84 1
    81   95   84 1
    82   86   85 1
    83   96   85 1
    84   97   85 1
    85   87   86 1
    86   88   86 1
    87   98   86 1
    88  102   87 1
    89  103   87 1
    90  104   87 1
    91  105   88 1
    92  106   88 1
    93  107   88 1
    94   90   89 1
    95   91   89 1
    96   99   89 1
    97  108   90 1
    98   92   91 1
    99  100   91 1
   100  101   91 1
   101   93   92 ar
   102   94   92 ar
   103   47    1 1 
   104   17    3 am
   105   58   19 1 
   106   67   33 1 
   107   83   35 1 
@<TRIPOS>SUBSTRUCTURE
     1 VAL1331     1 RESIDUE
     2 VAL1332    17 RESIDUE
     3 ALA1334    33 RESIDUE
     4 IVA1330    43 GROUP
     5 STA1333    58 GROUP
     6 STA1335    83 GROUP
@<TRIPOS>SET

