#    Name: 2k31_35G_1_INTS_M
#    Modification time : Tue Mar 25 21:14:48 2014

@<TRIPOS>MOLECULE
2k31_35G_1_INTS_M
   43     0     9     0     0
SMALL
NO_CHARGES


@<TRIPOS>ATOM
      1 N           9.7110   -0.0540    2.5230 N.am      2 SEC2        0.0000 
      2 N           9.4770    0.9340    3.7960 N.am      8 SEL2        0.0000 
      3 N           9.9450   -1.0420    1.2500 N.am      5 SEP2        0.0000 
      4 N           8.9430    0.2880    1.5095 N.am      2 SEC2        0.0000 
      5 N           7.9410    1.6180    1.7690 N.am      8 SEL2        0.0000 
      6 N          10.6095    3.3300    3.3430 N.am      2 SEC2        0.0000 
      7 N           8.9810    3.4700    3.1840 N.am      8 SEL2        0.0000 
      8 N          12.2380    3.1900    3.5020 N.am      5 SEP2        0.0000 
      9 CA          7.0535    5.3165    0.8300 C.3       3 GLC5        0.0000 
     10 CA          7.9890    4.4570    2.6770 C.3       9 GLL5        0.0000 
     11 CA          6.1180    6.1760   -1.0170 C.3       6 GLP5        0.0000 
     12 CA          9.7560    4.7445    2.3550 C.3       3 GLC5        0.0000 
     13 CA         11.5230    5.0320    2.0330 C.3       6 GLP5        0.0000 
     14 CA          5.5890    3.8460    6.5335 C.3       3 GLC5        0.0000 
     15 CA          4.9340    3.2760    4.5210 C.3       9 GLL5        0.0000 
     16 CA          6.2440    4.4160    8.5460 C.3       6 GLP5        0.0000 
     17 O           5.2005    3.9820    6.8970 O.2       1 ALC1        0.0000 
     18 O           5.1630    2.8610    5.8860 O.2       7 ALL1        0.0000 
     19 O           5.2380    5.1030    7.9080 O.2       4 ALP1        0.0000 
     20 CA          5.0665    6.4090    4.5960 C.3       3 GLC5        0.0000 
     21 CA          4.6600    4.7780    4.2980 C.3       9 GLL5        0.0000 
     22 CA          5.4730    8.0400    4.8940 C.3       6 GLP5        0.0000 
     23 N           0.4435    5.4685    1.5760 N.am      2 SEC2        0.0000 
     24 N           1.4850    5.3540    2.4750 N.am      8 SEL2        0.0000 
     25 N          -0.5980    5.5830    0.6770 N.am      5 SEP2        0.0000 
     26 CA          0.0725    5.1495    2.5995 C.3       3 GLC5        0.0000 
     27 CA          1.1960    5.7980    3.7240 C.3       9 GLL5        0.0000 
     28 CA         -1.0510    4.5010    1.4750 C.3       6 GLP5        0.0000 
     29 CA          2.1645    6.5460    1.9155 C.3       3 GLC5        0.0000 
     30 CA          3.1330    7.2940    0.1070 C.3       6 GLP5        0.0000 
     31 N          -2.2145    7.6140    3.8000 N.am      2 SEC2        0.0000 
     32 N          -1.0780    6.6490    3.9900 N.am      8 SEL2        0.0000 
     33 N          -3.3510    8.5790    3.6100 N.am      5 SEP2        0.0000 
     34 O          -1.0830    7.6375    6.7105 O.2       1 ALC1        0.0000 
     35 O           0.1840    6.7860    6.0530 O.2       7 ALL1        0.0000 
     36 O          -2.3500    8.4890    7.3680 O.2       4 ALP1        0.0000 
     37 CA          3.9405    6.8270    4.7235 C.3       3 GLC5        0.0000 
     38 CA          2.4080    5.6140    4.5530 C.3       9 GLL5        0.0000 
     39 CA          7.2332    6.0857    3.0913 C.3       3 GLC5        0.0000 
     40 CA          6.6940    4.3960    3.5760 C.3       9 GLL5        0.0000 
     41 CA          7.1250    7.7450    3.0560 C.3       6 GLP5        0.0000 
     42 CA          1.2815    4.3070    5.2487 C.3       3 GLC5        0.0000 
     43 CA          0.7610    2.9080    6.3590 C.3       6 GLP5        0.0000 
@<TRIPOS>BOND
@<TRIPOS>SUBSTRUCTURE
     1 ALC1       17 GROUP        1 X    ALC  0     ROOT ALC X 1
     2 SEC2        1 GROUP        1 X    SEC  0     **** SEC X 2
     3 GLC5        9 GROUP        1 X    GLC  0     **** GLC X 6
     4 ALP1       19 GROUP        1 Y    ALP  0     ROOT ALP Y 8
     5 SEP2        3 GROUP        1 Y    SEP  0     **** SEP Y 9
     6 GLP5       11 GROUP        1 Y    GLP  0     **** GLP Y 13
     7 ALL1       18 GROUP        1 Z    ALL  0     ROOT ALL Z 15
     8 SEL2        2 GROUP        1 Z    SEL  0     **** SEL Z 16
     9 GLL5       10 GROUP        1 Z    GLL  0     **** GLL Z 20
@<TRIPOS>SET

