#    Name: 2k31_35G_1_ligand
#    Modification time : Tue Mar 25 21:14:48 2014

@<TRIPOS>MOLECULE
2k31_35G_1_ligand
   34    37     1     0     0
SMALL
NO_CHARGES


@<TRIPOS>ATOM
      1 P           8.4850    1.8690    3.1570 P.3       1 35G1        0.0000 
      2 O1P         9.4770    0.9340    3.7960 O.co2     1 35G1        0.0000 
      3 O2P         7.9410    1.6180    1.7690 O.co2     1 35G1        0.0000 
      4 O5'         8.9810    3.4700    3.1840 O.3       1 35G1        0.0000 
      5 C5'         7.9890    4.4570    2.6770 C.3       1 35G1        0.0000 
      6 C4'         6.6940    4.3960    3.5760 C.3       1 35G1        0.0000 
      7 O4'         5.6220    5.1880    3.3240 O.3       1 35G1        0.0000 
      8 C3'         6.1290    3.0210    3.6410 C.3       1 35G1        0.0000 
      9 O3'         7.1830    2.0780    4.1460 O.3       1 35G1        0.0000 
     10 C2'         4.9340    3.2760    4.5210 C.3       1 35G1        0.0000 
     11 O2'         5.1630    2.8610    5.8860 O.3       1 35G1        0.0000 
     12 C1'         4.6600    4.7780    4.2980 C.3       1 35G1        0.0000 
     13 N9          3.3160    5.0870    3.7620 N.pl3     1 35G1        0.0000 
     14 C8          2.7840    4.9160    2.4930 C.2       1 35G1        0.0000 
     15 N7          1.4850    5.3540    2.4750 N.2       1 35G1        0.0000 
     16 C5          1.1960    5.7980    3.7240 C.2       1 35G1        0.0000 
     17 C6          0.0300    6.4220    4.5420 C.2       1 35G1        0.0000 
     18 O6         -1.0780    6.6490    3.9900 O.2       1 35G1        0.0000 
     19 N1          0.1840    6.7860    6.0530 N.am      1 35G1        0.0000 
     20 C2          1.4280    6.5800    6.8450 C.2       1 35G1        0.0000 
     21 N2          1.5650    6.8940    8.1570 N.pl3     1 35G1        0.0000 
     22 N3          2.5140    5.9850    6.0310 N.2       1 35G1        0.0000 
     23 C4          2.4080    5.6140    4.5530 C.2       1 35G1        0.0000 
     24 H           7.6935    4.2277    1.6627 H         1 35G1        0.0000 
     25 H           8.3774    5.4643    2.7319 H         1 35G1        0.0000 
     26 H           7.0651    4.5835    4.6396 H         1 35G1        0.0000 
     27 H           5.7958    2.7640    2.6613 H         1 35G1        0.0000 
     28 H           4.0962    2.7406    4.0640 H         1 35G1        0.0000 
     29 H           4.8332    5.2903    5.2215 H         1 35G1        0.0000 
     30 H           3.2614    4.5453    1.7443 H         1 35G1        0.0000 
     31 H          -0.6364    7.1892    6.5006 H         1 35G1        0.0000 
     32 H           2.4573    6.7005    8.5649 H         1 35G1        0.0000 
     33 H           0.7616    7.2913    8.6006 H         1 35G1        0.0000 
     34 H           4.6797    3.5342    6.4456 H         1 35G1        0.0000 
@<TRIPOS>BOND
     1    2    1 ar   
     2    3    1 ar   
     3    4    1 1    
     4    9    1 1    
     5    5    4 1    
     6    6    5 1    
     7   24    5 1    
     8   25    5 1    
     9    7    6 1    
    10    8    6 1    
    11   26    6 1    
    12   12    7 1    
    13    9    8 1    
    14   10    8 1    
    15   27    8 1    
    16   11   10 1    
    17   12   10 1    
    18   28   10 1    
    19   34   11 1    
    20   13   12 1    
    21   29   12 1    
    22   14   13 1    
    23   23   13 1    
    24   15   14 2    
    25   30   14 1    
    26   16   15 1    
    27   17   16 1    
    28   23   16 2    
    29   18   17 2    
    30   19   17 am   
    31   20   19 1    
    32   31   19 1    
    33   21   20 1    
    34   22   20 2    
    35   32   21 1    
    36   33   21 1    
    37   23   22 1    
@<TRIPOS>SUBSTRUCTURE
     1 35G1        1 GROUP   
@<TRIPOS>SET

