#    Name: 1mc0_PCG_1_INTS_M
#    Modification time : Tue Mar 25 11:33:24 2014

@<TRIPOS>MOLECULE
1mc0_PCG_1_INTS_M
   51     0     9     0     0
SMALL
NO_CHARGES


@<TRIPOS>ATOM
      1 N         134.0320   58.6750  116.2405 N.am      2 SEC2        0.0000 
      2 N         132.7330   58.0380  116.5450 N.am      8 SEL2        0.0000 
      3 N         135.3310   59.3120  115.9360 N.am      5 SEP2        0.0000 
      4 N         134.8870   55.5495  117.9785 N.am      2 SEC2        0.0000 
      5 N         133.9060   56.3210  117.7960 N.am      8 SEL2        0.0000 
      6 N         135.8680   54.7780  118.1610 N.am      5 SEP2        0.0000 
      7 CA        130.5915   55.5510  114.0920 C.3       3 GLC5        0.0000 
      8 CA        130.4050   56.0910  116.0630 C.3       9 GLL5        0.0000 
      9 CA        130.7780   55.0110  112.1210 C.3       6 GLP5        0.0000 
     10 CA        131.3165   57.1145  114.3380 C.3       3 GLC5        0.0000 
     11 CA        132.2280   58.1380  112.6130 C.3       6 GLP5        0.0000 
     12 N         130.6140   55.8455  119.5200 N.am      2 SEC2        0.0000 
     13 N         131.5100   56.8240  118.6000 N.am      8 SEL2        0.0000 
     14 N         129.7180   54.8670  120.4400 N.am      5 SEP2        0.0000 
     15 CA        130.9525   59.5230  118.6300 C.3       3 GLC5        0.0000 
     16 CA        129.1600   58.1810  118.7290 C.3       9 GLL5        0.0000 
     17 CA        132.7450   60.8650  118.5310 C.3       6 GLP5        0.0000 
     18 CA        129.5485   59.5610  120.3950 C.3       3 GLC5        0.0000 
     19 CA        129.9370   60.9410  122.0610 C.3       6 GLP5        0.0000 
     20 N         129.8535   60.0770  117.1430 N.am      2 SEC2        0.0000 
     21 N         129.5960   59.5180  118.4620 N.am      8 SEL2        0.0000 
     22 N         130.1110   60.6360  115.8240 N.am      5 SEP2        0.0000 
     23 O         129.1585   60.5410  119.2740 O.2       1 ALC1        0.0000 
     24 O         129.5960   59.5180  118.4620 O.2       7 ALL1        0.0000 
     25 O         128.7210   61.5640  120.0860 O.2       4 ALP1        0.0000 
     26 CA        127.1320   58.1585  116.1950 C.3       3 GLC5        0.0000 
     27 CA        127.8470   57.9410  117.9680 C.3       9 GLL5        0.0000 
     28 CA        126.4170   58.3760  114.4220 C.3       6 GLP5        0.0000 
     29 N         125.6455   54.2640  120.0555 N.am      2 SEC2        0.0000 
     30 N         125.8320   55.5710  119.8170 N.am      8 SEL2        0.0000 
     31 N         125.4590   52.9570  120.2940 N.am      5 SEP2        0.0000 
     32 CA        124.4950   54.6640  119.9040 C.3       3 GLC5        0.0000 
     33 CA        124.9420   56.4420  119.5120 C.3       9 GLL5        0.0000 
     34 CA        124.0480   52.8860  120.2960 C.3       6 GLP5        0.0000 
     35 N         121.4210   55.4395  120.2575 N.am      2 SEC2        0.0000 
     36 N         122.7390   55.8080  120.3750 N.am      8 SEL2        0.0000 
     37 N         120.1030   55.0710  120.1400 N.am      5 SEP2        0.0000 
     38 O         121.7690   58.0760  119.5000 O.2       1 ALC1        0.0000 
     39 O         122.9910   57.7880  119.1690 O.2       7 ALL1        0.0000 
     40 O         120.5470   58.3640  119.8310 O.2       4 ALP1        0.0000 
     41 O         121.7765   59.0890  118.9060 O.2       1 ALC1        0.0000 
     42 O         123.0060   59.8140  117.9810 O.2       7 ALL1        0.0000 
     43 CA        129.3740   57.1785  115.0290 C.3       3 GLC5        0.0000 
     44 CA        129.7010   57.1570  116.8630 C.3       9 GLL5        0.0000 
     45 CA        128.6950   57.7330  113.5950 C.3       6 GLP5        0.0000 
     46 CA        130.7422   57.9433  120.1188 C.3       3 GLC5        0.0000 
     47 CA        130.0290   56.9720  118.3300 C.3       9 GLL5        0.0000 
     48 CA        131.8900   58.3100  121.7080 C.3       6 GLP5        0.0000 
     49 CA        124.2968   58.0252  120.6185 C.3       3 GLC5        0.0000 
     50 CA        125.6130   57.4710  118.7600 C.3       9 GLL5        0.0000 
     51 CA        123.3160   59.0940  122.1010 C.3       6 GLP5        0.0000 
@<TRIPOS>BOND
@<TRIPOS>SUBSTRUCTURE
     1 ALC1       23 GROUP        1 X    ALC  0     ROOT ALC X 1
     2 SEC2        1 GROUP        1 X    SEC  0     **** SEC X 2
     3 GLC5        7 GROUP        1 X    GLC  0     **** GLC X 6
     4 ALP1       25 GROUP        1 Y    ALP  0     ROOT ALP Y 8
     5 SEP2        3 GROUP        1 Y    SEP  0     **** SEP Y 9
     6 GLP5        9 GROUP        1 Y    GLP  0     **** GLP Y 13
     7 ALL1       24 GROUP        1 Z    ALL  0     ROOT ALL Z 15
     8 SEL2        2 GROUP        1 Z    SEL  0     **** SEL Z 16
     9 GLL5        8 GROUP        1 Z    GLL  0     **** GLL Z 20
@<TRIPOS>SET

