#    Name: 1mc0_PCG_1_ligand
#    Modification time : Tue Mar 25 11:33:24 2014

@<TRIPOS>MOLECULE
1mc0_PCG_1_ligand
   34    37     1     0     0
SMALL
NO_CHARGES


@<TRIPOS>ATOM
      1 PA        132.5050   56.8360  117.4630 P.3       1 PCG160      0.0000 
      2 O1A       132.7330   58.0380  116.5450 O.co2     1 PCG160      0.0000 
      3 O2A       133.9060   56.3210  117.7960 O.co2     1 PCG160      0.0000 
      4 O5'       131.7210   55.8380  116.6560 O.3       1 PCG160      0.0000 
      5 C5'       130.4050   56.0910  116.0630 C.3       1 PCG160      0.0000 
      6 C4'       129.7010   57.1570  116.8630 C.3       1 PCG160      0.0000 
      7 O4'       128.2460   57.2890  116.7530 O.3       1 PCG160      0.0000 
      8 C3'       130.0290   56.9720  118.3300 C.3       1 PCG160      0.0000 
      9 O3'       131.5100   56.8240  118.6000 O.3       1 PCG160      0.0000 
     10 C2'       129.1600   58.1810  118.7290 C.3       1 PCG160      0.0000 
     11 O2'       129.5960   59.5180  118.4620 O.3       1 PCG160      0.0000 
     12 C1'       127.8470   57.9410  117.9680 C.3       1 PCG160      0.0000 
     13 N9        126.9600   57.0340  118.7050 N.pl3     1 PCG160      0.0000 
     14 C8        127.0560   55.8190  119.3910 C.2       1 PCG160      0.0000 
     15 N7        125.8320   55.5710  119.8170 N.2       1 PCG160      0.0000 
     16 C5        124.9420   56.4420  119.5120 C.2       1 PCG160      0.0000 
     17 C6        123.5170   56.5950  119.7440 C.2       1 PCG160      0.0000 
     18 O6        122.7390   55.8080  120.3750 O.2       1 PCG160      0.0000 
     19 N1        122.9910   57.7880  119.1690 N.am      1 PCG160      0.0000 
     20 C2        123.7070   58.7540  118.4450 C.2       1 PCG160      0.0000 
     21 N2        123.0060   59.8140  117.9810 N.pl3     1 PCG160      0.0000 
     22 N3        125.0460   58.6530  118.1990 N.2       1 PCG160      0.0000 
     23 C4        125.6130   57.4710  118.7600 C.2       1 PCG160      0.0000 
     24 H         129.7990   55.1841  116.0716 H         1 PCG160      0.0000 
     25 H         130.5074   56.4321  115.0320 H         1 PCG160      0.0000 
     26 H         130.1660   58.1424  116.5951 H         1 PCG160      0.0000 
     27 H         129.4509   56.0844  118.6131 H         1 PCG160      0.0000 
     28 H         128.8848   58.0421  119.7883 H         1 PCG160      0.0000 
     29 H         127.3927   58.8702  117.7725 H         1 PCG160      0.0000 
     30 H         127.8476   55.3222  119.4985 H         1 PCG160      0.0000 
     31 H         121.9454   57.9569  119.3074 H         1 PCG160      0.0000 
     32 H         122.0223   59.8035  118.1603 H         1 PCG160      0.0000 
     33 H         123.5337   60.5140  117.4999 H         1 PCG160      0.0000 
     34 H         129.1820   60.0739  119.1828 H         1 PCG160      0.0000 
@<TRIPOS>BOND
     1    2    1 ar   
     2    3    1 ar   
     3    4    1 1    
     4    9    1 1    
     5    5    4 1    
     6    6    5 1    
     7   24    5 1    
     8   25    5 1    
     9    7    6 1    
    10    8    6 1    
    11   26    6 1    
    12   12    7 1    
    13    9    8 1    
    14   10    8 1    
    15   27    8 1    
    16   11   10 1    
    17   12   10 1    
    18   28   10 1    
    19   34   11 1    
    20   13   12 1    
    21   29   12 1    
    22   14   13 1    
    23   23   13 1    
    24   15   14 2    
    25   30   14 1    
    26   16   15 1    
    27   17   16 1    
    28   23   16 2    
    29   18   17 2    
    30   19   17 am   
    31   20   19 1    
    32   31   19 1    
    33   21   20 1    
    34   22   20 2    
    35   32   21 1    
    36   33   21 1    
    37   23   22 1    
@<TRIPOS>SUBSTRUCTURE
     1 PCG160      1 GROUP   
@<TRIPOS>SET

