#    Name: 3arn_MSJ_3_INTS_M
#    Modification time : Mon Mar 24 18:08:52 2014

@<TRIPOS>MOLECULE
3arn_MSJ_3_INTS_M
   48     0     9     0     0
SMALL
NO_CHARGES


@<TRIPOS>ATOM
      1 N          10.1210   43.3570   35.4165 N.am      2 SEC2        0.0000 
      2 N          10.4620   44.3930   34.5220 N.am      8 SEL2        0.0000 
      3 N           9.7800   42.3210   36.3110 N.am      5 SEP2        0.0000 
      4 O          10.7195   46.3080   32.6540 O.2       1 ALC1        0.0000 
      5 O          10.8740   46.5710   33.9690 O.2       7 ALL1        0.0000 
      6 O          10.5650   46.0450   31.3390 O.2       4 ALP1        0.0000 
      7 CA         11.8105   43.7985   35.9985 C.3       3 GLC5        0.0000 
      8 CA         11.1890   45.7800   36.2310 C.3       9 GLL5        0.0000 
      9 CA         12.4320   41.8170   35.7660 C.3       6 GLP5        0.0000 
     10 CA          9.7820   44.2510   36.2415 C.3       3 GLC5        0.0000 
     11 CA          8.3750   42.7220   36.2520 C.3       6 GLP5        0.0000 
     12 N          11.2240   48.6990   32.0090 N.am      2 SEC2        0.0000 
     13 N          11.3230   48.7210   33.4450 N.am      8 SEL2        0.0000 
     14 N          11.1250   48.6770   30.5730 N.am      5 SEP2        0.0000 
     15 CA         10.0305   48.7780   36.0550 C.3       3 GLC5        0.0000 
     16 CA         12.1900   49.3990   36.0830 C.3       9 GLL5        0.0000 
     17 CA          7.8710   48.1570   36.0270 C.3       6 GLP5        0.0000 
     18 CA         12.5380   50.9700   35.4215 C.3       3 GLC5        0.0000 
     19 CA         12.8860   52.5410   34.7600 C.3       6 GLP5        0.0000 
     20 CA         13.6360   50.8810   34.9295 C.3       3 GLC5        0.0000 
     21 CA         14.3860   49.2210   35.0990 C.3       9 GLL5        0.0000 
     22 CA         14.6855   51.0720   35.7360 C.3       3 GLC5        0.0000 
     23 CA         15.8920   49.2900   35.4830 C.3       9 GLL5        0.0000 
     24 CA         13.4790   52.8540   35.9890 C.3       6 GLP5        0.0000 
     25 CA         15.5275   46.3585   37.1635 C.3       3 GLC5        0.0000 
     26 CA         16.3200   48.0950   36.3600 C.3       9 GLL5        0.0000 
     27 CA         14.7350   44.6220   37.9670 C.3       6 GLP5        0.0000 
     28 CA         13.5240   43.3005   34.8705 C.3       3 GLC5        0.0000 
     29 CA         14.6160   44.7840   33.9750 C.3       9 GLL5        0.0000 
     30 CA         16.4435   45.7425   37.7825 C.3       3 GLC5        0.0000 
     31 CA         18.1520   46.8630   37.5980 C.3       9 GLL5        0.0000 
     32 CA         18.5190   44.9975   37.6215 C.3       3 GLC5        0.0000 
     33 CA         18.8860   43.1320   37.6450 C.3       6 GLP5        0.0000 
     34 CA         13.0777   45.5233   37.1932 C.3       3 GLC5        0.0000 
     35 CA         11.6520   47.0690   36.6080 C.3       9 GLL5        0.0000 
     36 CA          9.6457   47.2908   36.2233 C.3       3 GLC5        0.0000 
     37 CA         13.0328   46.8050   31.2503 C.3       3 GLC5        0.0000 
     38 CA         14.7920   46.5800   32.3660 C.3       9 GLL5        0.0000 
     39 CA         11.6790   47.5240   29.8300 C.3       6 GLP5        0.0000 
     40 CA         15.0575   45.8110   30.8484 C.3       3 GLC5        0.0000 
     41 CA         13.9810   45.5920   32.9750 C.3       9 GLL5        0.0000 
     42 CA         15.3860   45.4790   28.9170 C.3       6 GLP5        0.0000 
     43 CA         15.0140   44.7525   36.0652 C.3       3 GLC5        0.0000 
     44 CA         16.6157   43.7569   33.4885 C.3       3 GLC5        0.0000 
     45 CA         15.9700   44.9820   34.3520 C.3       9 GLL5        0.0000 
     46 CA         17.7290   42.3820   32.9580 C.3       6 GLP5        0.0000 
     47 CA         14.3846   43.5860   33.0173 C.3       3 GLC5        0.0000 
     48 CA         13.6350   42.0870   32.1210 C.3       6 GLP5        0.0000 
@<TRIPOS>BOND
@<TRIPOS>SUBSTRUCTURE
     1 ALC1        4 GROUP        1 X    ALC  0     ROOT ALC X 1
     2 SEC2        1 GROUP        1 X    SEC  0     **** SEC X 2
     3 GLC5        7 GROUP        1 X    GLC  0     **** GLC X 6
     4 ALP1        6 GROUP        1 Y    ALP  0     ROOT ALP Y 8
     5 SEP2        3 GROUP        1 Y    SEP  0     **** SEP Y 9
     6 GLP5        9 GROUP        1 Y    GLP  0     **** GLP Y 13
     7 ALL1        5 GROUP        1 Z    ALL  0     ROOT ALL Z 15
     8 SEL2        2 GROUP        1 Z    SEL  0     **** SEL Z 16
     9 GLL5        8 GROUP        1 Z    GLL  0     **** GLL Z 20
@<TRIPOS>SET

