#    Name: 3arn_MSJ_3_ligand
#    Modification time : Mon Mar 24 18:08:52 2014

@<TRIPOS>MOLECULE
3arn_MSJ_3_ligand
   49    50     1     0     0
SMALL
NO_CHARGES


@<TRIPOS>ATOM
      1 O1         10.4620   44.3930   34.5220 O.2       1 MSJ165      0.0000 
      2 C2         10.8380   45.5540   34.8890 C.2       1 MSJ165      0.0000 
      3 N3         10.8740   46.5710   33.9690 N.am      1 MSJ165      0.0000 
      4 C4         11.3220   47.8180   34.3320 C.2       1 MSJ165      0.0000 
      5 N5         11.7070   48.0670   35.6700 N.am      1 MSJ165      0.0000 
      6 C6         11.6520   47.0690   36.6080 C.2       1 MSJ165      0.0000 
      7 C7         11.1890   45.7800   36.2310 C.2       1 MSJ165      0.0000 
      8 O8         11.3230   48.7210   33.4450 O.2       1 MSJ165      0.0000 
      9 C9         12.1900   49.3990   36.0830 C.3       1 MSJ165      0.0000 
     10 C10        17.8700   47.9180   36.4900 C.3       1 MSJ165      0.0000 
     11 O10        13.6000   49.2800   36.3190 O.3       1 MSJ165      0.0000 
     12 C11        14.3860   49.2210   35.0990 C.3       1 MSJ165      0.0000 
     13 C12        15.8920   49.2900   35.4830 C.3       1 MSJ165      0.0000 
     14 S12        18.3290   46.3090   34.2610 S.o2      1 MSJ165      0.0000 
     15 C13        16.3200   48.0950   36.3600 C.3       1 MSJ165      0.0000 
     16 O13        19.1590   46.3100   33.0980 O.2       1 MSJ165      0.0000 
     17 C14        16.8080   45.9770   33.7740 C.ar      1 MSJ165      0.0000 
     18 C15        16.1620   46.8080   32.8030 C.ar      1 MSJ165      0.0000 
     19 C16        14.7920   46.5800   32.3660 C.ar      1 MSJ165      0.0000 
     20 C17        13.9810   45.5920   32.9750 C.ar      1 MSJ165      0.0000 
     21 N17        18.5070   47.5910   35.1750 N.pl3     1 MSJ165      0.0000 
     22 C18        14.6160   44.7840   33.9750 C.ar      1 MSJ165      0.0000 
     23 O19        18.7200   45.1980   35.0150 O.2       1 MSJ165      0.0000 
     24 C20        15.9700   44.9820   34.3520 C.ar      1 MSJ165      0.0000 
     25 C25        18.1520   46.8630   37.5980 C.3       1 MSJ165      0.0000 
     26 C26        18.4820   49.2380   37.0210 C.3       1 MSJ165      0.0000 
     27 H          10.5622   46.3989   32.9960 H         1 MSJ165      0.0000 
     28 H          11.9370   47.2285   37.5776 H         1 MSJ165      0.0000 
     29 H          11.1158   45.0433   36.9207 H         1 MSJ165      0.0000 
     30 H          11.6661   49.7099   36.9865 H         1 MSJ165      0.0000 
     31 H          11.9843   50.1198   35.2922 H         1 MSJ165      0.0000 
     32 H          14.1758   50.0595   34.4440 H         1 MSJ165      0.0000 
     33 H          14.2266   48.2922   34.5622 H         1 MSJ165      0.0000 
     34 H          16.0721   50.2165   36.0264 H         1 MSJ165      0.0000 
     35 H          16.4857   49.2957   34.5700 H         1 MSJ165      0.0000 
     36 H          15.9023   48.2198   37.3674 H         1 MSJ165      0.0000 
     37 H          15.9024   47.1714   35.9388 H         1 MSJ165      0.0000 
     38 H          16.6770   47.5985   32.3928 H         1 MSJ165      0.0000 
     39 H          14.4243   47.1533   31.6033 H         1 MSJ165      0.0000 
     40 H          13.0317   45.4601   32.7312 H         1 MSJ165      0.0000 
     41 H          19.1768   48.2986   34.7733 H         1 MSJ165      0.0000 
     42 H          14.0681   44.0393   34.4297 H         1 MSJ165      0.0000 
     43 H          16.3737   44.3670   35.0912 H         1 MSJ165      0.0000 
     44 H          19.1320   46.7064   37.7210 H         1 MSJ165      0.0000 
     45 H          17.7873   47.1486   38.4842 H         1 MSJ165      0.0000 
     46 H          17.7386   45.9783   37.3823 H         1 MSJ165      0.0000 
     47 H          19.4744   49.1719   37.1249 H         1 MSJ165      0.0000 
     48 H          18.3023   50.0049   36.4049 H         1 MSJ165      0.0000 
     49 H          18.1096   49.4868   37.9151 H         1 MSJ165      0.0000 
@<TRIPOS>BOND
     1    2    1 2    
     2    3    2 1    
     3    7    2 1    
     4    4    3 1    
     5   27    3 1    
     6    5    4 1    
     7    8    4 2    
     8    6    5 1    
     9    9    5 1    
    10    7    6 2    
    11   28    6 1    
    12   29    7 1    
    13   11    9 1    
    14   30    9 1    
    15   31    9 1    
    16   15   10 1    
    17   21   10 1    
    18   25   10 1    
    19   26   10 1    
    20   12   11 1    
    21   13   12 1    
    22   32   12 1    
    23   33   12 1    
    24   15   13 1    
    25   34   13 1    
    26   35   13 1    
    27   16   14 2    
    28   17   14 1    
    29   21   14 1    
    30   23   14 2    
    31   36   15 1    
    32   37   15 1    
    33   18   17 ar   
    34   24   17 ar   
    35   19   18 ar   
    36   38   18 1    
    37   20   19 ar   
    38   39   19 1    
    39   22   20 ar   
    40   40   20 1    
    41   41   21 1    
    42   24   22 ar   
    43   42   22 1    
    44   43   24 1    
    45   44   25 1    
    46   45   25 1    
    47   46   25 1    
    48   47   26 1    
    49   48   26 1    
    50   49   26 1    
@<TRIPOS>SUBSTRUCTURE
     1 MSJ165      1 GROUP   
@<TRIPOS>SET

