#    Name: 5mdh_NAD_1_INTS_M
#    Modification time : Tue Mar 25 13:47:41 2014

@<TRIPOS>MOLECULE
5mdh_NAD_1_INTS_M
   92     0     9     0     0
SMALL
NO_CHARGES


@<TRIPOS>ATOM
      1 N          32.5890   27.3620   18.2255 N.am      2 SEC2        0.0000 
      2 N          34.1500   27.0750   17.9470 N.am      8 SEL2        0.0000 
      3 N          31.0280   27.6490   18.5040 N.am      5 SEP2        0.0000 
      4 N          34.5620   20.3575   19.2415 N.am      2 SEC2        0.0000 
      5 N          34.2730   21.6700   20.3500 N.am      8 SEL2        0.0000 
      6 N          34.8510   19.0450   18.1330 N.am      5 SEP2        0.0000 
      7 O          33.2495   23.6220   23.1765 O.2       1 ALC1        0.0000 
      8 O          33.7600   24.3670   22.2680 O.2       7 ALL1        0.0000 
      9 O          32.7390   22.8770   24.0850 O.2       4 ALP1        0.0000 
     10 O          35.2630   22.6735   24.1085 O.2       1 ALC1        0.0000 
     11 O          36.0380   23.2060   23.1050 O.2       7 ALL1        0.0000 
     12 O          34.4880   22.1410   25.1120 O.2       4 ALP1        0.0000 
     13 O          34.3885   23.0415   23.5950 O.2       1 ALC1        0.0000 
     14 CA         33.0815   21.3020   21.7460 C.3       3 GLC5        0.0000 
     15 CA         34.7440   21.6060   21.7010 C.3       9 GLL5        0.0000 
     16 CA         31.4190   20.9980   21.7910 C.3       6 GLP5        0.0000 
     17 CA         33.8105   20.1270   20.5545 C.3       3 GLC5        0.0000 
     18 CA         32.8770   18.6480   19.4080 C.3       6 GLP5        0.0000 
     19 CA         35.9270   15.2920   21.5970 C.3       3 GLC5        0.0000 
     20 CA         35.8770   17.0280   22.8820 C.3       9 GLL5        0.0000 
     21 CA         35.9770   13.5560   20.3120 C.3       6 GLP5        0.0000 
     22 CA         31.7825   17.3430   22.6425 C.3       3 GLC5        0.0000 
     23 CA         33.7630   17.8330   23.5650 C.3       9 GLL5        0.0000 
     24 CA         29.8020   16.8530   21.7200 C.3       6 GLP5        0.0000 
     25 CA         32.5910   19.4155   22.6780 C.3       3 GLC5        0.0000 
     26 CA         32.3530   17.1525   24.9615 C.3       3 GLC5        0.0000 
     27 CA         30.9430   16.4720   26.3580 C.3       6 GLP5        0.0000 
     28 CA         33.1755   19.0825   24.9275 C.3       3 GLC5        0.0000 
     29 CA         32.5880   20.3320   26.2900 C.3       6 GLP5        0.0000 
     30 CA         33.3200   18.2405   21.4865 C.3       3 GLC5        0.0000 
     31 N          32.2735   19.3975   22.5665 N.am      2 SEC2        0.0000 
     32 N          33.8610   19.0270   23.0690 N.am      8 SEL2        0.0000 
     33 N          30.6860   19.7680   22.0640 N.am      5 SEP2        0.0000 
     34 CA         33.2345   20.1100   22.1235 C.3       3 GLC5        0.0000 
     35 CA         35.0500   19.2220   22.4560 C.3       9 GLL5        0.0000 
     36 N          30.4520   25.5475   16.2380 N.am      2 SEC2        0.0000 
     37 N          31.8230   24.5550   16.0660 N.am      8 SEL2        0.0000 
     38 N          29.0810   26.5400   16.4100 N.am      5 SEP2        0.0000 
     39 N          34.9315   18.7195   12.2590 N.am      2 SEC2        0.0000 
     40 N          35.2980   20.1540   12.9740 N.am      8 SEL2        0.0000 
     41 N          34.5650   17.2850   11.5440 N.am      5 SEP2        0.0000 
     42 O          34.7965   20.9005    9.9595 O.2       1 ALC1        0.0000 
     43 O          34.9360   21.8920   10.9490 O.2       7 ALL1        0.0000 
     44 O          34.6570   19.9090    8.9700 O.2       4 ALP1        0.0000 
     45 CA         30.7800   20.1710   11.8510 C.3       3 GLC5        0.0000 
     46 CA         32.8310   20.9820   11.8390 C.3       9 GLL5        0.0000 
     47 CA         28.7290   19.3600   11.8630 C.3       6 GLP5        0.0000 
     48 CA         32.8130   19.1550   12.5075 C.3       3 GLC5        0.0000 
     49 CA         32.7950   17.3280   13.1760 C.3       6 GLP5        0.0000 
     50 CA         28.1635   20.1460    9.0855 C.3       3 GLC5        0.0000 
     51 CA         30.2920   20.8560    9.1900 C.3       9 GLL5        0.0000 
     52 CA         26.0350   19.4360    8.9810 C.3       6 GLP5        0.0000 
     53 N          27.9625   19.8700    6.1875 N.am      2 SEC2        0.0000 
     54 N          28.8730   20.5290    7.3120 N.am      8 SEL2        0.0000 
     55 N          27.0520   19.2110    5.0630 N.am      5 SEP2        0.0000 
     56 O          30.3540   18.0485    9.7235 O.2       1 ALC1        0.0000 
     57 O          29.5520   18.6230    8.4010 O.2       7 ALL1        0.0000 
     58 O          31.1560   17.4740   11.0460 O.2       4 ALP1        0.0000 
     59 O          28.5365   17.6505    7.3700 O.2       1 ALC1        0.0000 
     60 O          27.5210   16.6780    6.3390 O.2       4 ALP1        0.0000 
     61 CA         28.5910   23.0215    7.7860 C.3       3 GLC5        0.0000 
     62 CA         29.9090   22.2040    8.9970 C.3       9 GLL5        0.0000 
     63 CA         27.2730   23.8390    6.5750 C.3       6 GLP5        0.0000 
     64 CA         32.8173   22.2368   21.2372 C.3       3 GLC5        0.0000 
     65 CA         33.8560   23.0650   20.1470 C.3       9 GLL5        0.0000 
     66 CA         32.9735   25.0190   20.4101 C.3       3 GLC5        0.0000 
     67 CA         34.5750   23.8860   21.2200 C.3       9 GLL5        0.0000 
     68 CA         31.6620   26.4820   20.4970 C.3       6 GLP5        0.0000 
     69 CA         34.2193   18.7048   20.8972 C.3       3 GLC5        0.0000 
     70 CA         36.0730   18.3010   22.3170 C.3       9 GLL5        0.0000 
     71 CA         36.3672   19.0876   24.1464 C.3       3 GLC5        0.0000 
     72 CA         37.2220   19.7320   25.7650 C.3       6 GLP5        0.0000 
     73 CA         31.6565   22.3708   14.2583 C.3       3 GLC5        0.0000 
     74 CA         32.9520   21.8480   15.2660 C.3       9 GLL5        0.0000 
     75 CA         30.1780   23.3240   13.8370 C.3       6 GLP5        0.0000 
     76 CA         31.4790   21.2692   15.7617 C.3       3 GLC5        0.0000 
     77 CA         29.8230   21.1210   16.8440 C.3       6 GLP5        0.0000 
     78 CA         33.3735   19.2465   13.4390 C.3       3 GLC5        0.0000 
     79 CA         33.3180   20.9870   14.0930 C.3       9 GLL5        0.0000 
     80 CA         34.5727   19.8956   14.9221 C.3       3 GLC5        0.0000 
     81 CA         34.5860   21.3430   13.3110 C.3       9 GLL5        0.0000 
     82 CA         35.2850   18.4110   15.8490 C.3       6 GLP5        0.0000 
     83 CA         36.1290   22.2740   12.9130 C.3       3 GLC5        0.0000 
     84 CA         37.9650   22.8990   13.1570 C.3       6 GLP5        0.0000 
     85 CA         31.7967   22.3962   12.8850 C.3       3 GLC5        0.0000 
     86 CA         34.0000   21.9550   12.0270 C.3       9 GLL5        0.0000 
     87 CA         29.5332   20.3978   10.5920 C.3       3 GLC5        0.0000 
     88 CA         31.2400   20.4780   10.1000 C.3       9 GLL5        0.0000 
     89 CA         28.7627   23.5405    9.8588 C.3       3 GLC5        0.0000 
     90 CA         27.2750   24.4340   10.3050 C.3       6 GLP5        0.0000 
     91 CA         30.6212   23.1343   12.0695 C.3       3 GLC5        0.0000 
     92 CA         30.5920   23.0900    9.8280 C.3       9 GLL5        0.0000 
@<TRIPOS>BOND
@<TRIPOS>SUBSTRUCTURE
     1 ALC1        7 GROUP        1 X    ALC  0     ROOT ALC X 1
     2 SEC2        1 GROUP        1 X    SEC  0     **** SEC X 2
     3 GLC5       14 GROUP        1 X    GLC  0     **** GLC X 6
     4 ALP1        9 GROUP        1 Y    ALP  0     ROOT ALP Y 8
     5 SEP2        3 GROUP        1 Y    SEP  0     **** SEP Y 9
     6 GLP5       16 GROUP        1 Y    GLP  0     **** GLP Y 13
     7 ALL1        8 GROUP        1 Z    ALL  0     ROOT ALL Z 15
     8 SEL2        2 GROUP        1 Z    SEL  0     **** SEL Z 16
     9 GLL5       15 GROUP        1 Z    GLL  0     **** GLL Z 20
@<TRIPOS>SET

