#    Name: 5mdh_NAD_1_ligand
#    Modification time : Tue Mar 25 13:47:41 2014

@<TRIPOS>MOLECULE
5mdh_NAD_1_ligand
   70    74     1     0     0
SMALL
NO_CHARGES


@<TRIPOS>ATOM
      1 PA         34.4790   25.7090   17.4710 P.3       1 NAD334      0.0000 
      2 O1A        34.1500   27.0750   17.9470 O.co2     1 NAD334      0.0000 
      3 O2A        35.9310   25.4540   17.6440 O.co2     1 NAD334      0.0000 
      4 O5B        33.5930   24.6750   18.3040 O.3       1 NAD334      0.0000 
      5 C5B        34.1340   23.3870   18.7060 C.3       1 NAD334      0.0000 
      6 C4B        33.8560   23.0650   20.1470 C.3       1 NAD334      0.0000 
      7 O4B        34.2730   21.6700   20.3500 O.3       1 NAD334      0.0000 
      8 C3B        34.5750   23.8860   21.2200 C.3       1 NAD334      0.0000 
      9 O3B        33.7600   24.3670   22.2680 O.3       1 NAD334      0.0000 
     10 C2B        35.5770   22.8890   21.8150 C.3       1 NAD334      0.0000 
     11 O2B        36.0380   23.2060   23.1050 O.3       1 NAD334      0.0000 
     12 C1B        34.7440   21.6060   21.7010 C.3       1 NAD334      0.0000 
     13 N9A        35.4970   20.3620   21.8260 N.pl3     1 NAD334      0.0000 
     14 C8A        36.7410   20.0790   21.3400 C.2       1 NAD334      0.0000 
     15 N7A        37.1310   18.8350   21.6160 N.2       1 NAD334      0.0000 
     16 C5A        36.0730   18.3010   22.3170 C.ar      1 NAD334      0.0000 
     17 C6A        35.8770   17.0280   22.8820 C.ar      1 NAD334      0.0000 
     18 N6A        36.7860   16.0640   22.8150 N.pl3     1 NAD334      0.0000 
     19 N1A        34.6900   16.8240   23.5190 N.ar      1 NAD334      0.0000 
     20 C2A        33.7630   17.8330   23.5650 C.ar      1 NAD334      0.0000 
     21 N3A        33.8610   19.0270   23.0690 N.ar      1 NAD334      0.0000 
     22 C4A        35.0500   19.2220   22.4560 C.ar      1 NAD334      0.0000 
     23 O3         34.1010   25.4220   15.9460 O.3       1 NAD334      0.0000 
     24 PN         33.0530   24.4410   15.2350 P.3       1 NAD334      0.0000 
     25 O1N        32.8410   24.8610   13.8390 O.co2     1 NAD334      0.0000 
     26 O2N        31.8230   24.5550   16.0660 O.co2     1 NAD334      0.0000 
     27 O5D        33.7810   23.0170   15.3710 O.3       1 NAD334      0.0000 
     28 C5D        32.9520   21.8480   15.2660 C.3       1 NAD334      0.0000 
     29 C4D        33.3180   20.9870   14.0930 C.3       1 NAD334      0.0000 
     30 O4D        32.2270   20.9500   13.1240 O.3       1 NAD334      0.0000 
     31 C3D        34.5860   21.3430   13.3110 C.3       1 NAD334      0.0000 
     32 O3D        35.2980   20.1540   12.9740 O.3       1 NAD334      0.0000 
     33 C2D        34.0000   21.9550   12.0270 C.3       1 NAD334      0.0000 
     34 O2D        34.9360   21.8920   10.9490 O.3       1 NAD334      0.0000 
     35 C1D        32.8310   20.9820   11.8390 C.3       1 NAD334      0.0000 
     36 N1N        31.8340   21.4210   10.8750 N.pl3     1 NAD334      0.0000 
     37 C2N        31.2400   20.4780   10.1000 C.ar      1 NAD334      0.0000 
     38 C3N        30.2920   20.8560    9.1900 C.ar      1 NAD334      0.0000 
     39 C7N        29.4940   19.9440    8.2090 C.2       1 NAD334      0.0000 
     40 O7N        28.8730   20.5290    7.3120 O.2       1 NAD334      0.0000 
     41 N7N        29.5520   18.6230    8.4010 N.am      1 NAD334      0.0000 
     42 C4N        29.9090   22.2040    8.9970 C.ar      1 NAD334      0.0000 
     43 C5N        30.5920   23.0900    9.8280 C.ar      1 NAD334      0.0000 
     44 C6N        31.5370   22.7990   10.7760 C.ar      1 NAD334      0.0000 
     45 H          35.2301   23.3617   18.5462 H         1 NAD334      0.0000 
     46 H          33.7115   22.5778   18.0780 H         1 NAD334      0.0000 
     47 H          32.7853   23.1142   20.3317 H         1 NAD334      0.0000 
     48 H          35.1528   24.6443   20.7354 H         1 NAD334      0.0000 
     49 H          36.3667   22.7918   21.0676 H         1 NAD334      0.0000 
     50 H          33.9309   21.6634   22.3711 H         1 NAD334      0.0000 
     51 H          37.2839   20.7418   20.8364 H         1 NAD334      0.0000 
     52 H          37.6379   16.2944   22.3447 H         1 NAD334      0.0000 
     53 H          36.5371   15.1941   23.2409 H         1 NAD334      0.0000 
     54 H          32.8325   17.5705   24.0928 H         1 NAD334      0.0000 
     55 H          31.8835   22.1306   15.1695 H         1 NAD334      0.0000 
     56 H          33.0232   21.2311   16.1854 H         1 NAD334      0.0000 
     57 H          33.4563   19.9403   14.4558 H         1 NAD334      0.0000 
     58 H          35.1203   22.0610   13.8189 H         1 NAD334      0.0000 
     59 H          33.6190   22.8923   12.2581 H         1 NAD334      0.0000 
     60 H          33.2316   20.0243   11.5971 H         1 NAD334      0.0000 
     61 H          31.4989   19.4816   10.1935 H         1 NAD334      0.0000 
     62 H          30.1080   18.3145    9.1728 H         1 NAD334      0.0000 
     63 H          29.0342   18.0614    7.7556 H         1 NAD334      0.0000 
     64 H          29.2346   22.4746    8.3460 H         1 NAD334      0.0000 
     65 H          30.3371   24.1402    9.7016 H         1 NAD334      0.0000 
     66 H          31.9797   23.4691   11.3448 H         1 NAD334      0.0000 
     67 H          33.5452   23.5609   22.8194 H         1 NAD334      0.0000 
     68 H          35.4176   22.7273   23.7263 H         1 NAD334      0.0000 
     69 H          35.6173   20.3003   12.0377 H         1 NAD334      0.0000 
     70 H          34.4134   21.5389   10.1730 H         1 NAD334      0.0000 
@<TRIPOS>BOND
     1    2    1 ar   
     2    3    1 ar   
     3    4    1 1    
     4   23    1 1    
     5    5    4 1    
     6    6    5 1    
     7   45    5 1    
     8   46    5 1    
     9    7    6 1    
    10    8    6 1    
    11   47    6 1    
    12   12    7 1    
    13    9    8 1    
    14   10    8 1    
    15   48    8 1    
    16   67    9 1    
    17   11   10 1    
    18   12   10 1    
    19   49   10 1    
    20   68   11 1    
    21   13   12 1    
    22   50   12 1    
    23   14   13 1    
    24   22   13 1    
    25   15   14 2    
    26   51   14 1    
    27   16   15 1    
    28   17   16 ar   
    29   22   16 ar   
    30   18   17 1    
    31   19   17 ar   
    32   52   18 1    
    33   53   18 1    
    34   20   19 ar   
    35   21   20 ar   
    36   54   20 1    
    37   22   21 ar   
    38   24   23 1    
    39   25   24 ar   
    40   26   24 ar   
    41   27   24 1    
    42   28   27 1    
    43   29   28 1    
    44   55   28 1    
    45   56   28 1    
    46   30   29 1    
    47   31   29 1    
    48   57   29 1    
    49   35   30 1    
    50   32   31 1    
    51   33   31 1    
    52   58   31 1    
    53   69   32 1    
    54   34   33 1    
    55   35   33 1    
    56   59   33 1    
    57   70   34 1    
    58   36   35 1    
    59   60   35 1    
    60   37   36 ar   
    61   44   36 ar   
    62   38   37 ar   
    63   61   37 1    
    64   39   38 1    
    65   42   38 ar   
    66   40   39 2    
    67   41   39 am   
    68   62   41 1    
    69   63   41 1    
    70   43   42 ar   
    71   64   42 1    
    72   44   43 ar   
    73   65   43 1    
    74   66   44 1    
@<TRIPOS>SUBSTRUCTURE
     1 NAD334      1 GROUP   
@<TRIPOS>SET

