#    Name: 3fj6_CIH_2_INTS_M
#    Modification time : Tue Mar 25 05:38:10 2014

@<TRIPOS>MOLECULE
3fj6_CIH_2_INTS_M
   71     0     6     0     0
SMALL
NO_CHARGES


@<TRIPOS>ATOM
      1 CA         -8.1690   29.0090   -3.8355 C.3       2 GLC5        0.0000 
      2 CA         -8.0460   30.7970   -3.5900 C.3       6 GLL5        0.0000 
      3 CA         -8.2920   27.2210   -4.0810 C.3       4 GLP5        0.0000 
      4 CA         -8.4650   30.5405   -5.4960 C.3       2 GLC5        0.0000 
      5 CA         -8.8840   30.2840   -7.4020 C.3       4 GLP5        0.0000 
      6 CA         -6.6790   30.9525   -4.6005 C.3       2 GLC5        0.0000 
      7 CA         -5.3120   31.1080   -5.6110 C.3       4 GLP5        0.0000 
      8 CA         -6.0430   30.1085   -2.9670 C.3       2 GLC5        0.0000 
      9 CA         -4.0400   29.4200   -2.3440 C.3       4 GLP5        0.0000 
     10 CA         -9.5460   34.4655   -0.2415 C.3       2 GLC5        0.0000 
     11 CA         -9.3130   32.5250   -0.1830 C.3       6 GLL5        0.0000 
     12 CA         -9.7790   36.4060   -0.3000 C.3       4 GLP5        0.0000 
     13 CA         -6.4080   34.1555    1.9950 C.3       2 GLC5        0.0000 
     14 CA         -6.1900   32.4930    0.6360 C.3       6 GLL5        0.0000 
     15 CA         -6.6260   35.8180    3.3540 C.3       4 GLP5        0.0000 
     16 CA         -6.9340   31.6870    2.2330 C.3       2 GLC5        0.0000 
     17 CA         -7.6780   30.8810    3.8300 C.3       4 GLP5        0.0000 
     18 CA         -4.6015   32.2615    1.1940 C.3       2 GLC5        0.0000 
     19 CA         -3.0130   32.0300    1.7520 C.3       4 GLP5        0.0000 
     20 CA         -6.7645   30.6865    0.4690 C.3       2 GLC5        0.0000 
     21 CA         -7.3390   28.8800    0.3020 C.3       4 GLP5        0.0000 
     22 CA         -3.4200   34.8195   -2.5520 C.3       2 GLC5        0.0000 
     23 CA         -5.6270   35.1420   -2.2900 C.3       6 GLL5        0.0000 
     24 CA         -1.2130   34.4970   -2.8140 C.3       4 GLP5        0.0000 
     25 CA         -2.0280   38.5195    0.3200 C.3       2 GLC5        0.0000 
     26 CA         -2.8600   39.0630   -1.4710 C.3       6 GLL5        0.0000 
     27 CA         -1.1960   37.9760    2.1110 C.3       4 GLP5        0.0000 
     28 N          -2.2175   40.0135    0.6680 N.am      1 SEC2        0.0000 
     29 N          -2.3630   39.8250   -0.7500 N.am      5 SEL2        0.0000 
     30 N          -2.0720   40.2020    2.0860 N.am      3 SEP2        0.0000 
     31 CA         -5.0655   38.6095   -4.8835 C.3       2 GLC5        0.0000 
     32 CA         -3.3040   38.2270   -3.8550 C.3       6 GLL5        0.0000 
     33 CA         -6.8270   38.9920   -5.9120 C.3       4 GLP5        0.0000 
     34 CA         -2.4180   40.8420   -5.3660 C.3       2 GLC5        0.0000 
     35 CA         -2.4490   39.3340   -4.4700 C.3       6 GLL5        0.0000 
     36 CA         -2.3870   42.3500   -6.2620 C.3       4 GLP5        0.0000 
     37 CA         -0.9875   39.3025   -5.7630 C.3       2 GLC5        0.0000 
     38 CA          0.4740   39.2710   -7.0560 C.3       4 GLP5        0.0000 
     39 CA         -7.4652   29.9877   -1.8845 C.3       2 GLC5        0.0000 
     40 CA         -6.4430   28.9990   -0.9020 C.3       4 GLP5        0.0000 
     41 CA        -10.3912   28.3567   -0.7380 C.3       2 GLC5        0.0000 
     42 CA         -9.9970   30.3390   -1.7740 C.3       6 GLL5        0.0000 
     43 CA        -10.4220   26.2380   -0.2820 C.3       4 GLP5        0.0000 
     44 CA         -8.8498   29.6777   -0.4460 C.3       2 GLC5        0.0000 
     45 CA        -10.6860   30.3578    1.3223 C.3       2 GLC5        0.0000 
     46 CA        -10.3800   31.7010    0.1810 C.3       6 GLL5        0.0000 
     47 CA        -10.8200   29.5590    2.8610 C.3       4 GLP5        0.0000 
     48 CA         -8.5928   30.4965    0.1505 C.3       2 GLC5        0.0000 
     49 CA        -11.7598   32.7469   -0.0954 C.3       2 GLC5        0.0000 
     50 CA        -13.5870   33.6530    0.0090 C.3       4 GLP5        0.0000 
     51 CA         -8.1408   34.5545   -0.9050 C.3       2 GLC5        0.0000 
     52 CA         -8.5530   32.2420   -1.3390 C.3       6 GLL5        0.0000 
     53 CA         -8.2390   36.4070   -0.3200 C.3       4 GLP5        0.0000 
     54 CA         -4.4848   32.9625    0.3948 C.3       2 GLC5        0.0000 
     55 CA         -5.4810   34.3810   -1.1260 C.3       6 GLL5        0.0000 
     56 CA         -6.8401   31.0273   -1.0232 C.3       2 GLC5        0.0000 
     57 CA         -6.4320   33.4090   -0.7990 C.3       6 GLL5        0.0000 
     58 CA         -4.9705   33.6202   -3.3100 C.3       2 GLC5        0.0000 
     59 CA         -4.3870   32.4790   -4.9120 C.3       4 GLP5        0.0000 
     60 CA         -5.7955   33.4592   -3.9300 C.3       2 GLC5        0.0000 
     61 CA         -6.7330   34.9270   -3.1120 C.3       6 GLL5        0.0000 
     62 CA         -7.4685   34.5757   -4.7330 C.3       2 GLC5        0.0000 
     63 CA         -7.7330   34.7120   -6.5180 C.3       4 GLP5        0.0000 
     64 CA         -4.4630   39.7985   -1.4370 C.3       2 GLC5        0.0000 
     65 CA         -3.4700   38.1210   -2.3530 C.3       6 GLL5        0.0000 
     66 CA         -5.7610   41.0050   -0.9620 C.3       4 GLP5        0.0000 
     67 CA         -1.8970   37.5340   -1.6195 C.3       2 GLC5        0.0000 
     68 CA         -0.6290   36.4760   -1.3270 C.3       4 GLP5        0.0000 
     69 CA         -1.7388   37.3503   -3.4577 C.3       2 GLC5        0.0000 
     70 CA         -0.6010   35.9200   -2.7530 C.3       4 GLP5        0.0000 
     71 CA         -7.3684   35.4430   -1.3036 C.3       2 GLC5        0.0000 
@<TRIPOS>BOND
@<TRIPOS>SUBSTRUCTURE
     1 SEC2       28 GROUP        1 X    SEC  0     ROOT SEC X 2
     2 GLC5        1 GROUP        1 X    GLC  0     **** GLC X 6
     3 SEP2       30 GROUP        1 Y    SEP  0     ROOT SEP Y 9
     4 GLP5        3 GROUP        1 Y    GLP  0     **** GLP Y 13
     5 SEL2       29 GROUP        1 Z    SEL  0     ROOT SEL Z 16
     6 GLL5        2 GROUP        1 Z    GLL  0     **** GLL Z 20
@<TRIPOS>SET

