#    Name: 3fj6_CIH_2_ligand
#    Modification time : Tue Mar 25 05:38:10 2014

@<TRIPOS>MOLECULE
3fj6_CIH_2_ligand
   35    36     1     0     0
SMALL
NO_CHARGES


@<TRIPOS>ATOM
      1 CLAE       -8.0460   30.7970   -3.5900 Cl        1 CIH399      0.0000 
      2 CAS        -8.9290   31.1560   -2.1440 C.ar      1 CIH399      0.0000 
      3 CAJ        -9.9970   30.3390   -1.7740 C.ar      1 CIH399      0.0000 
      4 CAH       -10.7240   30.6120   -0.6140 C.ar      1 CIH399      0.0000 
      5 CAI       -10.3800   31.7010    0.1810 C.ar      1 CIH399      0.0000 
      6 CAL        -9.3130   32.5250   -0.1830 C.ar      1 CIH399      0.0000 
      7 CAV        -8.5530   32.2420   -1.3390 C.ar      1 CIH399      0.0000 
      8 CAW        -7.5320   33.1620   -1.6410 C.ar      1 CIH399      0.0000 
      9 CAT        -6.4320   33.4090   -0.7990 C.ar      1 CIH399      0.0000 
     10 CAN        -5.4810   34.3810   -1.1260 C.ar      1 CIH399      0.0000 
     11 CLAF       -6.1900   32.4930    0.6360 Cl        1 CIH399      0.0000 
     12 CAM        -7.6750   33.9520   -2.7840 C.ar      1 CIH399      0.0000 
     13 CAK        -6.7330   34.9270   -3.1120 C.ar      1 CIH399      0.0000 
     14 CAU        -5.6270   35.1420   -2.2900 C.ar      1 CIH399      0.0000 
     15 NAO        -4.8160   36.1290   -2.6450 N.am      1 CIH399      0.0000 
     16 CAQ        -4.3090   37.0010   -1.7600 C.2       1 CIH399      0.0000 
     17 OAC        -4.4410   36.9320   -0.5330 O.2       1 CIH399      0.0000 
     18 CAR        -3.4700   38.1210   -2.3530 C.2       1 CIH399      0.0000 
     19 CAG        -2.8600   39.0630   -1.4710 C.1       1 CIH399      0.0000 
     20 NAA        -2.3630   39.8250   -0.7500 N.1       1 CIH399      0.0000 
     21 CAP        -3.3040   38.2270   -3.8550 C.2       1 CIH399      0.0000 
     22 CAB        -2.4490   39.3340   -4.4700 C.3       1 CIH399      0.0000 
     23 OAD        -3.9030   37.2820   -4.6390 O.3       1 CIH399      0.0000 
     24 H         -10.2507   29.5311   -2.3584 H         1 CIH399      0.0000 
     25 H         -11.5115   30.0086   -0.3493 H         1 CIH399      0.0000 
     26 H         -10.9109   31.9011    1.0382 H         1 CIH399      0.0000 
     27 H          -9.0740   33.3435    0.3890 H         1 CIH399      0.0000 
     28 H          -4.6744   34.5360   -0.5103 H         1 CIH399      0.0000 
     29 H          -8.4959   33.8106   -3.3988 H         1 CIH399      0.0000 
     30 H          -6.8547   35.4903   -3.9646 H         1 CIH399      0.0000 
     31 H          -4.5527   36.2398   -3.6705 H         1 CIH399      0.0000 
     32 H          -1.4997   39.2861   -4.1593 H         1 CIH399      0.0000 
     33 H          -2.4337   39.2801   -5.4684 H         1 CIH399      0.0000 
     34 H          -2.7902   40.2430   -4.2308 H         1 CIH399      0.0000 
     35 H          -3.7599   37.5960   -5.5776 H         1 CIH399      0.0000 
@<TRIPOS>BOND
     1    2    1 1    
     2    3    2 ar   
     3    7    2 ar   
     4    4    3 ar   
     5   24    3 1    
     6    5    4 ar   
     7   25    4 1    
     8    6    5 ar   
     9   26    5 1    
    10    7    6 ar   
    11   27    6 1    
    12    8    7 1    
    13    9    8 ar   
    14   12    8 ar   
    15   10    9 ar   
    16   11    9 1    
    17   14   10 ar   
    18   28   10 1    
    19   13   12 ar   
    20   29   12 1    
    21   14   13 ar   
    22   30   13 1    
    23   15   14 1    
    24   16   15 am   
    25   31   15 1    
    26   17   16 2    
    27   18   16 1    
    28   19   18 1    
    29   21   18 2    
    30   20   19 3    
    31   22   21 1    
    32   23   21 1    
    33   32   22 1    
    34   33   22 1    
    35   34   22 1    
    36   35   23 1    
@<TRIPOS>SUBSTRUCTURE
     1 CIH399      1 GROUP   
@<TRIPOS>SET

