#    Name: 2bek_ATP_4_INTS_M
#    Modification time : Mon Mar 24 20:48:02 2014

@<TRIPOS>MOLECULE
2bek_ATP_4_INTS_M
   90     0    15     0     0
SMALL
NO_CHARGES


@<TRIPOS>ATOM
      1 NZ          9.0400   68.0510   50.7185 N.4       3 LYC4        0.0000 
      2 NZ          7.8740   68.6480   50.2320 N.4      13 LYL4        0.0000 
      3 NZ         10.2060   67.4540   51.2050 N.4       8 LYP4        0.0000 
      4 N           9.0400   68.0510   50.7185 N.am      2 SEC2        0.0000 
      5 N           7.8740   68.6480   50.2320 N.am     12 SEL2        0.0000 
      6 N          10.2060   67.4540   51.2050 N.am      7 SEP2        0.0000 
      7 N           7.9460   67.7225   49.1370 N.am      2 SEC2        0.0000 
      8 N           8.0180   66.7970   48.0420 N.am      7 SEP2        0.0000 
      9 NZ          7.8315   72.2340   48.9010 N.4       3 LYC4        0.0000 
     10 NZ          7.8540   70.7840   48.9410 N.4      13 LYL4        0.0000 
     11 NZ          7.8090   73.6840   48.8610 N.4       8 LYP4        0.0000 
     12 N           9.1615   70.6850   48.3500 N.am      2 SEC2        0.0000 
     13 N           7.8540   70.7840   48.9410 N.am     12 SEL2        0.0000 
     14 N          10.4690   70.5860   47.7590 N.am      7 SEP2        0.0000 
     15 N           7.8315   72.2340   48.9010 N.am      2 SEC2        0.0000 
     16 N           7.8090   73.6840   48.8610 N.am      7 SEP2        0.0000 
     17 NZ          7.3705   72.1805   50.0480 N.4       3 LYC4        0.0000 
     18 NZ          6.9320   70.6770   51.2350 N.4      13 LYL4        0.0000 
     19 Zn          7.0960   70.9130   52.2660 Zn        4 ZIC7        0.0000 
     20 Zn          6.9320   70.6770   51.2350 Zn       14 ZIL7        0.0000 
     21 Zn          7.2600   71.1490   53.2970 Zn        9 ZIP7        0.0000 
     22 NZ          9.1780   73.2650   49.7235 N.4       3 LYC4        0.0000 
     23 NZ         10.5470   72.8460   50.5860 N.4      13 LYL4        0.0000 
     24 N          11.4195   72.8235   49.6250 N.am      2 SEC2        0.0000 
     25 N          10.5470   72.8460   50.5860 N.am     12 SEL2        0.0000 
     26 N          12.2920   72.8010   48.6640 N.am      7 SEP2        0.0000 
     27 N          11.7200   73.3715   50.8165 N.am      2 SEC2        0.0000 
     28 N          12.8930   73.8970   51.0470 N.am      7 SEP2        0.0000 
     29 N          10.6430   73.9325   51.5365 N.am      2 SEC2        0.0000 
     30 N          10.7390   75.0190   52.4870 N.am      7 SEP2        0.0000 
     31 N           9.1780   73.2650   49.7235 N.am      2 SEC2        0.0000 
     32 Zn          8.3260   71.5750   53.0835 Zn        4 ZIC7        0.0000 
     33 Zn          9.3920   72.0010   52.8700 Zn       14 ZIL7        0.0000 
     34 N           9.3380   72.9970   53.8080 N.am      2 SEC2        0.0000 
     35 N           9.3920   72.0010   52.8700 N.am     12 SEL2        0.0000 
     36 N           9.2840   73.9930   54.7460 N.am      7 SEP2        0.0000 
     37 N           9.8040   69.0000   50.9895 N.am      2 SEC2        0.0000 
     38 N           9.4020   70.5460   50.7740 N.am     12 SEL2        0.0000 
     39 N           9.9355   70.5660   49.2665 N.am      2 SEC2        0.0000 
     40 N          11.6745   72.5215   55.3995 N.am      2 SEC2        0.0000 
     41 N          11.9160   71.6310   54.2170 N.am     12 SEL2        0.0000 
     42 N          11.4330   73.4120   56.5820 N.am      7 SEP2        0.0000 
     43 N          12.8755   71.7135   55.2730 N.am      2 SEC2        0.0000 
     44 N          13.8350   71.7960   56.3290 N.am      7 SEP2        0.0000 
     45 NZ         10.6880   68.4085   52.2680 N.4       3 LYC4        0.0000 
     46 NZ         11.1700   69.3630   53.3310 N.4      13 LYL4        0.0000 
     47 N          10.6880   68.4085   52.2680 N.am      2 SEC2        0.0000 
     48 N          11.1700   69.3630   53.3310 N.am     12 SEL2        0.0000 
     49 N          12.0220   72.6670   51.4395 N.am      2 SEC2        0.0000 
     50 N          11.1510   71.4370   51.8320 N.am     12 SEL2        0.0000 
     51 CA         12.7060   69.9140   50.1000 C.3       5 GLC5        0.0000 
     52 CA         13.6990   69.3710   51.6980 C.3      15 GLL5        0.0000 
     53 CA         11.7130   70.4570   48.5020 C.3      10 GLP5        0.0000 
     54 O          15.7300   66.3135   53.4725 O.2       1 ALC1        0.0000 
     55 O          14.4580   66.4940   53.8390 O.2      11 ALL1        0.0000 
     56 O          17.0020   66.1330   53.1060 O.2       6 ALP1        0.0000 
     57 CA         16.7850   70.1220   52.1545 C.3       5 GLC5        0.0000 
     58 CA         16.2500   69.0340   53.9490 C.3      15 GLL5        0.0000 
     59 CA         17.3200   71.2100   50.3600 C.3      10 GLP5        0.0000 
     60 CA         17.3645   67.8345   55.2830 C.3       5 GLC5        0.0000 
     61 CA         18.4790   66.6350   56.6170 C.3      10 GLP5        0.0000 
     62 CA         21.5255   72.7590   53.8205 C.3       5 GLC5        0.0000 
     63 CA         19.5990   72.5160   54.3970 C.3      15 GLL5        0.0000 
     64 CA         23.4520   73.0020   53.2440 C.3      10 GLP5        0.0000 
     65 O          21.2460   74.3370   54.6605 O.2       1 ALC1        0.0000 
     66 O          19.8420   73.8080   54.2870 O.2      11 ALL1        0.0000 
     67 O          22.6500   74.8660   55.0340 O.2       6 ALP1        0.0000 
     68 N          22.0980   71.7060   54.9415 N.am      2 SEC2        0.0000 
     69 N          20.6240   71.6370   54.5580 N.am     12 SEL2        0.0000 
     70 N          23.5720   71.7750   55.3250 N.am      7 SEP2        0.0000 
     71 CA         21.9790   70.5400   53.3245 C.3       5 GLC5        0.0000 
     72 CA         20.3630   70.3230   54.5980 C.3      15 GLL5        0.0000 
     73 CA         23.5950   70.7570   52.0510 C.3      10 GLP5        0.0000 
     74 CA         22.2895   70.7185   55.5260 C.3       5 GLC5        0.0000 
     75 CA         24.2160   71.1140   56.4540 C.3      10 GLP5        0.0000 
     76 CA         19.7855   70.9620   56.4825 C.3       5 GLC5        0.0000 
     77 CA         19.2080   71.6010   58.3670 C.3      10 GLP5        0.0000 
     78 CA         17.7300   70.9280   52.3720 C.3       5 GLC5        0.0000 
     79 CA         18.1400   70.6460   54.3840 C.3      15 GLL5        0.0000 
     80 CA         18.6740   71.1235   56.3755 C.3       5 GLC5        0.0000 
     81 CA         15.7320   70.0350   51.2002 C.3       5 GLC5        0.0000 
     82 CA         14.5890   68.3490   52.3830 C.3      15 GLL5        0.0000 
     83 CA         12.9260   67.7757   55.2075 C.3       5 GLC5        0.0000 
     84 CA         14.1290   67.8920   53.7570 C.3      15 GLL5        0.0000 
     85 CA         11.3260   67.2250   56.1950 C.3      10 GLP5        0.0000 
     86 CA         18.4488   73.0157   52.5725 C.3       5 GLC5        0.0000 
     87 CA         18.2640   72.0170   54.3430 C.3      15 GLL5        0.0000 
     88 CA         17.9660   73.7650   50.7750 C.3      10 GLP5        0.0000 
     89 CA         19.4808   73.0497   55.9915 C.3       5 GLC5        0.0000 
     90 CA         20.0300   73.8330   57.6130 C.3      10 GLP5        0.0000 
@<TRIPOS>BOND
@<TRIPOS>SUBSTRUCTURE
     1 ALC1       54 GROUP        1 X    ALC  0     ROOT ALC X 1
     2 SEC2        4 GROUP        1 X    SEC  0     **** SEC X 2
     3 LYC4        1 GROUP        1 X    LYC  0     **** LYC X 4
     4 ZIC7       19 GROUP        1 X    ZIC  0     **** ZIC X 5
     5 GLC5       51 GROUP        1 X    GLC  0     **** GLC X 6
     6 ALP1       56 GROUP        1 Y    ALP  0     ROOT ALP Y 8
     7 SEP2        6 GROUP        1 Y    SEP  0     **** SEP Y 9
     8 LYP4        3 GROUP        1 Y    LYP  0     **** LYP Y 11
     9 ZIP7       21 GROUP        1 Y    ZIP  0     **** ZIP Y 12
    10 GLP5       53 GROUP        1 Y    GLP  0     **** GLP Y 13
    11 ALL1       55 GROUP        1 Z    ALL  0     ROOT ALL Z 15
    12 SEL2        5 GROUP        1 Z    SEL  0     **** SEL Z 16
    13 LYL4        2 GROUP        1 Z    LYL  0     **** LYL Z 18
    14 ZIL7       20 GROUP        1 Z    ZIL  0     **** ZIL Z 19
    15 GLL5       52 GROUP        1 Z    GLL  0     **** GLL Z 20
@<TRIPOS>SET

