#    Name: 2bek_ATP_4_ligand
#    Modification time : Mon Mar 24 20:48:02 2014

@<TRIPOS>MOLECULE
2bek_ATP_4_ligand
   43    45     1     0     0
SMALL
NO_CHARGES


@<TRIPOS>ATOM
      1 PG          7.9250   70.1240   50.2510 P.3       1 ATP500      0.0000 
      2 O1G         7.8740   68.6480   50.2320 O.co2     1 ATP500      0.0000 
      3 O2G         7.8540   70.7840   48.9410 O.co2     1 ATP500      0.0000 
      4 O3G         6.9320   70.6770   51.2350 O.co2     1 ATP500      0.0000 
      5 PB          9.7000   72.0040   51.4450 P.3       1 ATP500      0.0000 
      6 O1B        10.5470   72.8460   50.5860 O.co2     1 ATP500      0.0000 
      7 O2B         9.3920   72.0010   52.8700 O.co2     1 ATP500      0.0000 
      8 O3B         9.4020   70.5460   50.7740 O.3       1 ATP500      0.0000 
      9 PA         11.8400   70.6710   53.0980 P.3       1 ATP500      0.0000 
     10 O1A        11.9160   71.6310   54.2170 O.co2     1 ATP500      0.0000 
     11 O2A        11.1700   69.3630   53.3310 O.co2     1 ATP500      0.0000 
     12 O3A        11.1510   71.4370   51.8320 O.3       1 ATP500      0.0000 
     13 O5'        13.3150   70.4420   52.5970 O.3       1 ATP500      0.0000 
     14 C5'        13.6990   69.3710   51.6980 C.3       1 ATP500      0.0000 
     15 C4'        14.5890   68.3490   52.3830 C.3       1 ATP500      0.0000 
     16 O4'        15.8970   68.9480   52.5640 O.3       1 ATP500      0.0000 
     17 C3'        14.1290   67.8920   53.7570 C.3       1 ATP500      0.0000 
     18 O3'        14.4580   66.4940   53.8390 O.3       1 ATP500      0.0000 
     19 C2'        14.9230   68.7610   54.6830 C.3       1 ATP500      0.0000 
     20 O2'        15.1770   68.1300   55.9360 O.3       1 ATP500      0.0000 
     21 C1'        16.2500   69.0340   53.9490 C.3       1 ATP500      0.0000 
     22 N9         16.8250   70.3870   54.1650 N.pl3     1 ATP500      0.0000 
     23 C8         16.2160   71.6210   54.1570 C.2       1 ATP500      0.0000 
     24 N7         17.0330   72.6360   54.2550 N.2       1 ATP500      0.0000 
     25 C5         18.2640   72.0170   54.3430 C.ar      1 ATP500      0.0000 
     26 C6         19.5990   72.5160   54.3970 C.ar      1 ATP500      0.0000 
     27 N6         19.8420   73.8080   54.2870 N.pl3     1 ATP500      0.0000 
     28 N1         20.6240   71.6370   54.5580 N.ar      1 ATP500      0.0000 
     29 C2         20.3630   70.3230   54.5980 C.ar      1 ATP500      0.0000 
     30 N3         19.1520   69.7240   54.5830 N.ar      1 ATP500      0.0000 
     31 C4         18.1400   70.6460   54.3840 C.ar      1 ATP500      0.0000 
     32 H          14.2425   69.7680   50.8239 H         1 ATP500      0.0000 
     33 H          12.8095   68.8461   51.3102 H         1 ATP500      0.0000 
     34 H          14.6890   67.4803   51.7432 H         1 ATP500      0.0000 
     35 H          13.1059   68.0941   53.8402 H         1 ATP500      0.0000 
     36 H          14.4231   69.7048   54.7880 H         1 ATP500      0.0000 
     37 H          16.9431   68.2703   54.1977 H         1 ATP500      0.0000 
     38 H          15.2114   71.6988   54.0798 H         1 ATP500      0.0000 
     39 H          19.1918   74.3328   53.7376 H         1 ATP500      0.0000 
     40 H          20.6543   74.1450   54.7630 H         1 ATP500      0.0000 
     41 H          21.2286   69.6542   54.6487 H         1 ATP500      0.0000 
     42 H          15.1761   66.3568   53.1567 H         1 ATP500      0.0000 
     43 H          15.0667   67.1518   55.7601 H         1 ATP500      0.0000 
@<TRIPOS>BOND
     1    2    1 ar   
     2    3    1 ar   
     3    4    1 ar   
     4    8    1 1    
     5    6    5 ar   
     6    7    5 ar   
     7    8    5 1    
     8   12    5 1    
     9   10    9 ar   
    10   11    9 ar   
    11   12    9 1    
    12   13    9 1    
    13   14   13 1    
    14   15   14 1    
    15   32   14 1    
    16   33   14 1    
    17   16   15 1    
    18   17   15 1    
    19   34   15 1    
    20   21   16 1    
    21   18   17 1    
    22   19   17 1    
    23   35   17 1    
    24   42   18 1    
    25   20   19 1    
    26   21   19 1    
    27   36   19 1    
    28   43   20 1    
    29   22   21 1    
    30   37   21 1    
    31   23   22 1    
    32   31   22 1    
    33   24   23 2    
    34   38   23 1    
    35   25   24 1    
    36   26   25 ar   
    37   31   25 ar   
    38   27   26 1    
    39   28   26 ar   
    40   39   27 1    
    41   40   27 1    
    42   29   28 ar   
    43   30   29 ar   
    44   41   29 1    
    45   31   30 ar   
@<TRIPOS>SUBSTRUCTURE
     1 ATP500      1 GROUP   
@<TRIPOS>SET

