#    Name: 4knz_CB3_2_INTS_M
#    Modification time : Tue Mar 25 08:07:42 2014

@<TRIPOS>MOLECULE
4knz_CB3_2_INTS_M
   43     0     6     0     0
SMALL
NO_CHARGES


@<TRIPOS>ATOM
      1 O          75.3010   33.8435   33.8675 O.2       1 ALC1        0.0000 
      2 O          76.4820   34.1790   32.9860 O.2       5 ALL1        0.0000 
      3 O          74.1200   33.5080   34.7490 O.2       3 ALP1        0.0000 
      4 CA         82.0335   39.5365   38.8495 C.3       2 GLC5        0.0000 
      5 CA         81.6130   37.6070   37.7850 C.3       6 GLL5        0.0000 
      6 CA         82.4540   41.4660   39.9140 C.3       4 GLP5        0.0000 
      7 CA         82.3130   36.5610   38.9865 C.3       2 GLC5        0.0000 
      8 CA         83.0130   35.5150   40.1880 C.3       4 GLP5        0.0000 
      9 CA         82.3530   36.0130   36.6260 C.3       2 GLC5        0.0000 
     10 CA         83.0930   34.4190   35.4670 C.3       4 GLP5        0.0000 
     11 CA         82.9340   41.4960   34.9350 C.3       2 GLC5        0.0000 
     12 CA         81.0460   40.9000   35.9570 C.3       6 GLL5        0.0000 
     13 CA         84.8220   42.0920   33.9130 C.3       4 GLP5        0.0000 
     14 CA         76.8510   43.3930   32.9005 C.3       2 GLC5        0.0000 
     15 CA         77.0740   44.5710   34.3430 C.3       6 GLL5        0.0000 
     16 CA         76.6280   42.2150   31.4580 C.3       4 GLP5        0.0000 
     17 CA         80.0260   45.4490   35.9610 C.3       2 GLC5        0.0000 
     18 CA         77.9350   46.0180   36.2360 C.3       6 GLL5        0.0000 
     19 CA         82.1170   44.8800   35.6860 C.3       4 GLP5        0.0000 
     20 CA         82.7990   40.3855   38.3835 C.3       2 GLC5        0.0000 
     21 CA         83.1440   39.3050   36.8530 C.3       6 GLL5        0.0000 
     22 CA         83.4620   41.2400   36.3735 C.3       2 GLC5        0.0000 
     23 CA         83.7800   43.1750   35.8940 C.3       4 GLP5        0.0000 
     24 CA         77.2030   36.5630   35.0658 C.3       2 GLC5        0.0000 
     25 CA         79.4440   36.2550   34.9140 C.3       6 GLL5        0.0000 
     26 CA         75.3470   37.3430   34.8740 C.3       4 GLP5        0.0000 
     27 CA         79.9715   34.6460   33.9327 C.3       2 GLC5        0.0000 
     28 CA         78.6740   35.3110   35.6010 C.3       6 GLL5        0.0000 
     29 CA         80.8840   33.5090   32.6080 C.3       4 GLP5        0.0000 
     30 CA         79.2788   33.6275   37.8927 C.3       2 GLC5        0.0000 
     31 CA         79.8240   35.8400   37.6550 C.3       6 GLL5        0.0000 
     32 CA         79.2120   31.7830   38.4750 C.3       4 GLP5        0.0000 
     33 CA         81.6290   35.3902   36.2230 C.3       2 GLC5        0.0000 
     34 CA         79.8483   40.7717   38.2657 C.3       2 GLC5        0.0000 
     35 CA         78.3660   40.3250   36.4300 C.3       6 GLL5        0.0000 
     36 CA         79.9060   41.7220   39.8720 C.3       4 GLP5        0.0000 
     37 CA         80.0005   42.1539   37.4555 C.3       2 GLC5        0.0000 
     38 CA         79.7840   43.0490   39.1220 C.3       4 GLP5        0.0000 
     39 CA         83.0495   38.8550   33.2297 C.3       2 GLC5        0.0000 
     40 CA         83.6750   38.9340   35.4960 C.3       6 GLL5        0.0000 
     41 CA         82.2170   38.8910   31.5100 C.3       4 GLP5        0.0000 
     42 CA         84.3520   40.4555   34.4312 C.3       2 GLC5        0.0000 
     43 CA         84.0890   38.7040   34.4030 C.3       6 GLL5        0.0000 
@<TRIPOS>BOND
@<TRIPOS>SUBSTRUCTURE
     1 ALC1        1 GROUP        1 X    ALC  0     ROOT ALC X 1
     2 GLC5        4 GROUP        1 X    GLC  0     **** GLC X 6
     3 ALP1        3 GROUP        1 Y    ALP  0     ROOT ALP Y 8
     4 GLP5        6 GROUP        1 Y    GLP  0     **** GLP Y 13
     5 ALL1        2 GROUP        1 Z    ALL  0     ROOT ALL Z 15
     6 GLL5        5 GROUP        1 Z    GLL  0     **** GLL Z 20
@<TRIPOS>SET

