#    Name: 4knz_CB3_2_ligand
#    Modification time : Tue Mar 25 08:07:42 2014

@<TRIPOS>MOLECULE
4knz_CB3_2_ligand
   55    57     1     0     0
SMALL
NO_CHARGES


@<TRIPOS>ATOM
      1 N1         77.6760   34.6010   34.9430 N.pl3     1 CB3302      0.0000 
      2 C2         77.4370   34.8320   33.6170 C.2       1 CB3302      0.0000 
      3 NA2        76.4820   34.1790   32.9860 N.pl3     1 CB3302      0.0000 
      4 N3         78.1960   35.7410   32.9220 N.2       1 CB3302      0.0000 
      5 C4         79.2080   36.4470   33.5380 C.2       1 CB3302      0.0000 
      6 O4         79.9980   37.0550   32.7990 O.2       1 CB3302      0.0000 
      7 C4A        79.4440   36.2550   34.9140 C.ar      1 CB3302      0.0000 
      8 C5         80.4130   36.9830   35.6170 C.ar      1 CB3302      0.0000 
      9 C6         80.5990   36.7830   36.9890 C.ar      1 CB3302      0.0000 
     10 C7         79.8240   35.8400   37.6550 C.ar      1 CB3302      0.0000 
     11 C8         78.8670   35.1040   36.9660 C.ar      1 CB3302      0.0000 
     12 C8A        78.6740   35.3110   35.6010 C.ar      1 CB3302      0.0000 
     13 C9         81.6130   37.6070   37.7850 C.3       1 CB3302      0.0000 
     14 N10        81.7690   38.9050   37.1170 N.pl3     1 CB3302      0.0000 
     15 C11        78.7170   41.4730   35.7340 C.ar      1 CB3302      0.0000 
     16 C12        78.3660   40.3250   36.4300 C.ar      1 CB3302      0.0000 
     17 C13        79.3700   39.4730   36.9000 C.ar      1 CB3302      0.0000 
     18 C14        80.7130   39.7440   36.6540 C.ar      1 CB3302      0.0000 
     19 C15        81.0460   40.9000   35.9570 C.ar      1 CB3302      0.0000 
     20 C16        80.0590   41.7620   35.5080 C.ar      1 CB3302      0.0000 
     21 C          77.6540   42.4100   35.2700 C.2       1 CB3302      0.0000 
     22 O          76.4040   42.0860   35.4270 O.2       1 CB3302      0.0000 
     23 N          78.0250   43.5820   34.7770 N.am      1 CB3302      0.0000 
     24 CA         77.0740   44.5710   34.3430 C.3       1 CB3302      0.0000 
     25 CB         76.7100   45.5020   35.4890 C.3       1 CB3302      0.0000 
     26 CG         77.9350   46.0180   36.2360 C.3       1 CB3302      0.0000 
     27 CD         77.4680   46.9210   37.3470 C.2       1 CB3302      0.0000 
     28 OE1        77.2830   48.1340   37.1050 O.co2     1 CB3302      0.0000 
     29 OE2        77.2540   46.4640   38.4930 O.co2     1 CB3302      0.0000 
     30 CT         77.6680   45.3750   33.2310 C.2       1 CB3302      0.0000 
     31 O1         76.9290   46.1150   32.5450 O.co2     1 CB3302      0.0000 
     32 O2         78.9130   45.2890   33.0070 O.co2     1 CB3302      0.0000 
     33 CP1        83.1440   39.3050   36.8530 C.3       1 CB3302      0.0000 
     34 CP2        83.6750   38.9340   35.4960 C.1       1 CB3302      0.0000 
     35 CP3        84.0890   38.7040   34.4030 C.1       1 CB3302      0.0000 
     36 H          77.1227   33.9034   35.4637 H         1 CB3302      0.0000 
     37 H          75.6854   33.9257   33.5349 H         1 CB3302      0.0000 
     38 H          76.6409   33.9963   32.0158 H         1 CB3302      0.0000 
     39 H          80.9934   37.6718   35.1180 H         1 CB3302      0.0000 
     40 H          79.9600   35.6860   38.6652 H         1 CB3302      0.0000 
     41 H          78.2991   34.4047   37.4628 H         1 CB3302      0.0000 
     42 H          82.5524   37.0668   37.8090 H         1 CB3302      0.0000 
     43 H          81.2384   37.7319   38.7945 H         1 CB3302      0.0000 
     44 H          77.3823   40.0997   36.6002 H         1 CB3302      0.0000 
     45 H          79.1083   38.6300   37.4379 H         1 CB3302      0.0000 
     46 H          82.0398   41.1162   35.7733 H         1 CB3302      0.0000 
     47 H          80.3177   42.6235   35.0031 H         1 CB3302      0.0000 
     48 H          79.0359   43.8447   34.6797 H         1 CB3302      0.0000 
     49 H          76.1684   44.1048   33.9868 H         1 CB3302      0.0000 
     50 H          76.0591   44.9692   36.1939 H         1 CB3302      0.0000 
     51 H          76.1453   46.3563   35.0944 H         1 CB3302      0.0000 
     52 H          78.5634   46.5700   35.5507 H         1 CB3302      0.0000 
     53 H          78.4810   45.1797   36.6462 H         1 CB3302      0.0000 
     54 H          83.8252   38.8659   37.6252 H         1 CB3302      0.0000 
     55 H          83.2510   40.4123   36.9778 H         1 CB3302      0.0000 
@<TRIPOS>BOND
     1    2    1 1    
     2   12    1 1    
     3   36    1 1    
     4    3    2 1    
     5    4    2 2    
     6   37    3 1    
     7   38    3 1    
     8    5    4 1    
     9    6    5 2    
    10    7    5 1    
    11    8    7 ar   
    12   12    7 ar   
    13    9    8 ar   
    14   39    8 1    
    15   10    9 ar   
    16   13    9 1    
    17   11   10 ar   
    18   40   10 1    
    19   12   11 ar   
    20   41   11 1    
    21   14   13 1    
    22   42   13 1    
    23   43   13 1    
    24   18   14 1    
    25   33   14 1    
    26   16   15 ar   
    27   20   15 ar   
    28   21   15 1    
    29   17   16 ar   
    30   44   16 1    
    31   18   17 ar   
    32   45   17 1    
    33   19   18 ar   
    34   20   19 ar   
    35   46   19 1    
    36   47   20 1    
    37   22   21 2    
    38   23   21 am   
    39   24   23 1    
    40   48   23 1    
    41   25   24 1    
    42   30   24 1    
    43   49   24 1    
    44   26   25 1    
    45   50   25 1    
    46   51   25 1    
    47   27   26 1    
    48   52   26 1    
    49   53   26 1    
    50   28   27 ar   
    51   29   27 ar   
    52   31   30 ar   
    53   32   30 ar   
    54   34   33 1    
    55   54   33 1    
    56   55   33 1    
    57   35   34 3    
@<TRIPOS>SUBSTRUCTURE
     1 CB3302      1 GROUP   
@<TRIPOS>SET

