#    Name: 1fg6_2NC_1_INTS_M
#    Modification time : Tue Mar 25 01:22:21 2014

@<TRIPOS>MOLECULE
1fg6_2NC_1_INTS_M
  120     0    12     0     0
SMALL
NO_CHARGES


@<TRIPOS>ATOM
      1 CA         23.0920   21.9655   20.6425 C.3       4 GLC5        0.0000 
      2 CA         23.3020   23.6980   19.8970 C.3      12 GLL5        0.0000 
      3 CA         22.8820   20.2330   21.3880 C.3       8 GLP5        0.0000 
      4 O          22.4195   24.2295   17.2825 O.2       1 ALC1        0.0000 
      5 O          22.8480   25.4030   18.2870 O.2       9 ALL1        0.0000 
      6 O          21.9910   23.0560   16.2780 O.2       5 ALP1        0.0000 
      7 N          19.6535   28.8895   17.5365 N.am      2 SEC2        0.0000 
      8 N          20.2030   27.5850   17.8350 N.am     10 SEL2        0.0000 
      9 N          19.1040   30.1940   17.2380 N.am      6 SEP2        0.0000 
     10 N          19.9695   28.0665   19.2140 N.am      2 SEC2        0.0000 
     11 N          19.7360   28.5480   20.5930 N.am      6 SEP2        0.0000 
     12 CA         22.3425   29.1675   16.9050 C.3       4 GLC5        0.0000 
     13 CA         23.2990   27.2320   16.5850 C.3      12 GLL5        0.0000 
     14 CA         21.3860   31.1030   17.2250 C.3       8 GLP5        0.0000 
     15 N          23.7690   24.6290   14.9730 N.am      2 SEC2        0.0000 
     16 N          23.4930   26.2000   15.6210 N.am     10 SEL2        0.0000 
     17 N          24.0450   23.0580   14.3250 N.am      6 SEP2        0.0000 
     18 O          21.2635   24.3575   16.4870 O.2       1 ALC1        0.0000 
     19 O          20.5360   25.6590   16.6960 O.2       9 ALL1        0.0000 
     20 CA         18.1250   27.2030   16.7775 C.3       4 GLC5        0.0000 
     21 CA         19.1580   25.5560   16.2130 C.3      12 GLL5        0.0000 
     22 CA         17.0920   28.8500   17.3420 C.3       8 GLP5        0.0000 
     23 CA         18.9700   23.7055   13.1800 C.3       4 GLC5        0.0000 
     24 CA         19.1510   25.3410   14.6890 C.3      12 GLL5        0.0000 
     25 CA         18.7890   22.0700   11.6710 C.3       8 GLP5        0.0000 
     26 CA         21.7975   25.7700   12.9930 C.3       4 GLC5        0.0000 
     27 CA         20.1730   26.2810   14.0300 C.3      12 GLL5        0.0000 
     28 CA         23.4220   25.2590   11.9560 C.3       8 GLP5        0.0000 
     29 CA         17.0210   27.0885   15.0935 C.3       4 GLC5        0.0000 
     30 CA         17.7470   25.5710   14.1190 C.3      12 GLL5        0.0000 
     31 CA         16.2950   28.6060   16.0680 C.3       8 GLP5        0.0000 
     32 CA         18.1705   26.5880   12.3355 C.3       4 GLC5        0.0000 
     33 CA         18.5940   27.6050   10.5520 C.3       8 GLP5        0.0000 
     34 CA         16.2500   25.2000   13.1770 C.3       4 GLC5        0.0000 
     35 CA         14.7530   24.8290   12.2350 C.3       8 GLP5        0.0000 
     36 CA         17.6120   24.0540   12.6190 C.3       4 GLC5        0.0000 
     37 CA         17.4770   22.5370   11.1190 C.3       8 GLP5        0.0000 
     38 CA         18.1265   28.1775   15.1795 C.3       4 GLC5        0.0000 
     39 CA         19.9580   27.7490   14.2910 C.3      12 GLL5        0.0000 
     40 CA         20.3325   29.5545   13.4235 C.3       4 GLC5        0.0000 
     41 CA         20.7070   31.3600   12.5560 C.3       8 GLP5        0.0000 
     42 O          17.5495   25.9805   18.7505 O.2       1 ALC1        0.0000 
     43 O          17.6830   24.7910   17.9700 O.2       9 ALL1        0.0000 
     44 O          17.4160   27.1700   19.5310 O.2       5 ALP1        0.0000 
     45 CA         16.3395   25.9665   20.4420 C.3       4 GLC5        0.0000 
     46 CA         17.2050   23.9500   20.2060 C.3      12 GLL5        0.0000 
     47 CA         15.4740   27.9830   20.6780 C.3       8 GLP5        0.0000 
     48 CA         21.1320   21.4550   20.7405 C.3       4 GLC5        0.0000 
     49 CA         19.3820   22.6770   20.0930 C.3      12 GLL5        0.0000 
     50 CA         17.9120   19.7075   20.1030 C.3       4 GLC5        0.0000 
     51 CA         18.7830   21.4270   20.6880 C.3      12 GLL5        0.0000 
     52 CA         17.0410   17.9880   19.5180 C.3       8 GLP5        0.0000 
     53 CA         20.0465   19.9705   20.9960 C.3       4 GLC5        0.0000 
     54 CA         21.3100   18.5140   21.3040 C.3       8 GLP5        0.0000 
     55 CA         17.5985   22.1570   22.3150 C.3       4 GLC5        0.0000 
     56 CA         16.4140   22.8870   23.9420 C.3       8 GLP5        0.0000 
     57 OD1        14.5450   24.7655   16.7925 O.co2     3 ASC3        0.0000 
     58 OD1        15.1990   23.3570   17.1440 O.co2    11 ASL3        0.0000 
     59 OD1        13.8910   26.1740   16.4410 O.co2     7 ASP3        0.0000 
     60 CA         14.1255   20.1220   11.2780 C.3       4 GLC5        0.0000 
     61 CA         13.8340   21.1480   12.8600 C.3      12 GLL5        0.0000 
     62 CA         14.4170   19.0960    9.6960 C.3       8 GLP5        0.0000 
     63 CA         14.2935   22.9885   12.5475 C.3       4 GLC5        0.0000 
     64 CA         14.8260   19.5400   13.9880 C.3       4 GLC5        0.0000 
     65 CA         15.8180   17.9320   15.1160 C.3       8 GLP5        0.0000 
     66 CA         15.8585   20.5205   12.7345 C.3       4 GLC5        0.0000 
     67 CA         17.8830   19.8930   12.6090 C.3       8 GLP5        0.0000 
     68 O          11.6705   22.0570   17.7010 O.2       1 ALC1        0.0000 
     69 O          12.6800   21.0280   17.6130 O.2       9 ALL1        0.0000 
     70 O          10.6610   23.0860   17.7890 O.2       5 ALP1        0.0000 
     71 CA         11.3805   20.9390   19.1970 C.3       4 GLC5        0.0000 
     72 CA         12.5700   19.6290   18.0140 C.3      12 GLL5        0.0000 
     73 CA         10.1910   22.2490   20.3800 C.3       8 GLP5        0.0000 
     74 N           9.2890   20.2380   19.2060 N.am      2 SEC2        0.0000 
     75 N          10.1810   19.8570   18.0020 N.am     10 SEL2        0.0000 
     76 N           8.3970   20.6190   20.4100 N.am      6 SEP2        0.0000 
     77 CA         12.1085   20.8005   20.4835 C.3       4 GLC5        0.0000 
     78 CA         12.9810   19.4530   19.4860 C.3      12 GLL5        0.0000 
     79 CA         11.2360   22.1480   21.4810 C.3       8 GLP5        0.0000 
     80 CA         13.2655   17.5195   22.0535 C.3       4 GLC5        0.0000 
     81 CA         12.8250   18.0310   20.0530 C.3      12 GLL5        0.0000 
     82 CA         13.7060   17.0080   24.0540 C.3       8 GLP5        0.0000 
     83 CA         13.6565   16.2820   20.6790 C.3       4 GLC5        0.0000 
     84 CA         14.4880   14.5330   21.3050 C.3       8 GLP5        0.0000 
     85 N           9.5475   18.8110   21.7450 N.am      2 SEC2        0.0000 
     86 N          10.6800   18.6600   20.9080 N.am     10 SEL2        0.0000 
     87 N           8.4150   18.9620   22.5820 N.am      6 SEP2        0.0000 
     88 O           9.6750   16.1415   21.1355 O.2       1 ALC1        0.0000 
     89 O          11.0440   16.4720   20.5960 O.2       9 ALL1        0.0000 
     90 O           8.3060   15.8110   21.6750 O.2       5 ALP1        0.0000 
     91 O          12.2850   17.4515   16.7425 O.2       1 ALC1        0.0000 
     92 O          11.0490   17.9310   17.2370 O.2       9 ALL1        0.0000 
     93 O          13.5210   16.9720   16.2480 O.2       5 ALP1        0.0000 
     94 N          11.8535   14.7445   17.1530 N.am      2 SEC2        0.0000 
     95 N          10.6200   15.2470   17.7160 N.am     10 SEL2        0.0000 
     96 N          13.0870   14.2420   16.5900 N.am      6 SEP2        0.0000 
     97 CA          9.9515   19.6130   11.9620 C.3       4 GLC5        0.0000 
     98 CA          9.1080   18.0730   13.2210 C.3      12 GLL5        0.0000 
     99 CA         10.7950   21.1530   10.7030 C.3       8 GLP5        0.0000 
    100 O           7.5805   16.9205   17.9770 O.2       1 ALC1        0.0000 
    101 O           8.5240   15.7130   18.1750 O.2       9 ALL1        0.0000 
    102 O           6.6370   18.1280   17.7790 O.2       5 ALP1        0.0000 
    103 CA         19.3297   27.3100   12.3562 C.3       4 GLC5        0.0000 
    104 CA         17.8622   25.3760   21.8570 C.3       4 GLC5        0.0000 
    105 CA         17.7820   26.8090   23.3180 C.3       8 GLP5        0.0000 
    106 CA         17.1782   23.4150   22.1690 C.3       4 GLC5        0.0000 
    107 CA         18.6800   23.9360   20.5860 C.3      12 GLL5        0.0000 
    108 CA         19.9528   21.3755   18.8178 C.3       4 GLC5        0.0000 
    109 CA         20.8230   20.6990   17.2450 C.3       8 GLP5        0.0000 
    110 CA         19.5265   22.8419   22.0509 C.3       4 GLC5        0.0000 
    111 CA         20.1460   23.3170   23.5880 C.3       8 GLP5        0.0000 
    112 CA         11.3688   23.7755   14.7432 C.3       4 GLC5        0.0000 
    113 CA         13.7330   23.0990   15.1830 C.3      12 GLL5        0.0000 
    114 CA          9.6260   24.7760   14.6170 C.3       8 GLP5        0.0000 
    115 CA         13.9322   23.8020   13.5522 C.3       4 GLC5        0.0000 
    116 CA         12.4900   22.4510   14.5560 C.3      12 GLL5        0.0000 
    117 CA         12.0160   21.3039   12.1329 C.3       4 GLC5        0.0000 
    118 CA         14.9720   18.3650   19.6438 C.3       4 GLC5        0.0000 
    119 CA         13.8220   19.7700   21.2372 C.3       4 GLC5        0.0000 
    120 CA         14.7410   20.7980   22.7050 C.3       8 GLP5        0.0000 
@<TRIPOS>BOND
@<TRIPOS>SUBSTRUCTURE
     1 ALC1        4 GROUP        1 X    ALC  0     ROOT ALC X 1
     2 SEC2        7 GROUP        1 X    SEC  0     **** SEC X 2
     3 ASC3       57 GROUP        1 X    ASC  0     **** ASC X 3
     4 GLC5        1 GROUP        1 X    GLC  0     **** GLC X 6
     5 ALP1        6 GROUP        1 Y    ALP  0     ROOT ALP Y 8
     6 SEP2        9 GROUP        1 Y    SEP  0     **** SEP Y 9
     7 ASP3       59 GROUP        1 Y    ASP  0     **** ASP Y 10
     8 GLP5        3 GROUP        1 Y    GLP  0     **** GLP Y 13
     9 ALL1        5 GROUP        1 Z    ALL  0     ROOT ALL Z 15
    10 SEL2        8 GROUP        1 Z    SEL  0     **** SEL Z 16
    11 ASL3       58 GROUP        1 Z    ASL  0     **** ASL Z 17
    12 GLL5        2 GROUP        1 Z    GLL  0     **** GLL Z 20
@<TRIPOS>SET

