#    Name: 1fg6_2NC_1_ligand
#    Modification time : Tue Mar 25 01:22:21 2014

@<TRIPOS>MOLECULE
1fg6_2NC_1_ligand
  121   120     1     0     0
SMALL
NO_CHARGES


@<TRIPOS>ATOM
      1 C          22.8620   25.1190   19.5920 C.2       1 2NC300      0.0000 
      2 O          22.5800   25.9440   20.4760 O.2       1 2NC300      0.0000 
      3 CH3        23.3020   23.6980   19.8970 C.3       1 2NC300      0.0000 
      4 N          22.8480   25.4030   18.2870 N.am      1 2NC300      0.0000 
      5 CA         22.4350   26.7140   17.7990 C.3       1 2NC300      0.0000 
      6 C1         20.9540   26.7040   17.4160 C.2       1 2NC300      0.0000 
      7 O1         20.2030   27.5850   17.8350 O.2       1 2NC300      0.0000 
      8 CB         23.2990   27.2320   16.5850 C.3       1 2NC300      0.0000 
      9 OG1        23.4930   26.2000   15.6210 O.3       1 2NC300      0.0000 
     10 CG2        24.6520   27.6820   17.0710 C.3       1 2NC300      0.0000 
     11 N1         20.5360   25.6590   16.6960 N.am      1 2NC300      0.0000 
     12 CA1        19.1580   25.5560   16.2130 C.3       1 2NC300      0.0000 
     13 C2         18.3860   24.4410   16.9020 C.2       1 2NC300      0.0000 
     14 O2         18.3750   23.2900   16.4500 O.2       1 2NC300      0.0000 
     15 CB1        19.1510   25.3410   14.6890 C.3       1 2NC300      0.0000 
     16 CG1        20.1730   26.2810   14.0300 C.3       1 2NC300      0.0000 
     17 CG21       17.7470   25.5710   14.1190 C.3       1 2NC300      0.0000 
     18 CD1        19.9580   27.7490   14.2910 C.3       1 2NC300      0.0000 
     19 N2         17.6830   24.7910   17.9700 N.am      1 2NC300      0.0000 
     20 CA2        16.9610   23.7780   18.7170 C.3       1 2NC300      0.0000 
     21 C3         15.5010   23.5050   18.4290 C.3       1 2NC300      0.0000 
     22 CB2        17.2050   23.9500   20.2060 C.3       1 2NC300      0.0000 
     23 CG         18.6800   23.9360   20.5860 C.3       1 2NC300      0.0000 
     24 CD         19.3820   22.6770   20.0930 C.3       1 2NC300      0.0000 
     25 CE         18.7830   21.4270   20.6880 C.3       1 2NC300      0.0000 
     26 N3         15.1990   23.3570   17.1440 N.4       1 2NC300      0.0000 
     27 CA3        13.8600   22.9710   16.7080 C.3       1 2NC300      0.0000 
     28 C4         13.8150   21.4940   17.1100 C.2       1 2NC300      0.0000 
     29 O3         14.8270   20.7980   17.0150 O.2       1 2NC300      0.0000 
     30 CB3        13.7330   23.0990   15.1830 C.3       1 2NC300      0.0000 
     31 CG3        12.4900   22.4510   14.5560 C.3       1 2NC300      0.0000 
     32 CD2        12.7900   21.0720   13.9750 C.3       1 2NC300      0.0000 
     33 CE1        13.8340   21.1480   12.8600 C.3       1 2NC300      0.0000 
     34 N4         12.6800   21.0280   17.6130 N.am      1 2NC300      0.0000 
     35 CA4        12.5700   19.6290   18.0140 C.3       1 2NC300      0.0000 
     36 C5         11.1530   19.1420   17.7650 C.2       1 2NC300      0.0000 
     37 O4         10.1810   19.8570   18.0020 O.2       1 2NC300      0.0000 
     38 CB4        12.9810   19.4530   19.4860 C.3       1 2NC300      0.0000 
     39 CG4        12.8250   18.0310   20.0530 C.3       1 2NC300      0.0000 
     40 CD3        11.4180   17.7450   20.5570 C.2       1 2NC300      0.0000 
     41 OE1        10.6800   18.6600   20.9080 O.2       1 2NC300      0.0000 
     42 NE2        11.0440   16.4720   20.5960 N.am      1 2NC300      0.0000 
     43 N5         11.0490   17.9310   17.2370 N.am      1 2NC300      0.0000 
     44 CA5         9.7600   17.3260   16.9510 C.3       1 2NC300      0.0000 
     45 C6          9.6250   15.9940   17.6700 C.2       1 2NC300      0.0000 
     46 O5         10.6200   15.2470   17.7160 O.2       1 2NC300      0.0000 
     47 CB5         9.6000   17.1200   15.4500 C.3       1 2NC300      0.0000 
     48 CG5         9.3920   18.3980   14.6700 C.3       1 2NC300      0.0000 
     49 CD4         9.1080   18.0730   13.2210 C.3       1 2NC300      0.0000 
     50 NE          8.4670   19.1840   12.5290 N.pl3     1 2NC300      0.0000 
     51 CZ          8.0520   19.1320   11.2670 C.cat     1 2NC300      0.0000 
     52 NH1         8.2140   18.0190   10.5610 N.pl3     1 2NC300      0.0000 
     53 NH2         7.4800   20.1940   10.7100 N.pl3     1 2NC300      0.0000 
     54 N6          8.5240   15.7130   18.1750 N.am      1 2NC300      0.0000 
     55 H          23.1269   24.7135   17.5637 H         1 2NC300      0.0000 
     56 H          22.5509   27.4648   18.5982 H         1 2NC300      0.0000 
     57 H          22.7836   28.0774   16.1639 H         1 2NC300      0.0000 
     58 H          21.1642   24.8701   16.4433 H         1 2NC300      0.0000 
     59 H          18.6306   26.4971   16.4014 H         1 2NC300      0.0000 
     60 H          19.4461   24.3212   14.4894 H         1 2NC300      0.0000 
     61 H          20.1596   26.0954   12.9362 H         1 2NC300      0.0000 
     62 H          21.1859   25.9896   14.3768 H         1 2NC300      0.0000 
     63 H          17.6141   25.7578   18.3124 H         1 2NC300      0.0000 
     64 H          17.5007   22.7654   18.4943 H         1 2NC300      0.0000 
     65 H          14.9255   24.3446   18.9274 H         1 2NC300      0.0000 
     66 H          15.2255   22.6030   19.0575 H         1 2NC300      0.0000 
     67 H          16.6876   23.1446   20.7518 H         1 2NC300      0.0000 
     68 H          16.7597   24.9020   20.5370 H         1 2NC300      0.0000 
     69 H          18.7715   23.9957   21.6749 H         1 2NC300      0.0000 
     70 H          19.1710   24.8137   20.1546 H         1 2NC300      0.0000 
     71 H          20.4445   22.7357   20.3567 H         1 2NC300      0.0000 
     72 H          19.3092   22.6339   19.0000 H         1 2NC300      0.0000 
     73 H          13.1193   23.4908   17.2054 H         1 2NC300      0.0000 
     74 H          14.6369   22.6585   14.7140 H         1 2NC300      0.0000 
     75 H          13.7441   24.1758   14.9157 H         1 2NC300      0.0000 
     76 H          12.1123   23.1028   13.7628 H         1 2NC300      0.0000 
     77 H          11.7137   22.3595   15.3212 H         1 2NC300      0.0000 
     78 H          11.8698   20.6420   13.5748 H         1 2NC300      0.0000 
     79 H          13.1607   20.4199   14.7683 H         1 2NC300      0.0000 
     80 H          11.8377   21.6092   17.7451 H         1 2NC300      0.0000 
     81 H          13.2449   19.0227   17.4074 H         1 2NC300      0.0000 
     82 H          12.3835   20.1488   20.1062 H         1 2NC300      0.0000 
     83 H          14.0373   19.7650   19.5986 H         1 2NC300      0.0000 
     84 H          13.5396   17.9001   20.8754 H         1 2NC300      0.0000 
     85 H          13.0839   17.3093   19.2681 H         1 2NC300      0.0000 
     86 H          11.7377   15.8013   20.3333 H         1 2NC300      0.0000 
     87 H          10.1024   16.2987   20.8846 H         1 2NC300      0.0000 
     88 H          11.8847   17.3519   17.0004 H         1 2NC300      0.0000 
     89 H           8.9568   17.9733   17.2860 H         1 2NC300      0.0000 
     90 H           8.7442   16.4431   15.2737 H         1 2NC300      0.0000 
     91 H          10.4968   16.6011   15.0652 H         1 2NC300      0.0000 
     92 H          10.2870   19.0131   14.7353 H         1 2NC300      0.0000 
     93 H           8.5521   18.9473   15.0901 H         1 2NC300      0.0000 
     94 H           8.4696   17.1739   13.1848 H         1 2NC300      0.0000 
     95 H          10.0604   17.8088   12.7306 H         1 2NC300      0.0000 
     96 H           8.3487   20.0594   13.1088 H         1 2NC300      0.0000 
     97 H           8.6078   17.2409   11.0504 H         1 2NC300      0.0000 
     98 H           7.9275   18.0595    9.6038 H         1 2NC300      0.0000 
     99 H           7.2029   20.0940    9.7544 H         1 2NC300      0.0000 
    100 H           7.3783   20.9974   11.2967 H         1 2NC300      0.0000 
    101 H           7.8185   16.4191   18.1133 H         1 2NC300      0.0000 
    102 H           8.4503   14.8081   18.5941 H         1 2NC300      0.0000 
    103 H          23.4895   23.1800   19.0624 H         1 2NC300      0.0000 
    104 H          24.1362   23.6777   20.4482 H         1 2NC300      0.0000 
    105 H          22.6032   23.1936   20.4042 H         1 2NC300      0.0000 
    106 H          25.1557   26.9375   17.5091 H         1 2NC300      0.0000 
    107 H          25.2218   28.0206   16.3223 H         1 2NC300      0.0000 
    108 H          24.5791   28.4207   17.7411 H         1 2NC300      0.0000 
    109 H          17.4217   26.4998   14.2965 H         1 2NC300      0.0000 
    110 H          17.7216   25.4358   13.1285 H         1 2NC300      0.0000 
    111 H          17.0771   24.9446   14.5176 H         1 2NC300      0.0000 
    112 H          19.9967   27.9622   15.2672 H         1 2NC300      0.0000 
    113 H          20.6510   28.3117   13.8404 H         1 2NC300      0.0000 
    114 H          19.0672   28.0588   13.9584 H         1 2NC300      0.0000 
    115 H          19.2468   20.6024   20.3641 H         1 2NC300      0.0000 
    116 H          18.8440   21.4247   21.6861 H         1 2NC300      0.0000 
    117 H          17.8157   21.3306   20.4533 H         1 2NC300      0.0000 
    118 H          14.7012   21.5227   13.1881 H         1 2NC300      0.0000 
    119 H          14.0314   20.2469   12.4740 H         1 2NC300      0.0000 
    120 H          13.5300   21.7298   12.1056 H         1 2NC300      0.0000 
    121 H          23.0212   25.4026   15.9972 H         1 2NC300      0.0000 
@<TRIPOS>BOND
     1    2    1 2    
     2    3    1 1    
     3    4    1 am   
     4  103    3 1    
     5  104    3 1    
     6  105    3 1    
     7    5    4 1    
     8   55    4 1    
     9    6    5 1    
    10    8    5 1    
    11   56    5 1    
    12    7    6 2    
    13   11    6 am   
    14    9    8 1    
    15   10    8 1    
    16   57    8 1    
    17  121    9 1    
    18  106   10 1    
    19  107   10 1    
    20  108   10 1    
    21   12   11 1    
    22   58   11 1    
    23   13   12 1    
    24   15   12 1    
    25   59   12 1    
    26   14   13 2    
    27   19   13 am   
    28   16   15 1    
    29   17   15 1    
    30   60   15 1    
    31   18   16 1    
    32   61   16 1    
    33   62   16 1    
    34  109   17 1    
    35  110   17 1    
    36  111   17 1    
    37  112   18 1    
    38  113   18 1    
    39  114   18 1    
    40   20   19 1    
    41   63   19 1    
    42   21   20 1    
    43   22   20 1    
    44   64   20 1    
    45   26   21 1    
    46   65   21 1    
    47   66   21 1    
    48   23   22 1    
    49   67   22 1    
    50   68   22 1    
    51   24   23 1    
    52   69   23 1    
    53   70   23 1    
    54   25   24 1    
    55   71   24 1    
    56   72   24 1    
    57  115   25 1    
    58  116   25 1    
    59  117   25 1    
    60   27   26 1    
    61   28   27 1    
    62   30   27 1    
    63   73   27 1    
    64   29   28 2    
    65   34   28 am   
    66   31   30 1    
    67   74   30 1    
    68   75   30 1    
    69   32   31 1    
    70   76   31 1    
    71   77   31 1    
    72   33   32 1    
    73   78   32 1    
    74   79   32 1    
    75  118   33 1    
    76  119   33 1    
    77  120   33 1    
    78   35   34 1    
    79   80   34 1    
    80   36   35 1    
    81   38   35 1    
    82   81   35 1    
    83   37   36 2    
    84   43   36 am   
    85   39   38 1    
    86   82   38 1    
    87   83   38 1    
    88   40   39 1    
    89   84   39 1    
    90   85   39 1    
    91   41   40 2    
    92   42   40 am   
    93   86   42 1    
    94   87   42 1    
    95   44   43 1    
    96   88   43 1    
    97   45   44 1    
    98   47   44 1    
    99   89   44 1    
   100   46   45 2    
   101   54   45 am   
   102   48   47 1    
   103   90   47 1    
   104   91   47 1    
   105   49   48 1    
   106   92   48 1    
   107   93   48 1    
   108   50   49 1    
   109   94   49 1    
   110   95   49 1    
   111   51   50 ar   
   112   96   50 1    
   113   52   51 ar   
   114   53   51 ar   
   115   97   52 1    
   116   98   52 1    
   117   99   53 1    
   118  100   53 1    
   119  101   54 1    
   120  102   54 1    
@<TRIPOS>SUBSTRUCTURE
     1 2NC300      1 GROUP   
@<TRIPOS>SET

