#    Name: 3qrs_NK8_1_INTS_M
#    Modification time : Mon Apr  7 19:49:41 2014

@<TRIPOS>MOLECULE
3qrs_NK8_1_INTS_M
   95     0    12     0     0
SMALL
NO_CHARGES


@<TRIPOS>ATOM
      1 CA        -23.1010   17.7540    0.3705 C.3       4 GLC5        0.0000 
      2 CA        -23.0720   17.0250   -1.5100 C.3      12 GLL5        0.0000 
      3 CA        -23.1300   18.4830    2.2510 C.3       8 GLP5        0.0000 
      4 CA        -12.8040   22.5100   -3.5950 C.3       4 GLC5        0.0000 
      5 CA        -14.1010   24.0220   -4.5060 C.3      12 GLL5        0.0000 
      6 CA        -11.5070   20.9980   -2.6840 C.3       8 GLP5        0.0000 
      7 N         -11.0440   24.3630   -0.9160 N.am      2 SEC2        0.0000 
      8 N         -12.4990   24.6330   -1.3640 N.am     10 SEL2        0.0000 
      9 N          -9.5890   24.0930   -0.4680 N.am      6 SEP2        0.0000 
     10 O         -10.8510   26.2870   -2.5290 O.2       1 ALC1        0.0000 
     11 O         -11.8980   25.5480   -3.3040 O.2       9 ALL1        0.0000 
     12 O          -9.8040   27.0260   -1.7540 O.2       5 ALP1        0.0000 
     13 CA        -14.8540   24.8860   -0.5345 C.3       4 GLC5        0.0000 
     14 CA        -14.9830   23.8070   -2.2920 C.3      12 GLL5        0.0000 
     15 CA        -14.7250   25.9650    1.2230 C.3       8 GLP5        0.0000 
     16 N         -19.8025   23.7570   -4.3895 N.am      2 SEC2        0.0000 
     17 N         -18.7670   22.7740   -4.0020 N.am     10 SEL2        0.0000 
     18 N         -20.8380   24.7400   -4.7770 N.am      6 SEP2        0.0000 
     19 N         -17.8220   23.2905   -7.5140 N.am      2 SEC2        0.0000 
     20 N         -17.7320   22.6380   -6.1690 N.am     10 SEL2        0.0000 
     21 N         -17.9120   23.9430   -8.8590 N.am      6 SEP2        0.0000 
     22 CA        -16.4495   18.2615   -9.3610 C.3       4 GLC5        0.0000 
     23 CA        -17.7680   18.7580   -8.1850 C.3      12 GLL5        0.0000 
     24 CA        -15.1310   17.7650  -10.5370 C.3       8 GLP5        0.0000 
     25 CA        -18.4905   20.3955   -8.9545 C.3       4 GLC5        0.0000 
     26 CA        -19.2130   22.0330   -9.7240 C.3       8 GLP5        0.0000 
     27 CA        -18.8020   19.1435   -9.9090 C.3       4 GLC5        0.0000 
     28 CA        -18.9390   17.8050   -8.1380 C.3      12 GLL5        0.0000 
     29 CA        -18.6650   20.4820  -11.6800 C.3       8 GLP5        0.0000 
     30 CA        -16.9580   17.1490   -9.6075 C.3       4 GLC5        0.0000 
     31 CA        -18.7850   16.5330   -8.6780 C.3      12 GLL5        0.0000 
     32 CA        -20.8140   16.4670  -10.3235 C.3       4 GLC5        0.0000 
     33 CA        -19.8460   15.6350   -8.6260 C.3      12 GLL5        0.0000 
     34 CA        -21.7820   17.2990  -12.0210 C.3       8 GLP5        0.0000 
     35 N         -20.9930   12.5575   -8.2105 N.am      2 SEC2        0.0000 
     36 N         -21.8870   13.8350   -8.2230 N.am     10 SEL2        0.0000 
     37 N         -20.0990   11.2800   -8.1980 N.am      6 SEP2        0.0000 
     38 CA        -20.2500   20.2770   -8.1545 C.3       4 GLC5        0.0000 
     39 CA        -20.1340   18.1680   -7.5130 C.3      12 GLL5        0.0000 
     40 CA        -20.3660   22.3860   -8.7960 C.3       8 GLP5        0.0000 
     41 CA        -16.1845   16.3050   -3.6985 C.3       4 GLC5        0.0000 
     42 CA        -16.3150   17.7020   -4.8760 C.3      12 GLL5        0.0000 
     43 CA        -16.0540   14.9080   -2.5210 C.3       8 GLP5        0.0000 
     44 CA        -16.9580   15.8275   -5.3730 C.3       4 GLC5        0.0000 
     45 CA        -17.6010   13.9530   -5.8700 C.3       8 GLP5        0.0000 
     46 OD1       -14.4200   17.0365   -4.8125 O.co2     3 ASC3        0.0000 
     47 OD1       -15.0500   18.3840   -4.7030 O.co2    11 ASL3        0.0000 
     48 OD1       -13.7900   15.6890   -4.9220 O.co2     7 ASP3        0.0000 
     49 OD1       -14.4630   17.5905   -5.7615 O.co2     3 ASC3        0.0000 
     50 OD1       -13.8760   16.7970   -6.8200 O.co2     7 ASP3        0.0000 
     51 OD1       -14.3945   17.9065   -3.5910 O.co2     3 ASC3        0.0000 
     52 OD1       -13.7390   17.4290   -2.4790 O.co2     7 ASP3        0.0000 
     53 OD1       -15.2625   18.4475   -3.1975 O.co2     3 ASC3        0.0000 
     54 OD1       -15.4750   18.5110   -1.6920 O.co2     7 ASP3        0.0000 
     55 CA        -13.1945   18.8355   -4.7590 C.3       4 GLC5        0.0000 
     56 CA        -15.1970   19.8330   -4.7350 C.3      12 GLL5        0.0000 
     57 CA        -11.1920   17.8380   -4.7830 C.3       8 GLP5        0.0000 
     58 CA        -13.8575   20.4735   -3.1455 C.3       4 GLC5        0.0000 
     59 CA        -12.5180   21.1140   -1.5560 C.3       8 GLP5        0.0000 
     60 CA        -19.0633   17.1740   -0.8247 C.3       4 GLC5        0.0000 
     61 CA        -19.3600   18.5800   -2.1500 C.3      12 GLL5        0.0000 
     62 CA        -18.1550   16.0880    0.4170 C.3       8 GLP5        0.0000 
     63 CA        -20.9703   20.0535   -1.7592 C.3       4 GLC5        0.0000 
     64 CA        -21.9690   21.8470   -1.4520 C.3       8 GLP5        0.0000 
     65 CA        -20.3347   18.5600   -0.0877 C.3       4 GLC5        0.0000 
     66 CA        -20.5830   17.9400   -1.9830 C.3      12 GLL5        0.0000 
     67 CA        -20.6980   18.8600    1.8910 C.3       8 GLP5        0.0000 
     68 CA        -21.7473   20.2615   -2.4138 C.3       4 GLC5        0.0000 
     69 CA        -21.4240   19.1340   -3.8900 C.3      12 GLL5        0.0000 
     70 CA        -23.4157   19.7967   -1.9500 C.3       4 GLC5        0.0000 
     71 CA        -23.9170   18.4580   -2.8380 C.3      12 GLL5        0.0000 
     72 CA        -23.3890   21.5860   -1.1280 C.3       8 GLP5        0.0000 
     73 CA        -21.4922   21.1385   -4.6725 C.3       4 GLC5        0.0000 
     74 CA        -22.1730   22.8250   -5.3760 C.3       8 GLP5        0.0000 
     75 CA        -20.8218   20.7420   -2.5312 C.3       4 GLC5        0.0000 
     76 CA        -20.1990   19.7700   -4.0480 C.3      12 GLL5        0.0000 
     77 CA        -17.9682   20.6485   -1.4404 C.3       4 GLC5        0.0000 
     78 CA        -17.4160   21.6930    0.0970 C.3       8 GLP5        0.0000 
     79 CA        -17.0212   24.5377   -2.6852 C.3       4 GLC5        0.0000 
     80 CA        -16.1330   23.2290   -2.8190 C.3      12 GLL5        0.0000 
     81 CA        -17.8300   25.9370   -1.8680 C.3       8 GLP5        0.0000 
     82 CA        -15.8360   24.6298   -6.0756 C.3       4 GLC5        0.0000 
     83 CA        -16.2920   23.0480   -4.1860 C.3      12 GLL5        0.0000 
     84 CA        -16.7320   25.6250   -7.5930 C.3       8 GLP5        0.0000 
     85 CA        -16.1510   24.9718   -2.2917 C.3       4 GLC5        0.0000 
     86 CA        -13.9610   24.2060   -3.1390 C.3      12 GLL5        0.0000 
     87 CA        -16.4870   22.6055   -1.2292 C.3       4 GLC5        0.0000 
     88 CA        -13.9103   22.3659   -2.1616 C.3       4 GLC5        0.0000 
     89 CA        -19.0333   15.6460  -10.4585 C.3       4 GLC5        0.0000 
     90 CA        -18.7510   15.2080  -12.2650 C.3       8 GLP5        0.0000 
     91 CA        -18.0850   15.2240   -7.8365 C.3       4 GLC5        0.0000 
     92 CA        -16.8160   14.0460   -7.1560 C.3       8 GLP5        0.0000 
     93 CA        -22.5263   17.0918   -9.2310 C.3       4 GLC5        0.0000 
     94 CA        -21.0380   16.0030   -8.0080 C.3      12 GLL5        0.0000 
     95 CA        -23.9390   17.5480  -10.7340 C.3       8 GLP5        0.0000 
@<TRIPOS>BOND
@<TRIPOS>SUBSTRUCTURE
     1 ALC1       10 GROUP        1 X    ALC  0     ROOT ALC X 1
     2 SEC2        7 GROUP        1 X    SEC  0     **** SEC X 2
     3 ASC3       46 GROUP        1 X    ASC  0     **** ASC X 3
     4 GLC5        1 GROUP        1 X    GLC  0     **** GLC X 6
     5 ALP1       12 GROUP        1 Y    ALP  0     ROOT ALP Y 8
     6 SEP2        9 GROUP        1 Y    SEP  0     **** SEP Y 9
     7 ASP3       48 GROUP        1 Y    ASP  0     **** ASP Y 10
     8 GLP5        3 GROUP        1 Y    GLP  0     **** GLP Y 13
     9 ALL1       11 GROUP        1 Z    ALL  0     ROOT ALL Z 15
    10 SEL2        8 GROUP        1 Z    SEL  0     **** SEL Z 16
    11 ASL3       47 GROUP        1 Z    ASL  0     **** ASL Z 17
    12 GLL5        2 GROUP        1 Z    GLL  0     **** GLL Z 20
@<TRIPOS>SET

