#    Name: 3qrs_NK8_1_ligand
#    Modification time : Mon Apr  7 19:49:41 2014

@<TRIPOS>MOLECULE
3qrs_NK8_1_ligand
   66    69     1     0     0
SMALL
NO_CHARGES


@<TRIPOS>ATOM
      1 C1        -19.3600   18.5800   -2.1500 C.ar      1 NK8100      0.0000 
      2 C2        -20.5830   17.9400   -1.9830 C.ar      1 NK8100      0.0000 
      3 C3        -21.6270   18.2180   -2.8610 C.ar      1 NK8100      0.0000 
      4 C4        -22.9680   17.5570   -2.7060 C.3       1 NK8100      0.0000 
      5 F5        -23.0720   17.0250   -1.5100 F         1 NK8100      0.0000 
      6 F6        -23.1430   16.6430   -3.6290 F         1 NK8100      0.0000 
      7 F7        -23.9170   18.4580   -2.8380 F         1 NK8100      0.0000 
      8 C8        -21.4240   19.1340   -3.8900 C.ar      1 NK8100      0.0000 
      9 C9        -20.1990   19.7700   -4.0480 C.ar      1 NK8100      0.0000 
     10 C10       -19.1500   19.5040   -3.1730 C.ar      1 NK8100      0.0000 
     11 C11       -17.7860   20.1660   -3.2940 C.3       1 NK8100      0.0000 
     12 N12       -17.3910   20.8470   -4.5280 N.pl3     1 NK8100      0.0000 
     13 S13       -17.6330   22.3590   -4.7650 S.o2      1 NK8100      0.0000 
     14 C14       -16.2920   23.0480   -4.1860 C.ar      1 NK8100      0.0000 
     15 C15       -15.2660   23.4460   -5.0350 C.ar      1 NK8100      0.0000 
     16 C16       -14.1010   24.0220   -4.5060 C.ar      1 NK8100      0.0000 
     17 C17       -13.9610   24.2060   -3.1390 C.ar      1 NK8100      0.0000 
     18 C18       -12.7200   24.8240   -2.5430 C.2       1 NK8100      0.0000 
     19 O19       -12.4990   24.6330   -1.3640 O.2       1 NK8100      0.0000 
     20 N20       -11.8980   25.5480   -3.3040 N.am      1 NK8100      0.0000 
     21 C21       -14.9830   23.8070   -2.2920 C.ar      1 NK8100      0.0000 
     22 C22       -16.1330   23.2290   -2.8190 C.ar      1 NK8100      0.0000 
     23 O23       -18.7670   22.7740   -4.0020 O.2       1 NK8100      0.0000 
     24 O24       -17.7320   22.6380   -6.1690 O.2       1 NK8100      0.0000 
     25 C25       -16.5380   20.0720   -5.4480 C.3       1 NK8100      0.0000 
     26 C26       -17.0880   18.6760   -5.7530 C.3       1 NK8100      0.0000 
     27 N27       -16.8220   18.3160   -7.1440 N.3       1 NK8100      0.0000 
     28 C28       -17.7680   18.7580   -8.1850 C.3       1 NK8100      0.0000 
     29 C29       -18.9390   17.8050   -8.1380 C.ar      1 NK8100      0.0000 
     30 C30       -18.7850   16.5330   -8.6780 C.ar      1 NK8100      0.0000 
     31 C31       -19.8460   15.6350   -8.6260 C.ar      1 NK8100      0.0000 
     32 C32       -21.0380   16.0030   -8.0080 C.ar      1 NK8100      0.0000 
     33 C33       -22.1440   14.9990   -7.9410 C.2       1 NK8100      0.0000 
     34 N34       -23.3510   15.3690   -7.5200 N.am      1 NK8100      0.0000 
     35 O35       -21.8870   13.8350   -8.2230 O.2       1 NK8100      0.0000 
     36 C36       -21.1890   17.2680   -7.4480 C.ar      1 NK8100      0.0000 
     37 C37       -20.1340   18.1680   -7.5130 C.ar      1 NK8100      0.0000 
     38 C38       -16.3150   17.7020   -4.8760 C.3       1 NK8100      0.0000 
     39 N40       -15.0500   18.3840   -4.7030 N.4       1 NK8100      0.0000 
     40 C41       -15.1970   19.8330   -4.7350 C.3       1 NK8100      0.0000 
     41 H         -18.5808   18.3652   -1.4961 H         1 NK8100      0.0000 
     42 H         -20.7156   17.2692   -1.2203 H         1 NK8100      0.0000 
     43 H         -22.1970   19.3429   -4.5452 H         1 NK8100      0.0000 
     44 H         -20.0652   20.4430   -4.8174 H         1 NK8100      0.0000 
     45 H         -17.0055   19.3744   -3.0349 H         1 NK8100      0.0000 
     46 H         -17.6859   20.8893   -2.4167 H         1 NK8100      0.0000 
     47 H         -15.3548   23.3211   -6.0499 H         1 NK8100      0.0000 
     48 H         -13.3452   24.3090   -5.1468 H         1 NK8100      0.0000 
     49 H         -12.1620   25.6503   -4.2631 H         1 NK8100      0.0000 
     50 H         -11.0916   25.9234   -2.8470 H         1 NK8100      0.0000 
     51 H         -14.8933   23.9371   -1.2763 H         1 NK8100      0.0000 
     52 H         -16.8893   22.9263   -2.1741 H         1 NK8100      0.0000 
     53 H         -16.3435   20.5862   -6.3473 H         1 NK8100      0.0000 
     54 H         -18.1058   18.6311   -5.5120 H         1 NK8100      0.0000 
     55 H         -17.3101   18.7103   -9.1614 H         1 NK8100      0.0000 
     56 H         -18.1167   19.7595   -7.9830 H         1 NK8100      0.0000 
     57 H         -17.8977   16.2592   -9.1106 H         1 NK8100      0.0000 
     58 H         -19.7507   14.7008   -9.0431 H         1 NK8100      0.0000 
     59 H         -23.4558   16.3334   -7.2772 H         1 NK8100      0.0000 
     60 H         -24.0444   14.6493   -7.4844 H         1 NK8100      0.0000 
     61 H         -22.0675   17.5301   -6.9942 H         1 NK8100      0.0000 
     62 H         -20.2291   19.1059   -7.1007 H         1 NK8100      0.0000 
     63 H         -16.2016   16.7828   -5.4010 H         1 NK8100      0.0000 
     64 H         -16.8326   17.5859   -3.9529 H         1 NK8100      0.0000 
     65 H         -15.2597   20.2467   -3.7490 H         1 NK8100      0.0000 
     66 H         -14.4212   20.2973   -5.3092 H         1 NK8100      0.0000 
@<TRIPOS>BOND
     1    2    1 ar   
     2   10    1 ar   
     3   41    1 1    
     4    3    2 ar   
     5   42    2 1    
     6    4    3 1    
     7    8    3 ar   
     8    5    4 1    
     9    6    4 1    
    10    7    4 1    
    11    9    8 ar   
    12   43    8 1    
    13   10    9 ar   
    14   44    9 1    
    15   11   10 1    
    16   12   11 1    
    17   45   11 1    
    18   46   11 1    
    19   13   12 1    
    20   25   12 1    
    21   14   13 1    
    22   23   13 2    
    23   24   13 2    
    24   15   14 ar   
    25   22   14 ar   
    26   16   15 ar   
    27   47   15 1    
    28   17   16 ar   
    29   48   16 1    
    30   18   17 1    
    31   21   17 ar   
    32   19   18 2    
    33   20   18 am   
    34   49   20 1    
    35   50   20 1    
    36   22   21 ar   
    37   51   21 1    
    38   52   22 1    
    39   26   25 1    
    40   40   25 1    
    41   53   25 1    
    42   27   26 1    
    43   38   26 1    
    44   54   26 1    
    45   28   27 1    
    46   29   28 1    
    47   55   28 1    
    48   56   28 1    
    49   30   29 ar   
    50   37   29 ar   
    51   31   30 ar   
    52   57   30 1    
    53   32   31 ar   
    54   58   31 1    
    55   33   32 1    
    56   36   32 ar   
    57   34   33 am   
    58   35   33 2    
    59   59   34 1    
    60   60   34 1    
    61   37   36 ar   
    62   61   36 1    
    63   62   37 1    
    64   39   38 1    
    65   63   38 1    
    66   64   38 1    
    67   40   39 1    
    68   65   40 1    
    69   66   40 1    
@<TRIPOS>SUBSTRUCTURE
     1 NK8100      1 GROUP   
@<TRIPOS>SET

