#    Name: 3gep_24H_2_INTS_M
#    Modification time : Tue Mar 25 07:41:32 2014

@<TRIPOS>MOLECULE
3gep_24H_2_INTS_M
   41     0     9     0     0
SMALL
NO_CHARGES


@<TRIPOS>ATOM
      1 CA         16.1700   15.6430   17.2825 C.3       3 GLC5        0.0000 
      2 CA         16.7820   14.9340   19.1340 C.3       9 GLL5        0.0000 
      3 CA         15.5580   16.3520   15.4310 C.3       6 GLP5        0.0000 
      4 CA         17.9495   17.1355   17.4535 C.3       3 GLC5        0.0000 
      5 CA         17.8770   15.7720   19.0070 C.3       9 GLL5        0.0000 
      6 CA         18.0220   18.4990   15.9000 C.3       6 GLP5        0.0000 
      7 CA         19.5715   16.6305   18.3110 C.3       3 GLC5        0.0000 
      8 CA         21.2660   17.4890   17.6150 C.3       6 GLP5        0.0000 
      9 N          20.2045   17.2295   19.1650 N.am      2 SEC2        0.0000 
     10 N          18.8430   17.7880   19.5210 N.am      8 SEL2        0.0000 
     11 N          21.5660   16.6710   18.8090 N.am      5 SEP2        0.0000 
     12 N          18.8825   18.9200   20.4865 N.am      2 SEC2        0.0000 
     13 N          18.9220   20.0520   21.4520 N.am      5 SEP2        0.0000 
     14 O          16.4595   18.5310   20.9325 O.2       1 ALC1        0.0000 
     15 O          16.7640   17.3960   20.3250 O.2       7 ALL1        0.0000 
     16 O          16.1550   19.6660   21.5400 O.2       4 ALP1        0.0000 
     17 O          15.3845   18.3140   21.3510 O.2       1 ALC1        0.0000 
     18 O          14.6140   16.9620   21.1620 O.2       7 ALL1        0.0000 
     19 CA         15.0520   14.2370   15.9970 C.3       3 GLC5        0.0000 
     20 CA         14.5460   12.1220   16.5630 C.3       9 GLL5        0.0000 
     21 CA         16.1160   14.2185   15.0165 C.3       3 GLC5        0.0000 
     22 CA         16.6740   12.0850   14.6020 C.3       9 GLL5        0.0000 
     23 CA         18.7340   12.9325   14.8960 C.3       3 GLC5        0.0000 
     24 CA         20.7940   13.7800   15.1900 C.3       6 GLP5        0.0000 
     25 CA         15.5110   10.8185   13.2775 C.3       3 GLC5        0.0000 
     26 CA         14.3480    9.5520   11.9530 C.3       6 GLP5        0.0000 
     27 N          20.3070   11.2155   14.2440 N.am      2 SEC2        0.0000 
     28 N          19.0200   10.8630   14.9460 N.am      8 SEL2        0.0000 
     29 N          21.5940   11.5680   13.5420 N.am      5 SEP2        0.0000 
     30 N          19.8045    9.7935   14.3210 N.am      2 SEC2        0.0000 
     31 N          20.5890    8.7240   13.6960 N.am      5 SEP2        0.0000 
     32 N          16.7085    8.8965   12.4905 N.am      2 SEC2        0.0000 
     33 N          17.1480    9.6870   13.7240 N.am      8 SEL2        0.0000 
     34 N          16.2690    8.1060   11.2570 N.am      5 SEP2        0.0000 
     35 N          15.9095    9.5040   13.5235 N.am      2 SEC2        0.0000 
     36 N          14.6710    9.3210   13.3230 N.am      5 SEP2        0.0000 
     37 N          19.1690   12.8580   12.7655 N.am      2 SEC2        0.0000 
     38 N          18.3600   11.6210   12.6340 N.am      8 SEL2        0.0000 
     39 N          19.9780   14.0950   12.8970 N.am      5 SEP2        0.0000 
     40 N          19.4320   11.0570   11.9510 N.am      2 SEC2        0.0000 
     41 N          20.5040   10.4930   11.2680 N.am      5 SEP2        0.0000 
@<TRIPOS>BOND
@<TRIPOS>SUBSTRUCTURE
     1 ALC1       14 GROUP        1 X    ALC  0     ROOT ALC X 1
     2 SEC2        9 GROUP        1 X    SEC  0     **** SEC X 2
     3 GLC5        1 GROUP        1 X    GLC  0     **** GLC X 6
     4 ALP1       16 GROUP        1 Y    ALP  0     ROOT ALP Y 8
     5 SEP2       11 GROUP        1 Y    SEP  0     **** SEP Y 9
     6 GLP5        3 GROUP        1 Y    GLP  0     **** GLP Y 13
     7 ALL1       15 GROUP        1 Z    ALL  0     ROOT ALL Z 15
     8 SEL2       10 GROUP        1 Z    SEL  0     **** SEL Z 16
     9 GLL5        2 GROUP        1 Z    GLL  0     **** GLL Z 20
@<TRIPOS>SET

