#    Name: 3gep_24H_2_ligand
#    Modification time : Tue Mar 25 07:41:32 2014

@<TRIPOS>MOLECULE
3gep_24H_2_ligand
   33    34     1     0     0
SMALL
NO_CHARGES


@<TRIPOS>ATOM
      1 C4         16.7820   14.9340   19.1340 C.2       1 24H218      0.0000 
      2 C5         17.8770   15.7720   19.0070 C.2       1 24H218      0.0000 
      3 C6         17.8560   17.0220   19.6180 C.2       1 24H218      0.0000 
      4 C8         18.2790   13.9270   17.9230 C.2       1 24H218      0.0000 
      5 O6         18.8430   17.7880   19.5210 O.2       1 24H218      0.0000 
      6 N7         18.7980   15.1330   18.2570 N.2       1 24H218      0.0000 
      7 N1         16.7640   17.3960   20.3250 N.am      1 24H218      0.0000 
      8 C2         15.6920   16.5700   20.4410 C.2       1 24H218      0.0000 
      9 N2         14.6140   16.9620   21.1620 N.pl3     1 24H218      0.0000 
     10 N3         15.7040   15.3480   19.8520 N.2       1 24H218      0.0000 
     11 N9         17.0430   13.8100   18.4450 N.pl3     1 24H218      0.0000 
     12 CAJ        16.1360   12.6530   18.3390 C.3       1 24H218      0.0000 
     13 CAS        16.0060   11.9710   16.9600 C.3       1 24H218      0.0000 
     14 CAH        14.5460   12.1220   16.5630 C.3       1 24H218      0.0000 
     15 OAD        13.8260   11.2310   17.4290 O.3       1 24H218      0.0000 
     16 OAN        16.9420   12.4250   15.9650 O.3       1 24H218      0.0000 
     17 CAI        16.6740   12.0850   14.6020 C.3       1 24H218      0.0000 
     18 PAU        17.9320   10.9650   13.9160 P.3       1 24H218      0.0000 
     19 OAE        19.0200   10.8630   14.9460 O.co2     1 24H218      0.0000 
     20 OAF        17.1480    9.6870   13.7240 O.co2     1 24H218      0.0000 
     21 OAC        18.3600   11.6210   12.6340 O.co2     1 24H218      0.0000 
     22 H          18.7323   13.2533   17.3889 H         1 24H218      0.0000 
     23 H          16.7434   18.3331   20.7889 H         1 24H218      0.0000 
     24 H          13.8407   16.3282   21.1772 H         1 24H218      0.0000 
     25 H          14.6871   17.8504   21.6151 H         1 24H218      0.0000 
     26 H          15.1016   12.9468   18.6631 H         1 24H218      0.0000 
     27 H          16.4396   11.8602   19.0743 H         1 24H218      0.0000 
     28 H          16.1486   10.8814   17.1620 H         1 24H218      0.0000 
     29 H          14.4438   11.8456   15.5264 H         1 24H218      0.0000 
     30 H          14.2563   13.1493   16.7118 H         1 24H218      0.0000 
     31 H          16.7234   12.9032   13.8907 H         1 24H218      0.0000 
     32 H          15.7724   11.5071   14.4260 H         1 24H218      0.0000 
     33 H          13.6269   10.4284   16.8667 H         1 24H218      0.0000 
@<TRIPOS>BOND
     1    2    1 2    
     2   10    1 1    
     3   11    1 1    
     4    3    2 1    
     5    6    2 1    
     6    5    3 2    
     7    7    3 am   
     8    6    4 2    
     9   11    4 1    
    10   22    4 1    
    11    8    7 1    
    12   23    7 1    
    13    9    8 1    
    14   10    8 2    
    15   24    9 1    
    16   25    9 1    
    17   12   11 1    
    18   13   12 1    
    19   26   12 1    
    20   27   12 1    
    21   14   13 1    
    22   16   13 1    
    23   28   13 1    
    24   15   14 1    
    25   29   14 1    
    26   30   14 1    
    27   33   15 1    
    28   17   16 1    
    29   18   17 1    
    30   31   17 1    
    31   32   17 1    
    32   19   18 ar   
    33   20   18 ar   
    34   21   18 ar   
@<TRIPOS>SUBSTRUCTURE
     1 24H218      1 GROUP   
@<TRIPOS>SET

