#    Name: 3moh_GDP_2_INTS_M
#    Modification time : Mon Mar 24 23:30:51 2014

@<TRIPOS>MOLECULE
3moh_GDP_2_INTS_M
   40     0    15     0     0
SMALL
NO_CHARGES


@<TRIPOS>ATOM
      1 N          35.3425    1.0625   49.2380 N.am      2 SEC2        0.0000 
      2 N          36.2100    1.4880   50.0460 N.am     12 SEL2        0.0000 
      3 N          34.4750    0.6370   48.4300 N.am      7 SEP2        0.0000 
      4 NZ         37.7280   -1.2785   50.5005 N.4       3 LYC4        0.0000 
      5 NZ         36.8460   -0.6120   51.2070 N.4      13 LYL4        0.0000 
      6 NZ         38.6100   -1.9450   49.7940 N.4       8 LYP4        0.0000 
      7 N          35.3410   -1.0300   51.9500 N.am      2 SEC2        0.0000 
      8 N          36.8460   -0.6120   51.2070 N.am     12 SEL2        0.0000 
      9 N          33.8360   -1.4480   52.6930 N.am      7 SEP2        0.0000 
     10 N          36.6885   -1.1130   52.5265 N.am      2 SEC2        0.0000 
     11 N          36.5310   -1.6140   53.8460 N.am      7 SEP2        0.0000 
     12 N          37.7280   -1.2785   50.5005 N.am      2 SEC2        0.0000 
     13 N          38.6100   -1.9450   49.7940 N.am      7 SEP2        0.0000 
     14 Zn         38.4255    2.1195   51.9085 Zn        4 ZIC7        0.0000 
     15 Zn         37.6540    1.5060   52.0990 Zn       14 ZIL7        0.0000 
     16 Zn         39.1970    2.7330   51.7180 Zn        9 ZIP7        0.0000 
     17 N          38.0275    0.9520   53.5195 N.am      2 SEC2        0.0000 
     18 N          37.6540    1.5060   52.0990 N.am     12 SEL2        0.0000 
     19 N          38.4010    0.3980   54.9400 N.am      7 SEP2        0.0000 
     20 N          34.4700   -0.2000   52.4545 N.am      2 SEC2        0.0000 
     21 N          35.1040    1.0480   52.2160 N.am     12 SEL2        0.0000 
     22 N          36.0760    1.6045   55.7835 N.am      2 SEC2        0.0000 
     23 N          35.4020    1.8960   54.5570 N.am     12 SEL2        0.0000 
     24 N          36.7500    1.3130   57.0100 N.am      7 SEP2        0.0000 
     25 CA         29.9605    2.3385   56.7820 C.3       5 GLC5        0.0000 
     26 CA         30.6510    2.8370   54.7850 C.3      15 GLL5        0.0000 
     27 CA         29.2700    1.8400   58.7790 C.3      10 GLP5        0.0000 
     28 N          29.6910   -2.4310   59.9315 N.am      2 SEC2        0.0000 
     29 N          29.8650   -2.7360   58.4670 N.am     12 SEL2        0.0000 
     30 N          29.5170   -2.1260   61.3960 N.am      7 SEP2        0.0000 
     31 N          30.6630   -3.6400   59.3485 N.am      2 SEC2        0.0000 
     32 N          31.4610   -4.5440   60.2300 N.am      7 SEP2        0.0000 
     33 O          26.8175   -2.8910   57.9175 O.2       1 ALC1        0.0000 
     34 O          27.8300   -2.0860   57.5290 O.2      11 ALL1        0.0000 
     35 O          25.8050   -3.6960   58.3060 O.2       6 ALP1        0.0000 
     36 O          25.8025   -2.5335   57.4445 O.2       1 ALC1        0.0000 
     37 O          25.8000   -1.3710   56.5830 O.2      11 ALL1        0.0000 
     38 CA         32.4480    1.7012   50.5930 C.3       5 GLC5        0.0000 
     39 CA         31.0570    2.5550   52.4610 C.3      15 GLL5        0.0000 
     40 CA         33.1090    0.8880   48.9460 C.3      10 GLP5        0.0000 
@<TRIPOS>BOND
@<TRIPOS>SUBSTRUCTURE
     1 ALC1       33 GROUP        1 X    ALC  0     ROOT ALC X 1
     2 SEC2        1 GROUP        1 X    SEC  0     **** SEC X 2
     3 LYC4        4 GROUP        1 X    LYC  0     **** LYC X 4
     4 ZIC7       14 GROUP        1 X    ZIC  0     **** ZIC X 5
     5 GLC5       25 GROUP        1 X    GLC  0     **** GLC X 6
     6 ALP1       35 GROUP        1 Y    ALP  0     ROOT ALP Y 8
     7 SEP2        3 GROUP        1 Y    SEP  0     **** SEP Y 9
     8 LYP4        6 GROUP        1 Y    LYP  0     **** LYP Y 11
     9 ZIP7       16 GROUP        1 Y    ZIP  0     **** ZIP Y 12
    10 GLP5       27 GROUP        1 Y    GLP  0     **** GLP Y 13
    11 ALL1       34 GROUP        1 Z    ALL  0     ROOT ALL Z 15
    12 SEL2        2 GROUP        1 Z    SEL  0     **** SEL Z 16
    13 LYL4        5 GROUP        1 Z    LYL  0     **** LYL Z 18
    14 ZIL7       15 GROUP        1 Z    ZIL  0     **** ZIL Z 19
    15 GLL5       26 GROUP        1 Z    GLL  0     **** GLL Z 20
@<TRIPOS>SET

