#    Name: 3moh_GDP_2_ligand
#    Modification time : Mon Mar 24 23:30:51 2014

@<TRIPOS>MOLECULE
3moh_GDP_2_ligand
   40    42     1     0     0
SMALL
NO_CHARGES


@<TRIPOS>ATOM
      1 PB         36.4880    0.8540   51.4060 P.3       1 GDP1000     0.0000 
      2 O1B        36.2100    1.4880   50.0460 O.co2     1 GDP1000     0.0000 
      3 O2B        36.8460   -0.6120   51.2070 O.co2     1 GDP1000     0.0000 
      4 O3B        37.6540    1.5060   52.0990 O.co2     1 GDP1000     0.0000 
      5 O3A        35.1040    1.0480   52.2160 O.3       1 GDP1000     0.0000 
      6 PA         34.7880    2.2870   53.2380 P.3       1 GDP1000     0.0000 
      7 O1A        35.1950    3.6210   52.6420 O.co2     1 GDP1000     0.0000 
      8 O2A        35.4020    1.8960   54.5570 O.co2     1 GDP1000     0.0000 
      9 O5'        33.2110    2.2440   53.2390 O.3       1 GDP1000     0.0000 
     10 C5'        32.5170    2.4740   52.0190 C.3       1 GDP1000     0.0000 
     11 C4'        31.0570    2.5550   52.4610 C.3       1 GDP1000     0.0000 
     12 O4'        30.7060    1.3260   53.1140 O.3       1 GDP1000     0.0000 
     13 C3'        30.8070    3.6500   53.5190 C.3       1 GDP1000     0.0000 
     14 O3'        29.5140    4.2510   53.3400 O.3       1 GDP1000     0.0000 
     15 C2'        30.6510    2.8370   54.7850 C.3       1 GDP1000     0.0000 
     16 O2'        29.8800    3.5510   55.7800 O.3       1 GDP1000     0.0000 
     17 C1'        29.9090    1.6060   54.2750 C.3       1 GDP1000     0.0000 
     18 N9         30.0760    0.5540   55.3020 N.pl3     1 GDP1000     0.0000 
     19 C8         31.3320    0.2260   55.7840 C.2       1 GDP1000     0.0000 
     20 N7         31.2320   -0.7550   56.7140 N.2       1 GDP1000     0.0000 
     21 C5         29.9200   -1.0600   56.8340 C.2       1 GDP1000     0.0000 
     22 C6         29.1840   -2.0180   57.6680 C.2       1 GDP1000     0.0000 
     23 O6         29.8650   -2.7360   58.4670 O.2       1 GDP1000     0.0000 
     24 N1         27.8300   -2.0860   57.5290 N.am      1 GDP1000     0.0000 
     25 C2         27.1570   -1.2600   56.6600 C.2       1 GDP1000     0.0000 
     26 N2         25.8000   -1.3710   56.5830 N.pl3     1 GDP1000     0.0000 
     27 N3         27.7770   -0.3450   55.8490 N.2       1 GDP1000     0.0000 
     28 C4         29.1440   -0.2070   55.8950 C.2       1 GDP1000     0.0000 
     29 H          32.6138    1.6588   51.3315 H         1 GDP1000     0.0000 
     30 H          32.7816    3.4072   51.5656 H         1 GDP1000     0.0000 
     31 H          30.4286    2.7364   51.6268 H         1 GDP1000     0.0000 
     32 H          31.5883    4.2818   53.5943 H         1 GDP1000     0.0000 
     33 H          31.6062    2.5375   55.1161 H         1 GDP1000     0.0000 
     34 H          28.9466    1.8497   54.0676 H         1 GDP1000     0.0000 
     35 H          32.1532    0.6463   55.4888 H         1 GDP1000     0.0000 
     36 H          27.2870   -2.7788   58.0924 H         1 GDP1000     0.0000 
     37 H          25.3496   -0.7965   55.8996 H         1 GDP1000     0.0000 
     38 H          25.3747   -2.0171   57.2167 H         1 GDP1000     0.0000 
     39 H          29.1101    4.2731   54.2545 H         1 GDP1000     0.0000 
     40 H          30.5528    4.0773   56.2999 H         1 GDP1000     0.0000 
@<TRIPOS>BOND
     1    2    1 ar   
     2    3    1 ar   
     3    4    1 ar   
     4    5    1 1    
     5    6    5 1    
     6    7    6 ar   
     7    8    6 ar   
     8    9    6 1    
     9   10    9 1    
    10   11   10 1    
    11   29   10 1    
    12   30   10 1    
    13   12   11 1    
    14   13   11 1    
    15   31   11 1    
    16   17   12 1    
    17   14   13 1    
    18   15   13 1    
    19   32   13 1    
    20   39   14 1    
    21   16   15 1    
    22   17   15 1    
    23   33   15 1    
    24   40   16 1    
    25   18   17 1    
    26   34   17 1    
    27   19   18 1    
    28   28   18 1    
    29   20   19 2    
    30   35   19 1    
    31   21   20 1    
    32   22   21 1    
    33   28   21 2    
    34   23   22 2    
    35   24   22 am   
    36   25   24 1    
    37   36   24 1    
    38   26   25 1    
    39   27   25 2    
    40   37   26 1    
    41   38   26 1    
    42   28   27 1    
@<TRIPOS>SUBSTRUCTURE
     1 GDP1000     1 GROUP   
@<TRIPOS>SET

