#    Name: 4fj2_QSO_2_INTS_M
#    Modification time : Mon Mar 24 20:06:54 2014

@<TRIPOS>MOLECULE
4fj2_QSO_2_INTS_M
   49     0     6     0     0
SMALL
NO_CHARGES


@<TRIPOS>ATOM
      1 CA         19.9360  -17.0565    3.9170 C.3       2 GLC5        0.0000 
      2 CA         18.7520  -15.2210    4.0180 C.3       6 GLL5        0.0000 
      3 CA         21.1200  -18.8920    3.8160 C.3       4 GLP5        0.0000 
      4 CA         14.4250  -16.2200    2.6750 C.3       2 GLC5        0.0000 
      5 CA         14.3630  -17.8360    3.8690 C.3       6 GLL5        0.0000 
      6 CA         14.4870  -14.6040    1.4810 C.3       4 GLP5        0.0000 
      7 CA         16.6700  -12.5280    4.4560 C.3       2 GLC5        0.0000 
      8 CA         17.8450  -14.2820    4.5210 C.3       6 GLL5        0.0000 
      9 CA         15.4950  -10.7740    4.3910 C.3       4 GLP5        0.0000 
     10 CA         20.2885  -10.5600    7.1740 C.3       2 GLC5        0.0000 
     11 CA         19.4180  -10.3330    5.4360 C.3       6 GLL5        0.0000 
     12 CA         21.1590  -10.7870    8.9120 C.3       4 GLP5        0.0000 
     13 CA         18.4230   -8.3795    5.7270 C.3       2 GLC5        0.0000 
     14 CA         17.4280   -6.4260    6.0180 C.3       4 GLP5        0.0000 
     15 N          12.0590  -15.3550    5.1875 N.am      1 SEC2        0.0000 
     16 N          13.6980  -15.6350    4.7320 N.am      5 SEL2        0.0000 
     17 N          10.4200  -15.0750    5.6430 N.am      3 SEP2        0.0000 
     18 CA         21.1870   -7.3520    8.1040 C.3       2 GLC5        0.0000 
     19 CA         20.1170   -8.4590    6.8360 C.3       6 GLL5        0.0000 
     20 CA         22.2570   -6.2450    9.3720 C.3       4 GLP5        0.0000 
     21 CA         20.6380   -9.6230    7.8740 C.3       2 GLC5        0.0000 
     22 CA         18.9025   -8.6170    8.5185 C.3       2 GLC5        0.0000 
     23 CA         17.6880   -8.7750   10.2010 C.3       4 GLP5        0.0000 
     24 CA         18.7725   -7.4425    6.4270 C.3       2 GLC5        0.0000 
     25 CA         18.3782  -15.0157    2.3872 C.3       2 GLC5        0.0000 
     26 CA         18.4580  -15.2800    0.5050 C.3       4 GLP5        0.0000 
     27 CA         20.0312  -14.6768    4.9897 C.3       2 GLC5        0.0000 
     28 CA         21.7640  -14.6020    5.7100 C.3       4 GLP5        0.0000 
     29 CA         18.1687  -15.3908    5.7443 C.3       2 GLC5        0.0000 
     30 CA         18.0390  -16.0300    7.2190 C.3       4 GLP5        0.0000 
     31 CA         15.5290  -15.5448    2.7168 C.3       2 GLC5        0.0000 
     32 CA         16.0400  -16.0340    4.1990 C.3       6 GLL5        0.0000 
     33 CA         19.0213  -18.2358    3.6658 C.3       2 GLC5        0.0000 
     34 CA         16.7430  -18.2220    3.3250 C.3       6 GLL5        0.0000 
     35 CA         15.8332  -19.2208    1.5425 C.3       2 GLC5        0.0000 
     36 CA         15.4140  -18.6430    3.4070 C.3       6 GLL5        0.0000 
     37 CA         15.5880  -20.0090   -0.2810 C.3       4 GLP5        0.0000 
     38 CA         20.5565  -12.7368    2.8357 C.3       2 GLC5        0.0000 
     39 CA         19.3670  -12.3580    4.1200 C.3       6 GLL5        0.0000 
     40 CA         21.4830  -13.7480    1.4180 C.3       4 GLP5        0.0000 
     41 CA         21.6408  -10.4245    4.7033 C.3       2 GLC5        0.0000 
     42 CA         19.8930  -11.0930    4.3870 C.3       6 GLL5        0.0000 
     43 CA         23.6260  -10.1360    4.4950 C.3       4 GLP5        0.0000 
     44 CA         20.5688  -13.2339    5.0780 C.3       2 GLC5        0.0000 
     45 CA         19.1797  -11.7235    7.6970 C.3       2 GLC5        0.0000 
     46 CA         17.8480  -12.1420    5.9510 C.3       6 GLL5        0.0000 
     47 CA         20.2430  -11.9500    9.3100 C.3       4 GLP5        0.0000 
     48 CA         16.4409  -18.7233    5.0322 C.3       2 GLC5        0.0000 
     49 CA         17.1090  -19.6500    6.4260 C.3       4 GLP5        0.0000 
@<TRIPOS>BOND
@<TRIPOS>SUBSTRUCTURE
     1 SEC2       15 GROUP        1 X    SEC  0     ROOT SEC X 2
     2 GLC5        1 GROUP        1 X    GLC  0     **** GLC X 6
     3 SEP2       17 GROUP        1 Y    SEP  0     ROOT SEP Y 9
     4 GLP5        3 GROUP        1 Y    GLP  0     **** GLP Y 13
     5 SEL2       16 GROUP        1 Z    SEL  0     ROOT SEL Z 16
     6 GLL5        2 GROUP        1 Z    GLL  0     **** GLL Z 20
@<TRIPOS>SET

