#    Name: 4fj2_QSO_2_ligand
#    Modification time : Mon Mar 24 20:06:54 2014

@<TRIPOS>MOLECULE
4fj2_QSO_2_ligand
   32    34     1     0     0
SMALL
NO_CHARGES


@<TRIPOS>ATOM
      1 C2         18.7520  -15.2210    4.0180 C.2       1 QSO302      0.0000 
      2 C4         16.4000  -14.6680    4.6120 C.2       1 QSO302      0.0000 
      3 O4         15.1510  -19.9080    3.0200 O.3       1 QSO302      0.0000 
      4 C4A        16.0400  -16.0340    4.1990 C.ar      1 QSO302      0.0000 
      5 C8A        17.1020  -16.9370    3.7060 C.ar      1 QSO302      0.0000 
      6 C7         15.4140  -18.6430    3.4070 C.ar      1 QSO302      0.0000 
      7 C6         14.3630  -17.8360    3.8690 C.ar      1 QSO302      0.0000 
      8 C5         14.6410  -16.5170    4.2750 C.ar      1 QSO302      0.0000 
      9 C8         16.7430  -18.2220    3.3250 C.ar      1 QSO302      0.0000 
     10 C3         17.8450  -14.2820    4.5210 C.2       1 QSO302      0.0000 
     11 O1         18.3940  -16.4640    3.6430 O.3       1 QSO302      0.0000 
     12 C1'        18.3410  -12.9190    4.8900 C.ar      1 QSO302      0.0000 
     13 O2         15.4800  -13.9300    5.0220 O.2       1 QSO302      0.0000 
     14 C2'        19.3670  -12.3580    4.1200 C.ar      1 QSO302      0.0000 
     15 C3'        19.8930  -11.0930    4.3870 C.ar      1 QSO302      0.0000 
     16 C4'        19.4180  -10.3330    5.4360 C.ar      1 QSO302      0.0000 
     17 C5'        18.3850  -10.8520    6.2170 C.ar      1 QSO302      0.0000 
     18 C6'        17.8480  -12.1420    5.9510 C.ar      1 QSO302      0.0000 
     19 O5         19.9900   -9.1130    5.5900 O.3       1 QSO302      0.0000 
     20 O3         13.6980  -15.6350    4.7320 O.co2     1 QSO302      0.0000 
     21 CM         20.1170   -8.4590    6.8360 C.3       1 QSO302      0.0000 
     22 H          19.7614  -14.9195    3.9368 H         1 QSO302      0.0000 
     23 H          13.4134  -18.1969    3.9107 H         1 QSO302      0.0000 
     24 H          17.4620  -18.8758    2.9772 H         1 QSO302      0.0000 
     25 H          19.7500  -12.9053    3.3203 H         1 QSO302      0.0000 
     26 H          20.6515  -10.7254    3.7843 H         1 QSO302      0.0000 
     27 H          17.9991  -10.3047    6.9970 H         1 QSO302      0.0000 
     28 H          17.0929  -12.5015    6.5448 H         1 QSO302      0.0000 
     29 H          20.6572   -8.9960    7.4840 H         1 QSO302      0.0000 
     30 H          20.5669   -7.5706    6.7450 H         1 QSO302      0.0000 
     31 H          19.2271   -8.2947    7.2616 H         1 QSO302      0.0000 
     32 H          14.2326  -20.0989    3.3665 H         1 QSO302      0.0000 
@<TRIPOS>BOND
     1   10    1 2    
     2   11    1 1    
     3   22    1 1    
     4    4    2 1    
     5   10    2 1    
     6   13    2 2    
     7    6    3 1    
     8   32    3 1    
     9    5    4 ar   
    10    8    4 ar   
    11    9    5 ar   
    12   11    5 1    
    13    7    6 ar   
    14    9    6 ar   
    15    8    7 ar   
    16   23    7 1    
    17   20    8 ar   
    18   24    9 1    
    19   12   10 1    
    20   14   12 ar   
    21   18   12 ar   
    22   15   14 ar   
    23   25   14 1    
    24   16   15 ar   
    25   26   15 1    
    26   17   16 ar   
    27   19   16 1    
    28   18   17 ar   
    29   27   17 1    
    30   28   18 1    
    31   21   19 1    
    32   29   21 1    
    33   30   21 1    
    34   31   21 1    
@<TRIPOS>SUBSTRUCTURE
     1 QSO302      1 GROUP   
@<TRIPOS>SET

