#    Name: 3b2s_B2S_1_INTS_M
#    Modification time : Mon Mar 24 18:49:38 2014

@<TRIPOS>MOLECULE
3b2s_B2S_1_INTS_M
   53     0     9     0     0
SMALL
NO_CHARGES


@<TRIPOS>ATOM
      1 CA        -29.3395  -34.6100  -16.9365 C.3       3 GLC5        0.0000 
      2 CA        -29.1790  -32.5530  -16.5020 C.3       9 GLL5        0.0000 
      3 CA        -29.5000  -36.6670  -17.3710 C.3       6 GLP5        0.0000 
      4 CA        -27.3940  -33.4125  -15.5305 C.3       3 GLC5        0.0000 
      5 CA        -25.6090  -34.2720  -14.5590 C.3       6 GLP5        0.0000 
      6 CA        -31.5385  -35.2235  -16.6210 C.3       3 GLC5        0.0000 
      7 CA        -31.9060  -33.6140  -15.2160 C.3       9 GLL5        0.0000 
      8 CA        -31.1710  -36.8330  -18.0260 C.3       6 GLP5        0.0000 
      9 CA        -32.6935  -35.3970  -14.8245 C.3       3 GLC5        0.0000 
     10 CA        -33.4810  -37.1800  -14.4330 C.3       6 GLP5        0.0000 
     11 CA        -30.5095  -34.8630  -14.0345 C.3       3 GLC5        0.0000 
     12 CA        -29.1130  -36.1120  -12.8530 C.3       6 GLP5        0.0000 
     13 CA        -34.7895  -31.7980  -15.7265 C.3       3 GLC5        0.0000 
     14 CA        -32.9100  -31.8390  -16.7830 C.3       9 GLL5        0.0000 
     15 CA        -36.6690  -31.7570  -14.6700 C.3       6 GLP5        0.0000 
     16 O         -34.3190  -29.6930  -17.9535 O.2       1 ALC1        0.0000 
     17 O         -32.9050  -29.8470  -18.2950 O.2       7 ALL1        0.0000 
     18 O         -35.7330  -29.5390  -17.6120 O.2       4 ALP1        0.0000 
     19 CA        -29.8130  -29.2145  -18.0495 C.3       3 GLC5        0.0000 
     20 CA        -30.8320  -30.7310  -17.4760 C.3       9 GLL5        0.0000 
     21 CA        -28.7940  -27.6980  -18.6230 C.3       6 GLP5        0.0000 
     22 N         -30.1215  -28.3720  -16.5110 N.am      2 SEC2        0.0000 
     23 N         -30.9260  -29.5230  -16.6400 N.am      8 SEL2        0.0000 
     24 N         -29.3170  -27.2210  -16.3820 N.am      5 SEP2        0.0000 
     25 CA        -29.1525  -29.9435  -15.0460 C.3       3 GLC5        0.0000 
     26 CA        -31.2460  -29.7120  -15.1870 C.3       9 GLL5        0.0000 
     27 CA        -27.0590  -30.1750  -14.9050 C.3       6 GLP5        0.0000 
     28 CA        -31.3320  -26.1855  -10.7300 C.3       3 GLC5        0.0000 
     29 CA        -31.0070  -27.4470  -12.1750 C.3       9 GLL5        0.0000 
     30 CA        -31.6570  -24.9240   -9.2850 C.3       6 GLP5        0.0000 
     31 CA        -30.8320  -28.1485  -10.3460 C.3       3 GLC5        0.0000 
     32 CA        -30.6570  -28.8500   -8.5170 C.3       6 GLP5        0.0000 
     33 CA        -29.7295  -25.6310  -12.0460 C.3       3 GLC5        0.0000 
     34 CA        -28.4520  -23.8150  -11.9170 C.3       6 GLP5        0.0000 
     35 CA        -28.7380  -30.6400  -14.3270 C.3       3 GLC5        0.0000 
     36 CA        -30.4170  -31.1050  -13.7490 C.3       9 GLL5        0.0000 
     37 CA        -34.8230  -31.4100  -14.2135 C.3       3 GLC5        0.0000 
     38 CA        -32.9770  -31.0630  -13.7570 C.3       9 GLL5        0.0000 
     39 CA        -33.8530  -29.4600  -13.5670 C.3       3 GLC5        0.0000 
     40 CA        -34.7290  -27.8570  -13.3770 C.3       6 GLP5        0.0000 
     41 CA        -29.4705  -31.7115  -18.6253 C.3       3 GLC5        0.0000 
     42 CA        -30.5730  -31.9810  -16.7110 C.3       9 GLL5        0.0000 
     43 CA        -29.0650  -31.1560  -20.6440 C.3       6 GLP5        0.0000 
     44 CA        -28.4675  -31.2210  -15.7557 C.3       3 GLC5        0.0000 
     45 CA        -30.2993  -31.0328  -19.1842 C.3       3 GLC5        0.0000 
     46 CA        -33.0390  -28.4818  -14.1015 C.3       3 GLC5        0.0000 
     47 CA        -29.8980  -28.0927  -16.1340 C.3       3 GLC5        0.0000 
     48 CA        -31.4520  -28.5010  -14.4650 C.3       9 GLL5        0.0000 
     49 CA        -28.4470  -27.0790  -17.4420 C.3       6 GLP5        0.0000 
     50 CA        -32.8563  -27.9485  -13.0203 C.3       3 GLC5        0.0000 
     51 CA        -30.9600  -28.6330  -13.1520 C.3       9 GLL5        0.0000 
     52 CA        -29.1248  -28.0075  -13.3014 C.3       3 GLC5        0.0000 
     53 CA        -27.1430  -28.0080  -13.6110 C.3       6 GLP5        0.0000 
@<TRIPOS>BOND
@<TRIPOS>SUBSTRUCTURE
     1 ALC1       16 GROUP        1 X    ALC  0     ROOT ALC X 1
     2 SEC2       22 GROUP        1 X    SEC  0     **** SEC X 2
     3 GLC5        1 GROUP        1 X    GLC  0     **** GLC X 6
     4 ALP1       18 GROUP        1 Y    ALP  0     ROOT ALP Y 8
     5 SEP2       24 GROUP        1 Y    SEP  0     **** SEP Y 9
     6 GLP5        3 GROUP        1 Y    GLP  0     **** GLP Y 13
     7 ALL1       17 GROUP        1 Z    ALL  0     ROOT ALL Z 15
     8 SEL2       23 GROUP        1 Z    SEL  0     **** SEL Z 16
     9 GLL5        2 GROUP        1 Z    GLL  0     **** GLL Z 20
@<TRIPOS>SET

