#    Name: 3b2s_B2S_1_ligand
#    Modification time : Mon Mar 24 18:49:38 2014

@<TRIPOS>MOLECULE
3b2s_B2S_1_ligand
   41    44     1     0     0
SMALL
NO_CHARGES


@<TRIPOS>ATOM
      1 C13       -29.1790  -32.5530  -16.5020 C.3       1 B2S455      0.0000 
      2 O2        -30.1340  -33.1390  -17.4850 O.3       1 B2S455      0.0000 
      3 C12       -30.5730  -31.9810  -16.7110 C.3       1 B2S455      0.0000 
      4 C5        -31.7700  -32.1690  -15.7640 C.3       1 B2S455      0.0000 
      5 C14       -31.9060  -33.6140  -15.2160 C.3       1 B2S455      0.0000 
      6 C4        -32.9100  -31.8390  -16.7830 C.3       1 B2S455      0.0000 
      7 C3        -32.2350  -31.0880  -17.9730 C.3       1 B2S455      0.0000 
      8 O3        -32.9050  -29.8470  -18.2950 O.3       1 B2S455      0.0000 
      9 C2        -30.8320  -30.7310  -17.4760 C.3       1 B2S455      0.0000 
     10 O1        -30.9260  -29.5230  -16.6400 O.3       1 B2S455      0.0000 
     11 C11       -31.2460  -29.7120  -15.1870 C.3       1 B2S455      0.0000 
     12 C10       -31.4520  -28.5010  -14.4650 C.2       1 B2S455      0.0000 
     13 C9        -30.9600  -28.6330  -13.1520 C.2       1 B2S455      0.0000 
     14 C16       -31.0070  -27.4470  -12.1750 C.3       1 B2S455      0.0000 
     15 C8        -30.4510  -29.8920  -12.7440 C.2       1 B2S455      0.0000 
     16 O5        -30.0300  -30.0550  -11.5920 O.2       1 B2S455      0.0000 
     17 C7        -30.4170  -31.1050  -13.7490 C.3       1 B2S455      0.0000 
     18 O4        -30.2290  -32.3840  -13.1250 O.3       1 B2S455      0.0000 
     19 C6        -31.6950  -31.0910  -14.6350 C.3       1 B2S455      0.0000 
     20 C15       -32.9770  -31.0630  -13.7570 C.3       1 B2S455      0.0000 
     21 O6        -32.5550  -31.1430  -12.3790 O.3       1 B2S455      0.0000 
     22 H         -28.5726  -31.9953  -16.9683 H         1 B2S455      0.0000 
     23 H         -29.2037  -33.0741  -15.7121 H         1 B2S455      0.0000 
     24 H         -33.6202  -31.1986  -16.3189 H         1 B2S455      0.0000 
     25 H         -33.3382  -32.7458  -17.1354 H         1 B2S455      0.0000 
     26 H         -32.1463  -31.7436  -18.7868 H         1 B2S455      0.0000 
     27 H         -30.2086  -30.6562  -18.2915 H         1 B2S455      0.0000 
     28 H         -29.9516  -29.8617  -14.8210 H         1 B2S455      0.0000 
     29 H         -31.8622  -27.7231  -14.8249 H         1 B2S455      0.0000 
     30 H         -29.5740  -30.8912  -14.4448 H         1 B2S455      0.0000 
     31 H         -33.5885  -31.9076  -14.0445 H         1 B2S455      0.0000 
     32 H         -33.4984  -30.1395  -13.9695 H         1 B2S455      0.0000 
     33 H         -31.0975  -33.8921  -14.6973 H         1 B2S455      0.0000 
     34 H         -32.6924  -33.7071  -14.6053 H         1 B2S455      0.0000 
     35 H         -32.0257  -34.2805  -15.9518 H         1 B2S455      0.0000 
     36 H         -30.6231  -27.6853  -11.2829 H         1 B2S455      0.0000 
     37 H         -30.4888  -26.6632  -12.5172 H         1 B2S455      0.0000 
     38 H         -31.9432  -27.1330  -12.0168 H         1 B2S455      0.0000 
     39 H         -33.8781  -30.0368  -18.1641 H         1 B2S455      0.0000 
     40 H         -31.0609  -32.5363  -12.5913 H         1 B2S455      0.0000 
     41 H         -32.8984  -32.0242  -12.0540 H         1 B2S455      0.0000 
@<TRIPOS>BOND
     1    2    1 1    
     2    3    1 1    
     3   22    1 1    
     4   23    1 1    
     5    3    2 1    
     6    4    3 1    
     7    9    3 1    
     8    5    4 1    
     9    6    4 1    
    10   19    4 1    
    11   33    5 1    
    12   34    5 1    
    13   35    5 1    
    14    7    6 1    
    15   24    6 1    
    16   25    6 1    
    17    8    7 1    
    18    9    7 1    
    19   26    7 1    
    20   39    8 1    
    21   10    9 1    
    22   27    9 1    
    23   11   10 1    
    24   12   11 1    
    25   19   11 1    
    26   28   11 1    
    27   13   12 2    
    28   29   12 1    
    29   14   13 1    
    30   15   13 1    
    31   36   14 1    
    32   37   14 1    
    33   38   14 1    
    34   16   15 2    
    35   17   15 1    
    36   18   17 1    
    37   19   17 1    
    38   30   17 1    
    39   40   18 1    
    40   20   19 1    
    41   21   20 1    
    42   31   20 1    
    43   32   20 1    
    44   41   21 1    
@<TRIPOS>SUBSTRUCTURE
     1 B2S455      1 GROUP   
@<TRIPOS>SET

