#    Name: 3DN5_1_CAVITY_N1_ALL.mol2
#    Modification time : Tue Mar 11 16:45:18 2014

@<TRIPOS>MOLECULE
3DN5_1_CAVITY_N1_ALL.mol2
   74     0     4     0     0
SMALL
NO_CHARGES


@<TRIPOS>ATOM
      1 CZ         22.7259    8.4228   -7.6838 C.ar      2 PHE5        0.0000 
      2 CZ         22.1947    8.1596   -9.7206 C.ar      2 PHE5        0.0000 
      3 CZ         16.4789    6.4210  -11.3194 C.ar      2 PHE5        0.0000 
      4 CA         15.2295    6.0206  -12.0465 C.3       3 GLY6        0.0000 
      5 CA         15.9477    6.1578  -13.3562 C.3       3 GLY6        0.0000 
      6 CA         13.9801    5.6202  -12.7736 C.3       3 GLY6        0.0000 
      7 CA         14.6983    5.7574  -14.0833 C.3       3 GLY6        0.0000 
      8 CA         12.7307    5.2199  -13.5008 C.3       3 GLY6        0.0000 
      9 CZ         13.4489    5.3570  -14.8104 C.ar      2 PHE5        0.0000 
     10 CZ         22.8410   10.1251   -5.7244 C.ar      2 PHE5        0.0000 
     11 DU         23.5592   10.2622   -7.0341 H         4 CUB7        0.0000 
     12 DU         24.2775   10.3994   -8.3438 H         4 CUB7        0.0000 
     13 CZ         22.3098    9.8619   -7.7612 C.ar      2 PHE5        0.0000 
     14 CZ         23.0281    9.9990   -9.0709 C.ar      2 PHE5        0.0000 
     15 DU         23.7463   10.1362  -10.3806 H         4 CUB7        0.0000 
     16 CZ         21.7787    9.5987   -9.7981 C.ar      2 PHE5        0.0000 
     17 CZ         22.4969    9.7358  -11.1077 C.ar      2 PHE5        0.0000 
     18 CZ         23.2152    9.8730  -12.4174 C.ar      2 PHE5        0.0000 
     19 CZ         21.2475    9.3355  -11.8349 C.ar      2 PHE5        0.0000 
     20 CA         19.9981    8.9351  -12.5620 C.3       3 GLY6        0.0000 
     21 CA         18.0305    8.3976  -11.9794 C.3       3 GLY6        0.0000 
     22 CZ         16.0628    7.8600  -11.3968 C.ar      2 PHE5        0.0000 
     23 CA         16.7811    7.9972  -12.7065 C.3       3 GLY6        0.0000 
     24 CZ         14.8134    7.4597  -12.1240 C.ar      2 PHE5        0.0000 
     25 CZ         15.5317    7.5968  -13.4337 C.ar      2 PHE5        0.0000 
     26 O          16.2499    7.7340  -14.7434 O.2       1 ALA2        0.0000 
     27 CZ         13.5640    7.0593  -12.8511 C.ar      2 PHE5        0.0000 
     28 CZ         14.2823    7.1965  -14.1608 C.ar      2 PHE5        0.0000 
     29 CZ         13.0329    6.7961  -14.8879 C.ar      2 PHE5        0.0000 
     30 N          24.3925   12.1017   -6.3845 N.2       1 ALA2        0.0000 
     31 N          22.4249   11.5641   -5.8019 N.2       1 ALA2        0.0000 
     32 N          23.1431   11.7013   -7.1116 N.2       1 ALA2        0.0000 
     33 DU         23.8614   11.8385   -8.4213 H         4 CUB7        0.0000 
     34 O          24.5797   11.9756   -9.7310 O.2       1 ALA2        0.0000 
     35 CA         21.8937   11.3009   -7.8387 C.3       3 GLY6        0.0000 
     36 O          22.6120   11.4381   -9.1484 O.2       1 ALA2        0.0000 
     37 O          23.3303   11.5753  -10.4581 O.2       1 ALA2        0.0000 
     38 CZ         20.6443   10.9006   -8.5658 C.ar      2 PHE5        0.0000 
     39 O          21.3626   11.0377   -9.8755 O.2       1 ALA2        0.0000 
     40 O          22.0809   11.1749  -11.1852 O.2       1 ALA2        0.0000 
     41 CZ         22.7991   11.3121  -12.4949 C.ar      2 PHE5        0.0000 
     42 CZ         19.3949   10.5002   -9.2929 C.ar      2 PHE5        0.0000 
     43 CZ         20.1132   10.6374  -10.6026 C.ar      2 PHE5        0.0000 
     44 CZ         20.8315   10.7745  -11.9123 C.ar      2 PHE5        0.0000 
     45 CZ         18.1455   10.0998  -10.0201 C.ar      2 PHE5        0.0000 
     46 CZ         18.8638   10.2370  -11.3298 C.ar      2 PHE5        0.0000 
     47 CZ         19.5821   10.3742  -12.6394 C.ar      2 PHE5        0.0000 
     48 CZ         16.8961    9.6995  -10.7472 C.ar      2 PHE5        0.0000 
     49 O          17.6144    9.8366  -12.0569 O.2       1 ALA2        0.0000 
     50 CA         18.3327    9.9738  -13.3666 C.3       3 GLY6        0.0000 
     51 CZ         16.3650    9.4363  -12.7840 C.ar      2 PHE5        0.0000 
     52 CZ         17.0833    9.5734  -14.0937 C.ar      2 PHE5        0.0000 
     53 N          22.7271   13.1403   -7.1890 N.2       1 ALA2        0.0000 
     54 O          23.4453   13.2775   -8.4987 O.2       1 ALA2        0.0000 
     55 N          21.4777   12.7400   -7.9162 N.2       1 ALA2        0.0000 
     56 O          22.1959   12.8771   -9.2258 O.2       1 ALA2        0.0000 
     57 CA         20.2283   12.3396   -8.6433 C.3       3 GLY6        0.0000 
     58 O          20.9465   12.4768   -9.9530 O.2       1 ALA2        0.0000 
     59 CA         18.9789   11.9393   -9.3704 C.3       3 GLY6        0.0000 
     60 O          19.6971   12.0764  -10.6801 O.2       1 ALA2        0.0000 
     61 CZ         20.4154   12.2136  -11.9898 C.ar      2 PHE5        0.0000 
     62 CZ         17.7295   11.5389  -10.0975 C.ar      2 PHE5        0.0000 
     63 DU         18.4477   11.6761  -11.4072 H         4 CUB7        0.0000 
     64 CZ         19.1660   11.8132  -12.7169 C.ar      2 PHE5        0.0000 
     65 CZ         19.8843   11.9504  -14.0266 C.ar      2 PHE5        0.0000 
     66 O          17.1983   11.2757  -12.1343 O.2       1 ALA2        0.0000 
     67 CA         17.9166   11.4129  -13.4440 C.3       3 GLY6        0.0000 
     68 CA         18.5628   13.3783   -9.4479 C.3       3 GLY6        0.0000 
     69 O          19.2811   13.5155  -10.7576 O.2       1 ALA2        0.0000 
     70 N          17.3134   12.9779  -10.1750 N.2       1 ALA2        0.0000 
     71 N          18.0317   13.1151  -11.4847 N.2       1 ALA2        0.0000 
     72 CZ         18.7499   13.2523  -12.7944 C.ar      2 PHE5        0.0000 
     73 N          16.7823   12.7147  -12.2118 N.2       1 ALA2        0.0000 
     74 CZ         17.5005   12.8519  -13.5215 C.ar      2 PHE5        0.0000 
@<TRIPOS>BOND
@<TRIPOS>SUBSTRUCTURE
     1 ALA2       26 GROUP   
     2 PHE5        1 GROUP   
     3 GLY6        4 GROUP   
     4 CUB7       11 GROUP   
@<TRIPOS>SET

