#    Name: 3dn5_53N_1_INTS_M
#    Modification time : Mon Mar 24 23:50:44 2014

@<TRIPOS>MOLECULE
3dn5_53N_1_INTS_M
   43     0     6     0     0
SMALL
NO_CHARGES


@<TRIPOS>ATOM
      1 CA         20.8880   12.9220  -12.9620 C.3       2 GLC5        0.0000 
      2 CA         19.4640   12.2880  -12.3910 C.3       6 GLL5        0.0000 
      3 CA         22.3120   13.5560  -13.5330 C.3       4 GLP5        0.0000 
      4 CA         20.6145   11.2450  -13.9035 C.3       2 GLC5        0.0000 
      5 CA         21.7650   10.2020  -15.4160 C.3       4 GLP5        0.0000 
      6 CA         16.2095    5.6500  -14.1640 C.3       2 GLC5        0.0000 
      7 CA         14.3290    6.5550  -13.4950 C.3       6 GLL5        0.0000 
      8 CA         18.0900    4.7450  -14.8330 C.3       4 GLP5        0.0000 
      9 N          15.6205    5.8565  -16.2005 N.am      1 SEC2        0.0000 
     10 N          14.3370    6.0770  -15.6340 N.am      5 SEL2        0.0000 
     11 N          16.9040    5.6360  -16.7670 N.am      3 SEP2        0.0000 
     12 CA         20.4865   14.0990  -12.5075 C.3       2 GLC5        0.0000 
     13 CA         18.8280   13.6860  -12.4850 C.3       6 GLL5        0.0000 
     14 CA         22.1450   14.5120  -12.5300 C.3       4 GLP5        0.0000 
     15 CA         18.7975   14.9810  -10.7265 C.3       2 GLC5        0.0000 
     16 CA         18.7670   16.2760   -8.9680 C.3       4 GLP5        0.0000 
     17 CA         18.4815   13.3220  -14.5620 C.3       2 GLC5        0.0000 
     18 CA         18.1350   12.9580  -16.6390 C.3       4 GLP5        0.0000 
     19 CA         17.6785   14.6330  -13.4250 C.3       2 GLC5        0.0000 
     20 CA         16.5290   15.5800  -14.3650 C.3       4 GLP5        0.0000 
     21 N          17.1050   16.1290  -10.9055 N.am      1 SEC2        0.0000 
     22 N          17.0600   14.9150  -11.3730 N.am      5 SEL2        0.0000 
     23 N          17.1500   17.3430  -10.4380 N.am      3 SEP2        0.0000 
     24 N          16.0000   14.6885  -10.5420 N.am      1 SEC2        0.0000 
     25 N          14.9400   14.4620   -9.7110 N.am      3 SEP2        0.0000 
     26 CA         17.3415   10.5815  -15.7155 C.3       2 GLC5        0.0000 
     27 CA         17.7590    9.3500  -14.1180 C.3       6 GLL5        0.0000 
     28 CA         16.9240   11.8130  -17.3130 C.3       4 GLP5        0.0000 
     29 CA         13.5600    7.5810   -9.4020 C.3       2 GLC5        0.0000 
     30 CA         14.4170    7.1020  -11.1780 C.3       6 GLL5        0.0000 
     31 CA         12.7030    8.0600   -7.6260 C.3       4 GLP5        0.0000 
     32 CA         18.4075   11.8785  -15.0425 C.3       2 GLC5        0.0000 
     33 CA         18.6870   10.4930  -14.0300 C.3       6 GLL5        0.0000 
     34 CA         17.3116    7.1723  -12.7915 C.3       2 GLC5        0.0000 
     35 CA         15.3750    7.4510  -13.7370 C.3       6 GLL5        0.0000 
     36 CA         19.0650    6.4440  -13.2760 C.3       4 GLP5        0.0000 
     37 CA         12.5915    7.9925  -11.1438 C.3       2 GLC5        0.0000 
     38 CA         13.8130    6.3580  -12.2010 C.3       6 GLL5        0.0000 
     39 CA         11.0680    9.2550  -10.5980 C.3       4 GLP5        0.0000 
     40 CA         14.6910    4.9026  -11.9915 C.3       2 GLC5        0.0000 
     41 CA         15.1380    3.0260  -11.9700 C.3       4 GLP5        0.0000 
     42 CA         18.4139    8.1431  -13.2434 C.3       2 GLC5        0.0000 
     43 CA         17.0780    9.1620  -12.9700 C.3       6 GLL5        0.0000 
@<TRIPOS>BOND
@<TRIPOS>SUBSTRUCTURE
     1 SEC2        9 GROUP        1 X    SEC  0     ROOT SEC X 2
     2 GLC5        1 GROUP        1 X    GLC  0     **** GLC X 6
     3 SEP2       11 GROUP        1 Y    SEP  0     ROOT SEP Y 9
     4 GLP5        3 GROUP        1 Y    GLP  0     **** GLP Y 13
     5 SEL2       10 GROUP        1 Z    SEL  0     ROOT SEL Z 16
     6 GLL5        2 GROUP        1 Z    GLL  0     **** GLL Z 20
@<TRIPOS>SET

