#    Name: 3dn5_53N_1_ligand
#    Modification time : Mon Mar 24 23:50:44 2014

@<TRIPOS>MOLECULE
3dn5_53N_1_ligand
   29    30     1     0     0
SMALL
NO_CHARGES


@<TRIPOS>ATOM
      1 C5         15.3750    7.4510  -13.7370 C.ar      1 53N600      0.0000 
      2 C6         15.9500    8.1770  -12.6970 C.ar      1 53N600      0.0000 
      3 C7         17.0780    9.1620  -12.9700 C.2       1 53N600      0.0000 
      4 C10        19.4640   12.2880  -12.3910 C.3       1 53N600      0.0000 
      5 C15        18.6870   10.4930  -14.0300 C.2       1 53N600      0.0000 
      6 C17        15.4540    7.9870  -11.3970 C.ar      1 53N600      0.0000 
      7 C1         14.3290    6.5550  -13.4950 C.ar      1 53N600      0.0000 
      8 N2         13.7070    5.9240  -14.5640 N.pl3     1 53N600      0.0000 
      9 O3         12.6430    5.3030  -14.3610 O.2       1 53N600      0.0000 
     10 O4         14.3370    6.0770  -15.6340 O.2       1 53N600      0.0000 
     11 S8         17.5270   10.3640  -11.7250 S.3       1 53N600      0.0000 
     12 C9         18.6730   11.1050  -12.8620 C.2       1 53N600      0.0000 
     13 C11        18.8280   13.6860  -12.4850 C.3       1 53N600      0.0000 
     14 C12        17.8940   13.8870  -11.3120 C.2       1 53N600      0.0000 
     15 O13        17.0600   14.9150  -11.3730 O.co2     1 53N600      0.0000 
     16 O14        17.9400   13.1050  -10.3660 O.co2     1 53N600      0.0000 
     17 C16        17.7590    9.3500  -14.1180 C.2       1 53N600      0.0000 
     18 C18        14.4170    7.1020  -11.1780 C.ar      1 53N600      0.0000 
     19 C19        13.8130    6.3580  -12.2010 C.ar      1 53N600      0.0000 
     20 H          15.7242    7.5742  -14.7014 H         1 53N600      0.0000 
     21 H          20.4426   12.3217  -12.9465 H         1 53N600      0.0000 
     22 H          19.7688   12.1246  -11.3196 H         1 53N600      0.0000 
     23 H          19.2358   10.7162  -14.8193 H         1 53N600      0.0000 
     24 H          15.8692    8.5107  -10.6171 H         1 53N600      0.0000 
     25 H          18.2762   13.7587  -13.4132 H         1 53N600      0.0000 
     26 H          19.6131   14.4307  -12.4639 H         1 53N600      0.0000 
     27 H          17.6955    8.8362  -14.9356 H         1 53N600      0.0000 
     28 H          14.0566    6.9738  -10.1992 H         1 53N600      0.0000 
     29 H          13.0631    5.7268  -12.0249 H         1 53N600      0.0000 
@<TRIPOS>BOND
     1    2    1 ar   
     2    7    1 ar   
     3   20    1 1    
     4    3    2 1    
     5    6    2 ar   
     6   11    3 1    
     7   17    3 2    
     8   12    4 1    
     9   13    4 1    
    10   21    4 1    
    11   22    4 1    
    12   12    5 2    
    13   17    5 1    
    14   23    5 1    
    15   18    6 ar   
    16   24    6 1    
    17    8    7 1    
    18   19    7 ar   
    19    9    8 2    
    20   10    8 2    
    21   12   11 1    
    22   14   13 1    
    23   25   13 1    
    24   26   13 1    
    25   15   14 ar   
    26   16   14 ar   
    27   27   17 1    
    28   19   18 ar   
    29   28   18 1    
    30   29   19 1    
@<TRIPOS>SUBSTRUCTURE
     1 53N600      1 GROUP   
@<TRIPOS>SET

