#    Name: 3qxo_X65_1_INTS_M
#    Modification time : Tue Mar 25 10:21:19 2014

@<TRIPOS>MOLECULE
3qxo_X65_1_INTS_M
   39     0     9     0     0
SMALL
NO_CHARGES


@<TRIPOS>ATOM
      1 CA        -37.5880  -43.6990  -11.7040 C.3       3 GLC5        0.0000 
      2 CA        -38.7540  -45.0470  -10.5640 C.3       9 GLL5        0.0000 
      3 CA        -36.4220  -42.3510  -12.8440 C.3       6 GLP5        0.0000 
      4 CA        -39.8980  -47.7080  -11.8040 C.3       3 GLC5        0.0000 
      5 CA        -39.5720  -45.8660  -12.7930 C.3       9 GLL5        0.0000 
      6 CA        -40.2240  -49.5500  -10.8150 C.3       6 GLP5        0.0000 
      7 CA        -38.9385  -46.7920  -10.1735 C.3       3 GLC5        0.0000 
      8 CA        -38.4650  -45.7080  -11.8370 C.3       9 GLL5        0.0000 
      9 CA        -39.4120  -47.8760   -8.5100 C.3       6 GLP5        0.0000 
     10 O         -36.3235  -46.9100  -13.0290 O.2       1 ALC1        0.0000 
     11 O         -37.2300  -46.0690  -12.1980 O.2       7 ALL1        0.0000 
     12 O         -35.4170  -47.7510  -13.8600 O.2       4 ALP1        0.0000 
     13 O         -40.1125  -46.5705  -16.4720 O.2       1 ALC1        0.0000 
     14 O         -40.1720  -45.9790  -15.1230 O.2       7 ALL1        0.0000 
     15 O         -40.0530  -47.1620  -17.8210 O.2       4 ALP1        0.0000 
     16 N         -37.4605  -47.6160  -15.3005 N.am      2 SEC2        0.0000 
     17 N         -38.4390  -47.2660  -14.3260 N.am      8 SEL2        0.0000 
     18 N         -36.4820  -47.9660  -16.2750 N.am      5 SEP2        0.0000 
     19 CA        -36.2085  -44.1050  -12.1510 C.3       3 GLC5        0.0000 
     20 CA        -35.9950  -45.8590  -11.4580 C.3       9 GLL5        0.0000 
     21 CA        -34.4570  -48.5585  -11.9710 C.3       3 GLC5        0.0000 
     22 CA        -36.0250  -48.2780  -10.5780 C.3       9 GLL5        0.0000 
     23 CA        -32.8890  -48.8390  -13.3640 C.3       6 GLP5        0.0000 
     24 CA        -39.8429  -46.3330   -9.6475 C.3       3 GLC5        0.0000 
     25 CA        -42.3128  -46.3317  -11.0567 C.3       3 GLC5        0.0000 
     26 CA        -41.1440  -44.7590  -11.1660 C.3       9 GLL5        0.0000 
     27 CA        -43.6150  -47.5880  -10.3220 C.3       6 GLP5        0.0000 
     28 CA        -41.1578  -47.0975  -13.3945 C.3       3 GLC5        0.0000 
     29 CA        -40.8770  -45.3920  -12.4170 C.3       9 GLL5        0.0000 
     30 CA        -42.0910  -48.5660  -14.1840 C.3       6 GLP5        0.0000 
     31 CA        -38.5569  -44.5277  -13.4890 C.3       3 GLC5        0.0000 
     32 CA        -37.7690  -43.3870  -14.7570 C.3       6 GLP5        0.0000 
     33 CA        -37.2758  -47.9588   -8.3465 C.3       3 GLC5        0.0000 
     34 CA        -35.0070  -47.3510   -8.0850 C.3       9 GLL5        0.0000 
     35 CA        -37.4560  -47.2645   -9.1297 C.3       3 GLC5        0.0000 
     36 CA        -35.2460  -46.4300   -9.1250 C.3       9 GLL5        0.0000 
     37 CA        -33.7756  -46.0459  -10.7198 C.3       3 GLC5        0.0000 
     38 CA        -31.9910  -45.6930  -11.4190 C.3       6 GLP5        0.0000 
     39 CA        -37.6582  -48.3080   -9.2810 C.3       3 GLC5        0.0000 
@<TRIPOS>BOND
@<TRIPOS>SUBSTRUCTURE
     1 ALC1       10 GROUP        1 X    ALC  0     ROOT ALC X 1
     2 SEC2       16 GROUP        1 X    SEC  0     **** SEC X 2
     3 GLC5        1 GROUP        1 X    GLC  0     **** GLC X 6
     4 ALP1       12 GROUP        1 Y    ALP  0     ROOT ALP Y 8
     5 SEP2       18 GROUP        1 Y    SEP  0     **** SEP Y 9
     6 GLP5        3 GROUP        1 Y    GLP  0     **** GLP Y 13
     7 ALL1       11 GROUP        1 Z    ALL  0     ROOT ALL Z 15
     8 SEL2       17 GROUP        1 Z    SEL  0     **** SEL Z 16
     9 GLL5        2 GROUP        1 Z    GLL  0     **** GLL Z 20
@<TRIPOS>SET

