#    Name: 3qxo_X65_1_ligand
#    Modification time : Tue Mar 25 10:21:19 2014

@<TRIPOS>MOLECULE
3qxo_X65_1_ligand
   38    39     1     0     0
SMALL
NO_CHARGES


@<TRIPOS>ATOM
      1 C1        -38.7540  -45.0470  -10.5640 C.ar      1 X65668      0.0000 
      2 C2        -40.0530  -44.5950  -10.2440 C.ar      1 X65668      0.0000 
      3 C3        -41.1440  -44.7590  -11.1660 C.ar      1 X65668      0.0000 
      4 C4        -40.8770  -45.3920  -12.4170 C.ar      1 X65668      0.0000 
      5 C5        -39.5720  -45.8660  -12.7930 C.ar      1 X65668      0.0000 
      6 C6        -38.4650  -45.7080  -11.8370 C.ar      1 X65668      0.0000 
      7 N7        -37.2300  -46.0690  -12.1980 N.pl3     1 X65668      0.0000 
      8 N8        -42.3760  -44.3420  -10.8790 N.pl3     1 X65668      0.0000 
      9 O9        -43.3850  -44.5050  -11.7450 O.2       1 X65668      0.0000 
     10 O10       -42.6350  -43.7980   -9.8170 O.2       1 X65668      0.0000 
     11 C11       -39.4030  -46.3680  -14.0720 C.2       1 X65668      0.0000 
     12 N12       -40.1720  -45.9790  -15.1230 N.am      1 X65668      0.0000 
     13 O13       -38.4390  -47.2660  -14.3260 O.2       1 X65668      0.0000 
     14 C14       -35.9950  -45.8590  -11.4580 C.3       1 X65668      0.0000 
     15 C15       -35.2720  -48.7320   -8.2810 C.ar      1 X65668      0.0000 
     16 C16       -35.0070  -47.3510   -8.0850 C.ar      1 X65668      0.0000 
     17 C17       -35.2460  -46.4300   -9.1250 C.ar      1 X65668      0.0000 
     18 C18       -35.7540  -46.8760  -10.3740 C.ar      1 X65668      0.0000 
     19 C19       -36.0250  -48.2780  -10.5780 C.ar      1 X65668      0.0000 
     20 C20       -35.7840  -49.2020   -9.5260 C.ar      1 X65668      0.0000 
     21 S21       -34.9650  -49.8500   -6.9810 S.o2      1 X65668      0.0000 
     22 O22       -33.9300  -51.0350   -7.4150 O.2       1 X65668      0.0000 
     23 O23       -34.4180  -49.1700   -5.7680 O.2       1 X65668      0.0000 
     24 N24       -36.1790  -50.5960   -6.5250 N.pl3     1 X65668      0.0000 
     25 H         -37.9812  -44.9194   -9.9041 H         1 X65668      0.0000 
     26 H         -40.2323  -44.1414   -9.3429 H         1 X65668      0.0000 
     27 H         -41.6560  -45.5181  -13.0885 H         1 X65668      0.0000 
     28 H         -37.0858  -46.5782  -13.1407 H         1 X65668      0.0000 
     29 H         -39.9778  -46.4222  -15.9981 H         1 X65668      0.0000 
     30 H         -40.8641  -45.2839  -14.9284 H         1 X65668      0.0000 
     31 H         -35.9908  -44.8478  -10.9942 H         1 X65668      0.0000 
     32 H         -35.1239  -45.8741  -12.1498 H         1 X65668      0.0000 
     33 H         -34.6426  -47.0287   -7.1871 H         1 X65668      0.0000 
     34 H         -35.0544  -45.4358   -8.9842 H         1 X65668      0.0000 
     35 H         -36.3852  -48.5926  -11.4704 H         1 X65668      0.0000 
     36 H         -35.9741  -50.1894   -9.6574 H         1 X65668      0.0000 
     37 H         -37.0393  -50.3521   -6.9727 H         1 X65668      0.0000 
     38 H         -36.0328  -51.2787   -5.8091 H         1 X65668      0.0000 
@<TRIPOS>BOND
     1    2    1 ar   
     2    6    1 ar   
     3   25    1 1    
     4    3    2 ar   
     5   26    2 1    
     6    4    3 ar   
     7    8    3 1    
     8    5    4 ar   
     9   27    4 1    
    10    6    5 ar   
    11   11    5 1    
    12    7    6 1    
    13   14    7 1    
    14   28    7 1    
    15    9    8 2    
    16   10    8 2    
    17   12   11 am   
    18   13   11 2    
    19   29   12 1    
    20   30   12 1    
    21   18   14 1    
    22   31   14 1    
    23   32   14 1    
    24   16   15 ar   
    25   20   15 ar   
    26   21   15 1    
    27   17   16 ar   
    28   33   16 1    
    29   18   17 ar   
    30   34   17 1    
    31   19   18 ar   
    32   20   19 ar   
    33   35   19 1    
    34   36   20 1    
    35   22   21 2    
    36   23   21 2    
    37   24   21 1    
    38   37   24 1    
    39   38   24 1    
@<TRIPOS>SUBSTRUCTURE
     1 X65668      1 GROUP   
@<TRIPOS>SET

