#    Name: 2gvj_DGB_2_INTS_M
#    Modification time : Tue Mar 25 15:12:01 2014

@<TRIPOS>MOLECULE
2gvj_DGB_2_INTS_M
   67     0     9     0     0
SMALL
NO_CHARGES


@<TRIPOS>ATOM
      1 CA          6.4575   -5.1710   49.7215 C.3       3 GLC5        0.0000 
      2 CA          5.0560   -3.5480   49.5480 C.3       9 GLL5        0.0000 
      3 CA          7.8590   -6.7940   49.8950 C.3       6 GLP5        0.0000 
      4 CA          4.2065   -3.6795   51.4985 C.3       3 GLC5        0.0000 
      5 CA          5.6430   -2.6730   50.4670 C.3       9 GLL5        0.0000 
      6 CA          2.7700   -4.6860   52.5300 C.3       6 GLP5        0.0000 
      7 CA          8.4130   -0.0470   48.1195 C.3       3 GLC5        0.0000 
      8 CA          7.7760   -1.9150   48.6840 C.3       9 GLL5        0.0000 
      9 CA          9.0500    1.8210   47.5550 C.3       6 GLP5        0.0000 
     10 CA         11.8410   -4.4115   49.3595 C.3       3 GLC5        0.0000 
     11 CA         10.1270   -3.5430   49.1930 C.3       9 GLL5        0.0000 
     12 CA         13.5550   -5.2800   49.5260 C.3       6 GLP5        0.0000 
     13 CA          8.7660   -6.0520   48.2145 C.3       3 GLC5        0.0000 
     14 CA          9.6730   -5.3100   46.5340 C.3       9 GLL5        0.0000 
     15 CA         10.2450   -4.4080   43.5690 C.3       3 GLC5        0.0000 
     16 CA          9.9790   -5.9430   45.1800 C.3       9 GLL5        0.0000 
     17 CA         10.5110   -2.8730   41.9580 C.3       6 GLP5        0.0000 
     18 CA         11.0135   -9.2220   44.9270 C.3       3 GLC5        0.0000 
     19 CA         10.2550   -7.4490   45.2070 C.3       9 GLL5        0.0000 
     20 CA         11.7720  -10.9950   44.6470 C.3       6 GLP5        0.0000 
     21 O          11.9550   -7.8815   43.7710 O.2       1 ALC1        0.0000 
     22 O          10.5650   -7.7430   43.8110 O.2       7 ALL1        0.0000 
     23 O          13.3450   -8.0200   43.7310 O.2       4 ALP1        0.0000 
     24 N           8.4040   -9.7535   44.1540 N.am      2 SEC2        0.0000 
     25 N           8.8130   -8.9980   43.1370 N.am      8 SEL2        0.0000 
     26 N           7.9950  -10.5090   45.1710 N.am      5 SEP2        0.0000 
     27 CA         11.6145  -10.2190   41.3880 C.3       3 GLC5        0.0000 
     28 CA         10.4590   -8.5040   41.6870 C.3       9 GLL5        0.0000 
     29 CA         12.7700  -11.9340   41.0890 C.3       6 GLP5        0.0000 
     30 CA         11.1155   -9.7495   43.1670 C.3       3 GLC5        0.0000 
     31 CA         11.0165  -10.7840   40.3060 C.3       3 GLC5        0.0000 
     32 CA          9.8870   -9.1680   40.6740 C.3       9 GLL5        0.0000 
     33 CA         12.1460  -12.4000   39.9380 C.3       6 GLP5        0.0000 
     34 CA          7.9825   -9.8210   41.1910 C.3       3 GLC5        0.0000 
     35 CA          6.0780  -10.4740   41.7080 C.3       6 GLP5        0.0000 
     36 CA         14.1790   -9.1120   37.3950 C.3       3 GLC5        0.0000 
     37 CA         12.2020   -8.7460   37.7120 C.3       9 GLL5        0.0000 
     38 CA         16.1560   -9.4780   37.0780 C.3       6 GLP5        0.0000 
     39 CA         11.5100   -6.9230   36.8945 C.3       3 GLC5        0.0000 
     40 CA         10.8180   -5.1000   36.0770 C.3       6 GLP5        0.0000 
     41 CA         10.4570   -7.6200   36.4640 C.3       3 GLC5        0.0000 
     42 CA         11.4730   -9.4650   36.7630 C.3       9 GLL5        0.0000 
     43 CA          9.4410   -5.7750   36.1650 C.3       6 GLP5        0.0000 
     44 CA          3.1793   -3.3271   51.4138 C.3       3 GLC5        0.0000 
     45 CA          4.8840   -1.6460   51.0300 C.3       9 GLL5        0.0000 
     46 CA          1.6543   -2.7637   48.4297 C.3       3 GLC5        0.0000 
     47 CA          2.9630   -2.3650   49.7450 C.3       9 GLL5        0.0000 
     48 CA         -0.0330   -2.6480   47.3960 C.3       6 GLP5        0.0000 
     49 CA          3.5685   -4.5860   50.3655 C.3       3 GLC5        0.0000 
     50 CA          3.7200   -3.3940   49.1820 C.3       9 GLL5        0.0000 
     51 CA          2.7490   -5.7010   51.3660 C.3       6 GLP5        0.0000 
     52 CA          4.2994   -2.6834   47.6594 C.3       3 GLC5        0.0000 
     53 CA          4.4000   -2.1530   45.8130 C.3       6 GLP5        0.0000 
     54 CA          6.2193   -2.2732   46.9823 C.3       3 GLC5        0.0000 
     55 CA          8.8375   -4.9502   49.8210 C.3       3 GLC5        0.0000 
     56 CA         11.1817   -5.7748   47.3325 C.3       3 GLC5        0.0000 
     57 CA         12.3460   -6.9210   48.0700 C.3       6 GLP5        0.0000 
     58 CA          8.1055   -5.3498   44.8335 C.3       3 GLC5        0.0000 
     59 CA          6.3850   -5.0730   43.8100 C.3       6 GLP5        0.0000 
     60 CA         11.2315   -6.8085   46.6317 C.3       3 GLC5        0.0000 
     61 CA          9.3760   -8.3810   45.7728 C.3       3 GLC5        0.0000 
     62 CA          8.6350  -10.0660   46.3520 C.3       6 GLP5        0.0000 
     63 CA          9.0960   -7.7705   40.6658 C.3       3 GLC5        0.0000 
     64 CA          8.0190   -6.7050   40.1510 C.3       6 GLP5        0.0000 
     65 CA         13.2600   -7.2215   38.8428 C.3       3 GLC5        0.0000 
     66 CA         11.6920   -8.6300   39.0030 C.3       9 GLL5        0.0000 
     67 CA         14.5730   -5.7550   39.3280 C.3       6 GLP5        0.0000 
@<TRIPOS>BOND
@<TRIPOS>SUBSTRUCTURE
     1 ALC1       21 GROUP        1 X    ALC  0     ROOT ALC X 1
     2 SEC2       24 GROUP        1 X    SEC  0     **** SEC X 2
     3 GLC5        1 GROUP        1 X    GLC  0     **** GLC X 6
     4 ALP1       23 GROUP        1 Y    ALP  0     ROOT ALP Y 8
     5 SEP2       26 GROUP        1 Y    SEP  0     **** SEP Y 9
     6 GLP5        3 GROUP        1 Y    GLP  0     **** GLP Y 13
     7 ALL1       22 GROUP        1 Z    ALL  0     ROOT ALL Z 15
     8 SEL2       25 GROUP        1 Z    SEL  0     **** SEL Z 16
     9 GLL5        2 GROUP        1 Z    GLL  0     **** GLL Z 20
@<TRIPOS>SET

