#    Name: 2gvj_DGB_2_ligand
#    Modification time : Tue Mar 25 15:12:01 2014

@<TRIPOS>MOLECULE
2gvj_DGB_2_ligand
   60    62     1     0     0
SMALL
NO_CHARGES


@<TRIPOS>ATOM
      1 CAK         4.8840   -1.6460   51.0300 C.ar      1 DGB501      0.0000 
      2 CAF         3.5440   -1.4970   50.6700 C.ar      1 DGB501      0.0000 
      3 CAE         2.9630   -2.3650   49.7450 C.ar      1 DGB501      0.0000 
      4 CAG         3.7200   -3.3940   49.1820 C.ar      1 DGB501      0.0000 
      5 CAL         5.0560   -3.5480   49.5480 C.ar      1 DGB501      0.0000 
      6 CBA         5.6430   -2.6730   50.4670 C.ar      1 DGB501      0.0000 
      7 CAY         7.0920   -2.8540   50.8480 C.2       1 DGB501      0.0000 
      8 OAB         7.3380   -3.3360   51.9430 O.2       1 DGB501      0.0000 
      9 NBC         8.0700   -2.5100   49.9910 N.am      1 DGB501      0.0000 
     10 CAU         7.7760   -1.9150   48.6840 C.3       1 DGB501      0.0000 
     11 CAS         8.3010   -2.8720   47.6190 C.3       1 DGB501      0.0000 
     12 CAT         9.5050   -2.6700   50.3010 C.3       1 DGB501      0.0000 
     13 CAR        10.1270   -3.5430   49.1930 C.3       1 DGB501      0.0000 
     14 CBB         9.8150   -3.0360   47.7720 C.3       1 DGB501      0.0000 
     15 CAQ        10.3620   -3.9470   46.6560 C.3       1 DGB501      0.0000 
     16 CAO         9.6730   -5.3100   46.5340 C.3       1 DGB501      0.0000 
     17 CAN         9.9790   -5.9430   45.1800 C.3       1 DGB501      0.0000 
     18 CAP        10.2550   -7.4490   45.2070 C.3       1 DGB501      0.0000 
     19 NAW        10.5650   -7.7430   43.8110 N.am      1 DGB501      0.0000 
     20 CAX         9.8840   -8.4410   42.9040 C.2       1 DGB501      0.0000 
     21 OAA         8.8130   -8.9980   43.1370 O.2       1 DGB501      0.0000 
     22 CAC        10.4590   -8.5040   41.6870 C.3       1 DGB501      0.0000 
     23 CAD         9.8870   -9.1680   40.6740 C.3       1 DGB501      0.0000 
     24 CAZ        10.4790   -9.2500   39.3150 C.ar      1 DGB501      0.0000 
     25 CAJ        11.6920   -8.6300   39.0030 C.ar      1 DGB501      0.0000 
     26 CAH        12.2020   -8.7460   37.7120 C.ar      1 DGB501      0.0000 
     27 CAI        11.4730   -9.4650   36.7630 C.ar      1 DGB501      0.0000 
     28 NAV        10.3110  -10.0620   37.0780 N.ar      1 DGB501      0.0000 
     29 CAM         9.8080   -9.9660   38.3220 C.ar      1 DGB501      0.0000 
     30 H           5.3095   -1.0033   51.7057 H         1 DGB501      0.0000 
     31 H           2.9821   -0.7437   51.0886 H         1 DGB501      0.0000 
     32 H           1.9787   -2.2473   49.4781 H         1 DGB501      0.0000 
     33 H           3.2945   -4.0326   48.5029 H         1 DGB501      0.0000 
     34 H           5.6154   -4.3098   49.1404 H         1 DGB501      0.0000 
     35 H           8.2755   -0.9620   48.5694 H         1 DGB501      0.0000 
     36 H           6.7101   -1.7921   48.5437 H         1 DGB501      0.0000 
     37 H           8.0822   -2.4730   46.6349 H         1 DGB501      0.0000 
     38 H           7.8232   -3.8384   47.7342 H         1 DGB501      0.0000 
     39 H           9.6434   -3.1709   51.2476 H         1 DGB501      0.0000 
     40 H          10.0092   -1.7151   50.3059 H         1 DGB501      0.0000 
     41 H           9.7509   -4.5677   49.2955 H         1 DGB501      0.0000 
     42 H          11.2144   -3.5693   49.3304 H         1 DGB501      0.0000 
     43 H          10.2632   -2.0477   47.6587 H         1 DGB501      0.0000 
     44 H          11.4421   -4.1061   46.8297 H         1 DGB501      0.0000 
     45 H          10.2737   -3.4136   45.6917 H         1 DGB501      0.0000 
     46 H           8.5990   -5.1773   46.6365 H         1 DGB501      0.0000 
     47 H          10.0298   -5.9624   47.3268 H         1 DGB501      0.0000 
     48 H          10.8553   -5.4304   44.7348 H         1 DGB501      0.0000 
     49 H           9.1292   -5.7510   44.4946 H         1 DGB501      0.0000 
     50 H           9.3744   -7.9521   45.5283 H         1 DGB501      0.0000 
     51 H          11.0889   -7.6322   45.8417 H         1 DGB501      0.0000 
     52 H          11.5244   -7.2970   43.4999 H         1 DGB501      0.0000 
     53 H          11.5652   -8.8837   41.8145 H         1 DGB501      0.0000 
     54 H          10.7073   -7.4099   41.3329 H         1 DGB501      0.0000 
     55 H           8.7847   -8.8071   40.5102 H         1 DGB501      0.0000 
     56 H           9.6584  -10.2756   40.9794 H         1 DGB501      0.0000 
     57 H          12.1967   -8.0989   39.7142 H         1 DGB501      0.0000 
     58 H          13.0906   -8.3146   37.4634 H         1 DGB501      0.0000 
     59 H          11.8582   -9.5270   35.7935 H         1 DGB501      0.0000 
     60 H           8.9060  -10.4247   38.5702 H         1 DGB501      0.0000 
@<TRIPOS>BOND
     1    2    1 ar   
     2    6    1 ar   
     3   30    1 1    
     4    3    2 ar   
     5   31    2 1    
     6    4    3 ar   
     7   32    3 1    
     8    5    4 ar   
     9   33    4 1    
    10    6    5 ar   
    11   34    5 1    
    12    7    6 1    
    13    8    7 2    
    14    9    7 am   
    15   10    9 1    
    16   12    9 1    
    17   11   10 1    
    18   35   10 1    
    19   36   10 1    
    20   14   11 1    
    21   37   11 1    
    22   38   11 1    
    23   13   12 1    
    24   39   12 1    
    25   40   12 1    
    26   14   13 1    
    27   41   13 1    
    28   42   13 1    
    29   15   14 1    
    30   43   14 1    
    31   16   15 1    
    32   44   15 1    
    33   45   15 1    
    34   17   16 1    
    35   46   16 1    
    36   47   16 1    
    37   18   17 1    
    38   48   17 1    
    39   49   17 1    
    40   19   18 1    
    41   50   18 1    
    42   51   18 1    
    43   20   19 am   
    44   52   19 1    
    45   21   20 2    
    46   22   20 1    
    47   23   22 1    
    48   53   22 1    
    49   54   22 1    
    50   24   23 1    
    51   55   23 1    
    52   56   23 1    
    53   25   24 ar   
    54   29   24 ar   
    55   26   25 ar   
    56   57   25 1    
    57   27   26 ar   
    58   58   26 1    
    59   28   27 ar   
    60   59   27 1    
    61   29   28 ar   
    62   60   29 1    
@<TRIPOS>SUBSTRUCTURE
     1 DGB501      1 GROUP   
@<TRIPOS>SET

