#    Name: 3l5l_FMN_1_INTS_M
#    Modification time : Mon Mar 24 21:03:02 2014

@<TRIPOS>MOLECULE
3l5l_FMN_1_INTS_M
   76     0    12     0     0
SMALL
NO_CHARGES


@<TRIPOS>ATOM
      1 N          20.4930   21.4725   57.1105 N.am      2 SEC2        0.0000 
      2 N          19.8040   22.0570   58.2300 N.am     10 SEL2        0.0000 
      3 N          21.1820   20.8880   55.9910 N.am      6 SEP2        0.0000 
      4 N          20.5915   22.2400   59.4035 N.am      2 SEC2        0.0000 
      5 N          21.3790   22.4230   60.5770 N.am      6 SEP2        0.0000 
      6 O          19.8270   23.2015   55.8160 O.2       1 ALC1        0.0000 
      7 O          19.3200   23.8740   56.9360 O.2       9 ALL1        0.0000 
      8 O          20.3340   22.5290   54.6960 O.2       5 ALP1        0.0000 
      9 N          18.8810   27.3895   55.7925 N.am      2 SEC2        0.0000 
     10 N          18.9470   25.6970   55.6610 N.am     10 SEL2        0.0000 
     11 N          18.8150   29.0820   55.9240 N.am      6 SEP2        0.0000 
     12 N          19.5390   25.5590   54.2995 N.am      2 SEC2        0.0000 
     13 N          20.1310   25.4210   52.9380 N.am      6 SEP2        0.0000 
     14 N          18.3670   28.0840   56.8955 N.am      2 SEC2        0.0000 
     15 N          17.9190   27.0860   57.8670 N.am     10 SEL2        0.0000 
     16 CA         17.2300   28.4155   57.0015 C.3       4 GLC5        0.0000 
     17 CA         17.8880   27.8590   59.0550 C.3      12 GLL5        0.0000 
     18 CA         16.5720   28.9720   54.9480 C.3       8 GLP5        0.0000 
     19 CA         17.7590   29.4370   56.9145 C.3       4 GLC5        0.0000 
     20 CA         17.5910   29.2230   58.9210 C.3      12 GLL5        0.0000 
     21 CA         17.9270   29.6510   54.9080 C.3       8 GLP5        0.0000 
     22 CA         18.8060   32.8455   60.7105 C.3       4 GLC5        0.0000 
     23 CA         17.5620   31.5420   59.8590 C.3      12 GLL5        0.0000 
     24 CA         20.0500   34.1490   61.5620 C.3       8 GLP5        0.0000 
     25 CA         20.1140   30.5465   61.7305 C.3       4 GLC5        0.0000 
     26 CA         18.0920   30.3620   62.5430 C.3      12 GLL5        0.0000 
     27 CA         22.1360   30.7310   60.9180 C.3       8 GLP5        0.0000 
     28 CA         18.8075   31.1135   63.9465 C.3       4 GLC5        0.0000 
     29 CA         19.5230   31.8650   65.3500 C.3       8 GLP5        0.0000 
     30 CA         19.0710   32.2555   62.0525 C.3       4 GLC5        0.0000 
     31 CA         21.0315   27.6745   60.8410 C.3       4 GLC5        0.0000 
     32 CA         20.4670   25.8990   61.9530 C.3      12 GLL5        0.0000 
     33 CA         21.5960   29.4500   59.7290 C.3       8 GLP5        0.0000 
     34 N          21.4165   23.8760   60.8175 N.am      2 SEC2        0.0000 
     35 N          21.4540   25.3290   61.0580 N.am     10 SEL2        0.0000 
     36 O          21.4430   25.8870   59.7350 O.2       1 ALC1        0.0000 
     37 O          21.4540   25.3290   61.0580 O.2       9 ALL1        0.0000 
     38 O          21.4320   26.4450   58.4120 O.2       5 ALP1        0.0000 
     39 CA         22.2780   24.5410   64.5355 C.3       4 GLC5        0.0000 
     40 CA         20.9660   25.5460   63.4100 C.3      12 GLL5        0.0000 
     41 CA         23.5900   23.5360   65.6610 C.3       8 GLP5        0.0000 
     42 N          21.6885   23.0295   63.0790 N.am      2 SEC2        0.0000 
     43 N          20.9800   24.1360   63.5970 N.am     10 SEL2        0.0000 
     44 N          22.3970   21.9230   62.5610 N.am      6 SEP2        0.0000 
     45 N          21.1795   23.2795   62.0870 N.am      2 SEC2        0.0000 
     46 CA         22.0970   24.7780   65.7765 C.3       4 GLC5        0.0000 
     47 CA         20.6040   26.0200   65.8920 C.3      12 GLL5        0.0000 
     48 CA         19.2680   25.6175   67.1475 C.3       4 GLC5        0.0000 
     49 CA         17.9320   25.2150   68.4030 C.3       8 GLP5        0.0000 
     50 NZ         20.0435   29.6455   66.4980 N.4       3 LYC4        0.0000 
     51 NZ         21.2200   29.0580   65.9780 N.4      11 LYL4        0.0000 
     52 NZ         18.1260   29.6600   67.9470 N.4       7 LYP4        0.0000 
     53 N          21.8880   30.1490   65.4205 N.am      2 SEC2        0.0000 
     54 N          21.2200   29.0580   65.9780 N.am     10 SEL2        0.0000 
     55 N          22.5560   31.2400   64.8630 N.am      6 SEP2        0.0000 
     56 N          20.0435   29.6455   66.4980 N.am      2 SEC2        0.0000 
     57 N          18.8670   30.2330   67.0180 N.am      6 SEP2        0.0000 
     58 NZ         20.0030   28.2785   68.4130 N.4       3 LYC4        0.0000 
     59 NZ         21.3860   27.9270   68.2150 N.4      11 LYL4        0.0000 
     60 N          22.0160   27.3155   69.3995 N.am      2 SEC2        0.0000 
     61 N          21.3860   27.9270   68.2150 N.am     10 SEL2        0.0000 
     62 N          22.6460   26.7040   70.5840 N.am      6 SEP2        0.0000 
     63 N          20.0030   28.2785   68.4130 N.am      2 SEC2        0.0000 
     64 N          18.6200   28.6300   68.6110 N.am      6 SEP2        0.0000 
     65 N          24.1930   28.7360   65.7370 N.am      2 SEC2        0.0000 
     66 N          23.4260   28.3150   66.8290 N.am     10 SEL2        0.0000 
     67 N          24.9600   29.1570   64.6450 N.am      6 SEP2        0.0000 
     68 CA         19.2137   28.7435   58.2010 C.3       4 GLC5        0.0000 
     69 CA         20.6880   28.9460   57.4140 C.3       8 GLP5        0.0000 
     70 CA         19.4070   30.4117   59.1727 C.3       4 GLC5        0.0000 
     71 CA         17.6960   30.0610   60.0440 C.3      12 GLL5        0.0000 
     72 CA         21.1850   30.0220   58.3940 C.3       8 GLP5        0.0000 
     73 CA         19.8890   28.7545   60.2700 C.3       4 GLC5        0.0000 
     74 CA         17.9970   29.4750   61.2750 C.3      12 GLL5        0.0000 
     75 CA         22.7157   26.1268   62.2002 C.3       4 GLC5        0.0000 
     76 CA         24.7150   26.5310   61.7190 C.3       8 GLP5        0.0000 
@<TRIPOS>BOND
@<TRIPOS>SUBSTRUCTURE
     1 ALC1        6 GROUP        1 X    ALC  0     ROOT ALC X 1
     2 SEC2        1 GROUP        1 X    SEC  0     **** SEC X 2
     3 LYC4       50 GROUP        1 X    LYC  0     **** LYC X 4
     4 GLC5       16 GROUP        1 X    GLC  0     **** GLC X 6
     5 ALP1        8 GROUP        1 Y    ALP  0     ROOT ALP Y 8
     6 SEP2        3 GROUP        1 Y    SEP  0     **** SEP Y 9
     7 LYP4       52 GROUP        1 Y    LYP  0     **** LYP Y 11
     8 GLP5       18 GROUP        1 Y    GLP  0     **** GLP Y 13
     9 ALL1        7 GROUP        1 Z    ALL  0     ROOT ALL Z 15
    10 SEL2        2 GROUP        1 Z    SEL  0     **** SEL Z 16
    11 LYL4       51 GROUP        1 Z    LYL  0     **** LYL Z 18
    12 GLL5       17 GROUP        1 Z    GLL  0     **** GLL Z 20
@<TRIPOS>SET

