#    Name: 3l5l_FMN_1_ligand
#    Modification time : Mon Mar 24 21:03:02 2014

@<TRIPOS>MOLECULE
3l5l_FMN_1_ligand
   50    52     1     0     0
SMALL
NO_CHARGES


@<TRIPOS>ATOM
      1 N1         19.1490   23.9570   59.3220 N.2       1 FMN1401     0.0000 
      2 C2         19.4180   23.2170   58.1930 C.2       1 FMN1401     0.0000 
      3 O2         19.8040   22.0570   58.2300 O.2       1 FMN1401     0.0000 
      4 N3         19.3200   23.8740   56.9360 N.am      1 FMN1401     0.0000 
      5 C4         18.8890   25.1800   56.7730 C.2       1 FMN1401     0.0000 
      6 O4         18.9470   25.6970   55.6610 O.2       1 FMN1401     0.0000 
      7 C4A        18.4550   25.8230   57.9790 C.2       1 FMN1401     0.0000 
      8 N5         17.9190   27.0860   57.8670 N.2       1 FMN1401     0.0000 
      9 C5A        17.8880   27.8590   59.0550 C.ar      1 FMN1401     0.0000 
     10 C6         17.5910   29.2230   58.9210 C.ar      1 FMN1401     0.0000 
     11 C7         17.6960   30.0610   60.0440 C.ar      1 FMN1401     0.0000 
     12 C7M        17.5620   31.5420   59.8590 C.3       1 FMN1401     0.0000 
     13 C8         17.9970   29.4750   61.2750 C.ar      1 FMN1401     0.0000 
     14 C8M        18.0920   30.3620   62.5430 C.3       1 FMN1401     0.0000 
     15 C9         18.2610   28.1470   61.4090 C.ar      1 FMN1401     0.0000 
     16 C9A        18.2350   27.3070   60.2800 C.ar      1 FMN1401     0.0000 
     17 N10        18.6000   25.9630   60.3620 N.pl3     1 FMN1401     0.0000 
     18 C10        18.7450   25.2060   59.1990 C.2       1 FMN1401     0.0000 
     19 C1'        19.1330   25.4030   61.6660 C.3       1 FMN1401     0.0000 
     20 C2'        20.4670   25.8990   61.9530 C.3       1 FMN1401     0.0000 
     21 O2'        21.4540   25.3290   61.0580 O.3       1 FMN1401     0.0000 
     22 C3'        20.9660   25.5460   63.4100 C.3       1 FMN1401     0.0000 
     23 O3'        20.9800   24.1360   63.5970 O.3       1 FMN1401     0.0000 
     24 C4'        20.0560   26.2170   64.4820 C.3       1 FMN1401     0.0000 
     25 O4'        19.8610   27.5790   64.1890 O.3       1 FMN1401     0.0000 
     26 C5'        20.6040   26.0200   65.8920 C.3       1 FMN1401     0.0000 
     27 O5'        21.8890   26.6270   66.0710 O.3       1 FMN1401     0.0000 
     28 P          22.0050   28.0710   66.8240 P.3       1 FMN1401     0.0000 
     29 O1P        21.2200   29.0580   65.9780 O.co2     1 FMN1401     0.0000 
     30 O2P        21.3860   27.9270   68.2150 O.co2     1 FMN1401     0.0000 
     31 O3P        23.4260   28.3150   66.8290 O.co2     1 FMN1401     0.0000 
     32 H          19.5961   23.3197   56.0834 H         1 FMN1401     0.0000 
     33 H          17.3026   29.6028   58.0213 H         1 FMN1401     0.0000 
     34 H          18.4822   27.7360   62.3279 H         1 FMN1401     0.0000 
     35 H          19.1311   24.3035   61.5956 H         1 FMN1401     0.0000 
     36 H          18.4322   25.6766   62.4709 H         1 FMN1401     0.0000 
     37 H          20.5086   26.9841   61.8841 H         1 FMN1401     0.0000 
     38 H          21.9574   25.9716   63.5136 H         1 FMN1401     0.0000 
     39 H          19.0891   25.6745   64.4355 H         1 FMN1401     0.0000 
     40 H          20.6433   24.9304   66.0865 H         1 FMN1401     0.0000 
     41 H          19.8610   26.4349   66.6007 H         1 FMN1401     0.0000 
     42 H          17.6578   32.0345   60.7240 H         1 FMN1401     0.0000 
     43 H          18.2573   31.9031   59.2376 H         1 FMN1401     0.0000 
     44 H          16.6712   31.7896   59.4779 H         1 FMN1401     0.0000 
     45 H          18.3170   29.8249   63.3560 H         1 FMN1401     0.0000 
     46 H          18.7969   31.0655   62.4522 H         1 FMN1401     0.0000 
     47 H          17.2304   30.8330   62.7321 H         1 FMN1401     0.0000 
     48 H          21.3016   25.7845   60.1809 H         1 FMN1401     0.0000 
     49 H          21.6716   23.9753   64.3012 H         1 FMN1401     0.0000 
     50 H          20.3653   28.0710   64.8986 H         1 FMN1401     0.0000 
@<TRIPOS>BOND
     1    2    1 1    
     2   18    1 2    
     3    3    2 2    
     4    4    2 am   
     5    5    4 am   
     6   32    4 1    
     7    6    5 2    
     8    7    5 1    
     9    8    7 2    
    10   18    7 1    
    11    9    8 1    
    12   10    9 ar   
    13   16    9 ar   
    14   11   10 ar   
    15   33   10 1    
    16   12   11 1    
    17   13   11 ar   
    18   42   12 1    
    19   43   12 1    
    20   44   12 1    
    21   14   13 1    
    22   15   13 ar   
    23   45   14 1    
    24   46   14 1    
    25   47   14 1    
    26   16   15 ar   
    27   34   15 1    
    28   17   16 1    
    29   18   17 1    
    30   19   17 1    
    31   20   19 1    
    32   35   19 1    
    33   36   19 1    
    34   21   20 1    
    35   22   20 1    
    36   37   20 1    
    37   48   21 1    
    38   23   22 1    
    39   24   22 1    
    40   38   22 1    
    41   49   23 1    
    42   25   24 1    
    43   26   24 1    
    44   39   24 1    
    45   50   25 1    
    46   27   26 1    
    47   40   26 1    
    48   41   26 1    
    49   28   27 1    
    50   29   28 ar   
    51   30   28 ar   
    52   31   28 ar   
@<TRIPOS>SUBSTRUCTURE
     1 FMN1401     1 GROUP   
@<TRIPOS>SET

