#    Name: 3mcy_ZH1_3_INTS_M
#    Modification time : Mon Mar 24 23:00:21 2014

@<TRIPOS>MOLECULE
3mcy_ZH1_3_INTS_M
   67     0     9     0     0
SMALL
NO_CHARGES


@<TRIPOS>ATOM
      1 CA        -51.7990   47.5630   11.6270 C.3       3 GLC5        0.0000 
      2 CA        -52.9280   48.4420   13.2420 C.3       9 GLL5        0.0000 
      3 CA        -50.6700   46.6840   10.0120 C.3       6 GLP5        0.0000 
      4 CA        -50.3710   45.2000   14.6185 C.3       3 GLC5        0.0000 
      5 CA        -51.9300   44.0000   14.8230 C.3       9 GLL5        0.0000 
      6 CA        -48.8120   46.4000   14.4140 C.3       6 GLP5        0.0000 
      7 CA        -54.2040   38.4615   15.9170 C.3       3 GLC5        0.0000 
      8 CA        -54.2790   39.6430   14.2000 C.3       9 GLL5        0.0000 
      9 CA        -54.1290   37.2800   17.6340 C.3       6 GLP5        0.0000 
     10 CA        -50.3090   42.1765   13.7255 C.3       3 GLC5        0.0000 
     11 CA        -51.8760   41.2530   14.4820 C.3       9 GLL5        0.0000 
     12 CA        -48.7420   43.1000   12.9690 C.3       6 GLP5        0.0000 
     13 CA        -54.2600   42.2935   17.1590 C.3       3 GLC5        0.0000 
     14 CA        -55.3950   41.4050   15.6290 C.3       9 GLL5        0.0000 
     15 CA        -53.1250   43.1820   18.6890 C.3       6 GLP5        0.0000 
     16 CA        -55.8700   43.4345   15.6350 C.3       3 GLC5        0.0000 
     17 CA        -56.3450   45.4640   15.6410 C.3       6 GLP5        0.0000 
     18 N         -55.4035   48.4855   19.0625 N.am      2 SEC2        0.0000 
     19 N         -54.6340   48.9010   17.9730 N.am      8 SEL2        0.0000 
     20 N         -56.1730   48.0700   20.1520 N.am      5 SEP2        0.0000 
     21 N         -54.0090   37.0515   13.7395 N.am      2 SEC2        0.0000 
     22 N         -52.9670   37.9540   13.0540 N.am      8 SEL2        0.0000 
     23 N         -55.0510   36.1490   14.4250 N.am      5 SEP2        0.0000 
     24 O         -52.2730   38.0200   11.6435 O.2       1 ALC1        0.0000 
     25 O         -52.9670   37.9540   13.0540 O.2       7 ALL1        0.0000 
     26 O         -51.5790   38.0860   10.2330 O.2       4 ALP1        0.0000 
     27 N         -55.6785   38.9385   12.2470 N.am      2 SEC2        0.0000 
     28 N         -55.4680   39.3970   13.4540 N.am      8 SEL2        0.0000 
     29 N         -55.8890   38.4800   11.0400 N.am      5 SEP2        0.0000 
     30 O         -56.4025   38.8315   14.2075 O.2       1 ALC1        0.0000 
     31 O         -55.4680   39.3970   13.4540 O.2       7 ALL1        0.0000 
     32 O         -57.3370   38.2660   14.9610 O.2       4 ALP1        0.0000 
     33 N         -52.2010   39.2095   16.3745 N.am      2 SEC2        0.0000 
     34 N         -51.5410   38.9960   15.1840 N.am      8 SEL2        0.0000 
     35 N         -52.8610   39.4230   17.5650 N.am      5 SEP2        0.0000 
     36 N         -51.2325   37.5150   15.4725 N.am      2 SEC2        0.0000 
     37 N         -50.9240   36.0340   15.7610 N.am      5 SEP2        0.0000 
     38 N         -54.1205   39.9195   17.1040 N.am      2 SEC2        0.0000 
     39 N         -55.3800   40.4160   16.6430 N.am      8 SEL2        0.0000 
     40 N         -55.3555   41.3115   17.9240 N.am      2 SEC2        0.0000 
     41 N         -55.3310   42.2070   19.2050 N.am      5 SEP2        0.0000 
     42 O         -56.3585   39.3410   15.8020 O.2       1 ALC1        0.0000 
     43 O         -55.3800   40.4160   16.6430 O.2       7 ALL1        0.0000 
     44 O         -56.4000   39.6855   16.8375 O.2       1 ALC1        0.0000 
     45 O         -57.4200   38.9550   17.0320 O.2       4 ALP1        0.0000 
     46 CA        -52.6680   51.6252   13.5085 C.3       3 GLC5        0.0000 
     47 CA        -53.7390   50.1830   14.7080 C.3       9 GLL5        0.0000 
     48 CA        -51.8460   53.2680   12.9290 C.3       6 GLP5        0.0000 
     49 CA        -51.7685   45.7780   11.3355 C.3       3 GLC5        0.0000 
     50 CA        -53.0230   45.5420   12.7720 C.3       9 GLL5        0.0000 
     51 CA        -54.8340   44.0920   12.5680 C.3       3 GLC5        0.0000 
     52 CA        -56.8010   43.3120   12.4770 C.3       6 GLP5        0.0000 
     53 CA        -51.0478   46.6623   14.7565 C.3       3 GLC5        0.0000 
     54 CA        -52.7890   46.1120   14.0230 C.3       9 GLL5        0.0000 
     55 CA        -49.5800   47.5980   14.9770 C.3       6 GLP5        0.0000 
     56 CA        -52.6055   43.9262   16.8125 C.3       3 GLC5        0.0000 
     57 CA        -52.2420   45.3410   15.0490 C.3       9 GLL5        0.0000 
     58 CA        -54.4595   45.5240   14.9321 C.3       3 GLC5        0.0000 
     59 CA        -50.4629   43.5041   13.4550 C.3       3 GLC5        0.0000 
     60 CA        -52.7110   44.2020   12.5460 C.3       9 GLL5        0.0000 
     61 CA        -51.4479   47.7677   14.8001 C.3       3 GLC5        0.0000 
     62 CA        -54.9940   46.9686   15.4703 C.3       3 GLC5        0.0000 
     63 CA        -53.1130   47.5020   14.2570 C.3       9 GLL5        0.0000 
     64 CA        -50.0130   39.9052   14.7157 C.3       3 GLC5        0.0000 
     65 CA        -48.2020   39.2850   15.1780 C.3       6 GLP5        0.0000 
     66 CA        -55.8162   42.2850   13.8072 C.3       3 GLC5        0.0000 
     67 CA        -54.2680   41.1110   14.6460 C.3       9 GLL5        0.0000 
@<TRIPOS>BOND
@<TRIPOS>SUBSTRUCTURE
     1 ALC1       24 GROUP        1 X    ALC  0     ROOT ALC X 1
     2 SEC2       18 GROUP        1 X    SEC  0     **** SEC X 2
     3 GLC5        1 GROUP        1 X    GLC  0     **** GLC X 6
     4 ALP1       26 GROUP        1 Y    ALP  0     ROOT ALP Y 8
     5 SEP2       20 GROUP        1 Y    SEP  0     **** SEP Y 9
     6 GLP5        3 GROUP        1 Y    GLP  0     **** GLP Y 13
     7 ALL1       25 GROUP        1 Z    ALL  0     ROOT ALL Z 15
     8 SEL2       19 GROUP        1 Z    SEL  0     **** SEL Z 16
     9 GLL5        2 GROUP        1 Z    GLL  0     **** GLL Z 20
@<TRIPOS>SET

