#    Name: 3mcy_ZH1_3_ligand
#    Modification time : Mon Mar 24 23:00:21 2014

@<TRIPOS>MOLECULE
3mcy_ZH1_3_ligand
   50    52     1     0     0
SMALL
NO_CHARGES


@<TRIPOS>ATOM
      1 C1        -53.2410   49.7820   13.4680 C.ar      1 ZH1182      0.0000 
      2 C2        -52.9280   48.4420   13.2420 C.ar      1 ZH1182      0.0000 
      3 C3        -53.0230   45.5420   12.7720 C.ar      1 ZH1182      0.0000 
      4 C4        -52.2420   45.3410   15.0490 C.ar      1 ZH1182      0.0000 
      5 C5        -53.7390   50.1830   14.7080 C.ar      1 ZH1182      0.0000 
      6 C6        -52.7110   44.2020   12.5460 C.ar      1 ZH1182      0.0000 
      7 C7        -51.9300   44.0000   14.8230 C.ar      1 ZH1182      0.0000 
      8 C8        -53.6110   47.9030   15.4970 C.ar      1 ZH1182      0.0000 
      9 C9        -52.7890   46.1120   14.0230 C.ar      1 ZH1182      0.0000 
     10 C10       -53.1130   47.5020   14.2570 C.ar      1 ZH1182      0.0000 
     11 C11       -53.9240   49.2440   15.7220 C.ar      1 ZH1182      0.0000 
     12 C12       -52.1640   43.4310   13.5720 C.ar      1 ZH1182      0.0000 
     13 C13       -54.4420   49.6630   17.0140 C.2       1 ZH1182      0.0000 
     14 C14       -53.0570   39.3500   13.3280 C.3       1 ZH1182      0.0000 
     15 C15       -54.2790   39.6430   14.2000 C.3       1 ZH1182      0.0000 
     16 C16       -51.7720   39.7980   14.0250 C.3       1 ZH1182      0.0000 
     17 C17       -54.2680   41.1110   14.6460 C.3       1 ZH1182      0.0000 
     18 C18       -51.8760   41.2530   14.4820 C.3       1 ZH1182      0.0000 
     19 C19       -55.2110   51.5420   18.2670 C.3       1 ZH1182      0.0000 
     20 C20       -55.3950   41.4050   15.6290 C.3       1 ZH1182      0.0000 
     21 O21       -54.6340   48.9010   17.9730 O.2       1 ZH1182      0.0000 
     22 O22       -53.0390   41.4450   15.2960 O.3       1 ZH1182      0.0000 
     23 O23       -52.9670   37.9540   13.0540 O.3       1 ZH1182      0.0000 
     24 O24       -55.4680   39.3970   13.4540 O.3       1 ZH1182      0.0000 
     25 O25       -51.5410   38.9960   15.1840 O.3       1 ZH1182      0.0000 
     26 O26       -55.3800   40.4160   16.6430 O.3       1 ZH1182      0.0000 
     27 O27       -51.8570   42.1140   13.3500 O.3       1 ZH1182      0.0000 
     28 O28       -54.6950   51.0070   17.0440 O.3       1 ZH1182      0.0000 
     29 H         -53.1050   50.4742   12.7216 H         1 ZH1182      0.0000 
     30 H         -52.5617   48.1465   12.3297 H         1 ZH1182      0.0000 
     31 H         -53.4256   46.1099   12.0165 H         1 ZH1182      0.0000 
     32 H         -52.0691   45.7602   15.9700 H         1 ZH1182      0.0000 
     33 H         -53.9693   51.1700   14.8736 H         1 ZH1182      0.0000 
     34 H         -52.8836   43.7824   11.6249 H         1 ZH1182      0.0000 
     35 H         -51.5280   43.4325   15.5786 H         1 ZH1182      0.0000 
     36 H         -53.7471   47.2118   16.2437 H         1 ZH1182      0.0000 
     37 H         -53.1517   39.9188   12.4117 H         1 ZH1182      0.0000 
     38 H         -54.2280   39.0259   15.0771 H         1 ZH1182      0.0000 
     39 H         -50.9560   39.7212   13.3309 H         1 ZH1182      0.0000 
     40 H         -54.4198   41.7350   13.7740 H         1 ZH1182      0.0000 
     41 H         -50.9697   41.4375   15.0949 H         1 ZH1182      0.0000 
     42 H         -56.3342   41.4066   15.0691 H         1 ZH1182      0.0000 
     43 H         -55.2340   42.4091   16.0307 H         1 ZH1182      0.0000 
     44 H         -54.5852   51.3901   19.0321 H         1 ZH1182      0.0000 
     45 H         -55.3646   52.5282   18.2054 H         1 ZH1182      0.0000 
     46 H         -56.0848   51.1242   18.5157 H         1 ZH1182      0.0000 
     47 H         -52.4885   37.8926   12.1781 H         1 ZH1182      0.0000 
     48 H         -56.0868   38.9437   14.0956 H         1 ZH1182      0.0000 
     49 H         -50.5507   39.0185   15.3210 H         1 ZH1182      0.0000 
     50 H         -56.2715   39.9674   16.5800 H         1 ZH1182      0.0000 
@<TRIPOS>BOND
     1    2    1 ar   
     2    5    1 ar   
     3   29    1 1    
     4   10    2 ar   
     5   30    2 1    
     6    6    3 ar   
     7    9    3 ar   
     8   31    3 1    
     9    7    4 ar   
    10    9    4 ar   
    11   32    4 1    
    12   11    5 ar   
    13   33    5 1    
    14   12    6 ar   
    15   34    6 1    
    16   12    7 ar   
    17   35    7 1    
    18   10    8 ar   
    19   11    8 ar   
    20   36    8 1    
    21   10    9 1    
    22   13   11 1    
    23   27   12 1    
    24   21   13 2    
    25   28   13 1    
    26   15   14 1    
    27   16   14 1    
    28   23   14 1    
    29   37   14 1    
    30   17   15 1    
    31   24   15 1    
    32   38   15 1    
    33   18   16 1    
    34   25   16 1    
    35   39   16 1    
    36   20   17 1    
    37   22   17 1    
    38   40   17 1    
    39   22   18 1    
    40   27   18 1    
    41   41   18 1    
    42   28   19 1    
    43   44   19 1    
    44   45   19 1    
    45   46   19 1    
    46   26   20 1    
    47   42   20 1    
    48   43   20 1    
    49   47   23 1    
    50   48   24 1    
    51   49   25 1    
    52   50   26 1    
@<TRIPOS>SUBSTRUCTURE
     1 ZH1182      1 GROUP   
@<TRIPOS>SET

