#    Name: 3r1k_COA_1_INTS_M
#    Modification time : Tue Mar 25 10:27:28 2014

@<TRIPOS>MOLECULE
3r1k_COA_1_INTS_M
   86     0    12     0     0
SMALL
NO_CHARGES


@<TRIPOS>ATOM
      1 CA         21.5550  -20.7080   55.9440 C.3       4 GLC5        0.0000 
      2 CA         20.2930  -22.4470   55.6380 C.3      12 GLL5        0.0000 
      3 CA         22.8170  -18.9690   56.2500 C.3       8 GLP5        0.0000 
      4 O          17.8520  -19.9525   53.5620 O.2       1 ALC1        0.0000 
      5 O          18.2410  -21.2080   52.9420 O.2       9 ALL1        0.0000 
      6 O          17.4630  -18.6970   54.1820 O.2       5 ALP1        0.0000 
      7 CA         19.1360  -27.9440   53.0520 C.3       4 GLC5        0.0000 
      8 CA         21.0590  -27.4210   53.5620 C.3      12 GLL5        0.0000 
      9 CA         17.2130  -28.4670   52.5420 C.3       8 GLP5        0.0000 
     10 NZ         26.0480  -29.5125   53.2785 N.4       3 LYC4        0.0000 
     11 NZ         24.8400  -30.0710   53.9000 N.4      11 LYL4        0.0000 
     12 NZ         27.6600  -29.5830   51.5610 N.4       7 LYP4        0.0000 
     13 N          26.0480  -29.5125   53.2785 N.am      2 SEC2        0.0000 
     14 N          24.8400  -30.0710   53.9000 N.am     10 SEL2        0.0000 
     15 N          27.2560  -28.9540   52.6570 N.am      6 SEP2        0.0000 
     16 CA         24.6785  -26.5635   52.8065 C.3       4 GLC5        0.0000 
     17 CA         23.1340  -27.5760   52.3590 C.3      12 GLL5        0.0000 
     18 CA         26.2230  -25.5510   53.2540 C.3       8 GLP5        0.0000 
     19 CA         24.6460  -26.8115   50.1240 C.3       4 GLC5        0.0000 
     20 CA         22.9930  -28.0530   50.9160 C.3      12 GLL5        0.0000 
     21 CA         26.2990  -25.5700   49.3320 C.3       8 GLP5        0.0000 
     22 N          20.2785  -30.8470   48.4210 N.am      2 SEC2        0.0000 
     23 N          20.0900  -29.6620   49.1980 N.am     10 SEL2        0.0000 
     24 N          20.4670  -32.0320   47.6440 N.am      6 SEP2        0.0000 
     25 N          23.3515  -28.4755   47.3135 N.am      2 SEC2        0.0000 
     26 N          22.1590  -28.7750   48.1990 N.am     10 SEL2        0.0000 
     27 N          24.5440  -28.1760   46.4280 N.am      6 SEP2        0.0000 
     28 NZ         17.2025  -26.3175   49.7000 N.4       3 LYC4        0.0000 
     29 NZ         17.7380  -27.3450   48.5840 N.4      11 LYL4        0.0000 
     30 NZ         16.9060  -26.0980   51.8260 N.4       7 LYP4        0.0000 
     31 N          17.1365  -28.5340   48.8700 N.am      2 SEC2        0.0000 
     32 N          17.7380  -27.3450   48.5840 N.am     10 SEL2        0.0000 
     33 N          16.5350  -29.7230   49.1560 N.am      6 SEP2        0.0000 
     34 N          17.3740  -27.3730   50.0790 N.am      2 SEC2        0.0000 
     35 N          17.0100  -27.4010   51.5740 N.am      6 SEP2        0.0000 
     36 N          17.2025  -26.3175   49.7000 N.am      2 SEC2        0.0000 
     37 N          16.6670  -25.2900   50.8160 N.am      6 SEP2        0.0000 
     38 N          20.6225  -27.9640   45.9015 N.am      2 SEC2        0.0000 
     39 N          19.2320  -27.9540   46.6970 N.am     10 SEL2        0.0000 
     40 N          22.0130  -27.9740   45.1060 N.am      6 SEP2        0.0000 
     41 CA         20.7380  -21.9455   44.9725 C.3       4 GLC5        0.0000 
     42 CA         19.2680  -22.7940   46.2850 C.3      12 GLL5        0.0000 
     43 CA         22.2080  -21.0970   43.6600 C.3       8 GLP5        0.0000 
     44 CA         18.5785  -22.2785   44.3260 C.3       4 GLC5        0.0000 
     45 CA         17.8890  -21.7630   42.3670 C.3       8 GLP5        0.0000 
     46 CA         18.9680  -24.4955   45.0465 C.3       4 GLC5        0.0000 
     47 CA         18.6680  -26.1970   43.8080 C.3       8 GLP5        0.0000 
     48 CA         21.2790  -23.2680   45.9260 C.3       4 GLC5        0.0000 
     49 CA         23.2900  -23.7420   45.5670 C.3       8 GLP5        0.0000 
     50 CA         19.7055  -20.4915   49.6255 C.3       4 GLC5        0.0000 
     51 CA         18.9380  -21.9060   48.5680 C.3      12 GLL5        0.0000 
     52 CA         20.4730  -19.0770   50.6830 C.3       8 GLP5        0.0000 
     53 N          16.5815  -23.0255   44.1510 N.am      2 SEC2        0.0000 
     54 N          16.2300  -22.2270   45.1960 N.am     10 SEL2        0.0000 
     55 N          16.9330  -23.8240   43.1060 N.am      6 SEP2        0.0000 
     56 CA         14.7330  -19.0200   44.0310 C.3       4 GLC5        0.0000 
     57 CA         15.9290  -18.9800   45.7180 C.3      12 GLL5        0.0000 
     58 CA         13.5370  -19.0600   42.3440 C.3       8 GLP5        0.0000 
     59 CA         16.4280  -17.7905   44.2985 C.3       4 GLC5        0.0000 
     60 CA         16.9270  -16.6010   42.8790 C.3       8 GLP5        0.0000 
     61 N          17.9430  -17.2265   48.3670 N.am      2 SEC2        0.0000 
     62 N          17.0950  -17.9670   47.5430 N.am     10 SEL2        0.0000 
     63 N          18.7910  -16.4860   49.1910 N.am      6 SEP2        0.0000 
     64 O          18.7520  -19.1460   44.4815 O.2       1 ALC1        0.0000 
     65 O          18.3450  -18.9050   45.8960 O.2       9 ALL1        0.0000 
     66 O          19.1590  -19.3870   43.0670 O.2       5 ALP1        0.0000 
     67 CA         20.0505  -18.7515   48.5340 C.3       4 GLC5        0.0000 
     68 CA         19.6280  -18.4260   46.3850 C.3      12 GLL5        0.0000 
     69 CA         18.4730  -16.8340   44.3420 C.3       4 GLC5        0.0000 
     70 CA         20.0190  -17.0670   45.8050 C.3      12 GLL5        0.0000 
     71 CA         22.3535  -15.0270   47.9725 C.3       4 GLC5        0.0000 
     72 CA         21.5010  -16.3440   46.5710 C.3      12 GLL5        0.0000 
     73 CA         23.2060  -13.7100   49.3740 C.3       8 GLP5        0.0000 
     74 CA         20.0370  -15.7630   47.6290 C.3       4 GLC5        0.0000 
     75 CA         18.5730  -15.1820   48.6870 C.3       8 GLP5        0.0000 
     76 CA         22.8265  -17.1605   47.4405 C.3       4 GLC5        0.0000 
     77 CA         24.1520  -17.9770   48.3100 C.3       8 GLP5        0.0000 
     78 CA         20.3160  -21.1217   52.5800 C.3       4 GLC5        0.0000 
     79 CA         19.1490  -21.9300   53.5920 C.3      12 GLL5        0.0000 
     80 CA         21.2410  -19.7240   51.8480 C.3       8 GLP5        0.0000 
     81 CA         20.8933  -23.3805   48.1403 C.3       4 GLC5        0.0000 
     82 CA         19.0730  -24.3620   48.2370 C.3      12 GLL5        0.0000 
     83 CA         22.9080  -23.9560   48.0330 C.3       8 GLP5        0.0000 
     84 CA         20.9793  -18.7477   44.5145 C.3       4 GLC5        0.0000 
     85 CA         22.1350  -19.7490   42.9340 C.3       8 GLP5        0.0000 
     86 CA         19.1983  -16.4642   47.3910 C.3       4 GLC5        0.0000 
@<TRIPOS>BOND
@<TRIPOS>SUBSTRUCTURE
     1 ALC1        4 GROUP        1 X    ALC  0     ROOT ALC X 1
     2 SEC2       13 GROUP        1 X    SEC  0     **** SEC X 2
     3 LYC4       10 GROUP        1 X    LYC  0     **** LYC X 4
     4 GLC5        1 GROUP        1 X    GLC  0     **** GLC X 6
     5 ALP1        6 GROUP        1 Y    ALP  0     ROOT ALP Y 8
     6 SEP2       15 GROUP        1 Y    SEP  0     **** SEP Y 9
     7 LYP4       12 GROUP        1 Y    LYP  0     **** LYP Y 11
     8 GLP5        3 GROUP        1 Y    GLP  0     **** GLP Y 13
     9 ALL1        5 GROUP        1 Z    ALL  0     ROOT ALL Z 15
    10 SEL2       14 GROUP        1 Z    SEL  0     **** SEL Z 16
    11 LYL4       11 GROUP        1 Z    LYL  0     **** LYL Z 18
    12 GLL5        2 GROUP        1 Z    GLL  0     **** GLL Z 20
@<TRIPOS>SET

