#    Name: 3r1k_COA_1_ligand
#    Modification time : Tue Mar 25 10:27:28 2014

@<TRIPOS>MOLECULE
3r1k_COA_1_ligand
   79    81     1     0     0
SMALL
NO_CHARGES


@<TRIPOS>ATOM
      1 N1A        19.4860  -21.6050   54.8940 N.ar      1 COA500      0.0000 
      2 C2A        20.2930  -22.4470   55.6380 C.ar      1 COA500      0.0000 
      3 N3A        20.7680  -23.6160   55.0770 N.ar      1 COA500      0.0000 
      4 C4A        20.4410  -23.9390   53.7980 C.ar      1 COA500      0.0000 
      5 C5A        19.6330  -23.1090   53.0320 C.ar      1 COA500      0.0000 
      6 C6A        19.1490  -21.9300   53.5920 C.ar      1 COA500      0.0000 
      7 N6A        18.2410  -21.2080   52.9420 N.pl3     1 COA500      0.0000 
      8 N7A        19.4820  -23.6780   51.8140 N.2       1 COA500      0.0000 
      9 C8A        20.1700  -24.8420   51.7910 C.2       1 COA500      0.0000 
     10 N9A        20.7650  -25.0120   53.0150 N.pl3     1 COA500      0.0000 
     11 C1B        21.7210  -26.0590   53.4130 C.3       1 COA500      0.0000 
     12 C2B        21.0590  -27.4210   53.5620 C.3       1 COA500      0.0000 
     13 O2B        20.4870  -27.6060   54.8370 O.3       1 COA500      0.0000 
     14 C3B        22.2270  -28.3490   53.3090 C.3       1 COA500      0.0000 
     15 O3B        22.9180  -28.5510   54.5130 O.3       1 COA500      0.0000 
     16 P3B        23.6600  -29.9340   54.8310 P.3       1 COA500      0.0000 
     17 O7A        22.7030  -31.0830   54.6120 O.co2     1 COA500      0.0000 
     18 O8A        24.1240  -29.8880   56.2650 O.co2     1 COA500      0.0000 
     19 O9A        24.8400  -30.0710   53.9000 O.co2     1 COA500      0.0000 
     20 C4B        23.1340  -27.5760   52.3590 C.3       1 COA500      0.0000 
     21 O4B        22.7640  -26.2130   52.4630 O.3       1 COA500      0.0000 
     22 C5B        22.9930  -28.0530   50.9160 C.3       1 COA500      0.0000 
     23 O5B        21.6220  -28.2510   50.6460 O.3       1 COA500      0.0000 
     24 P1A        21.0480  -28.5060   49.1780 P.3       1 COA500      0.0000 
     25 O1A        20.0900  -29.6620   49.1980 O.co2     1 COA500      0.0000 
     26 O2A        22.1590  -28.7750   48.1990 O.co2     1 COA500      0.0000 
     27 O3A        20.2700  -27.1240   48.8800 O.3       1 COA500      0.0000 
     28 P2A        19.0200  -27.0200   47.8620 P.3       1 COA500      0.0000 
     29 O4A        17.7380  -27.3450   48.5840 O.co2     1 COA500      0.0000 
     30 O5A        19.2320  -27.9540   46.6970 O.co2     1 COA500      0.0000 
     31 O6A        18.9790  -25.4820   47.3630 O.3       1 COA500      0.0000 
     32 CBP        18.5650  -23.0460   47.6170 C.3       1 COA500      0.0000 
     33 CCP        19.0730  -24.3620   48.2370 C.3       1 COA500      0.0000 
     34 CDP        19.2680  -22.7940   46.2850 C.3       1 COA500      0.0000 
     35 CEP        18.9380  -21.9060   48.5680 C.3       1 COA500      0.0000 
     36 CAP        17.0350  -23.1430   47.4360 C.3       1 COA500      0.0000 
     37 OAP        16.4000  -23.2800   48.6870 O.3       1 COA500      0.0000 
     38 C9P        16.3670  -22.0710   46.5900 C.2       1 COA500      0.0000 
     39 O9P        16.2300  -22.2270   45.1960 O.2       1 COA500      0.0000 
     40 N8P        15.8920  -20.9860   47.2130 N.am      1 COA500      0.0000 
     41 C7P        15.0960  -19.9810   46.5220 C.3       1 COA500      0.0000 
     42 C6P        15.9290  -18.9800   45.7180 C.3       1 COA500      0.0000 
     43 C5P        17.1830  -18.5740   46.4650 C.2       1 COA500      0.0000 
     44 O5P        17.0950  -17.9670   47.5430 O.2       1 COA500      0.0000 
     45 N4P        18.3450  -18.9050   45.8960 N.am      1 COA500      0.0000 
     46 C3P        19.6280  -18.4260   46.3850 C.3       1 COA500      0.0000 
     47 C2P        20.0190  -17.0670   45.8050 C.3       1 COA500      0.0000 
     48 S1P        21.5010  -16.3440   46.5710 S.3       1 COA500      0.0000 
     49 H          20.5383  -22.2017   56.6077 H         1 COA500      0.0000 
     50 H          17.8480  -20.4386   53.4455 H         1 COA500      0.0000 
     51 H          18.0331  -21.4996   52.0084 H         1 COA500      0.0000 
     52 H          20.2372  -25.4508   51.0526 H         1 COA500      0.0000 
     53 H          22.1482  -25.8101   54.3907 H         1 COA500      0.0000 
     54 H          20.3741  -27.5333   52.7493 H         1 COA500      0.0000 
     55 H          21.8952  -29.2171   52.8404 H         1 COA500      0.0000 
     56 H          24.1537  -27.7239   52.6773 H         1 COA500      0.0000 
     57 H          23.5734  -28.9731   50.8129 H         1 COA500      0.0000 
     58 H          23.4374  -27.2916   50.2704 H         1 COA500      0.0000 
     59 H          20.1220  -24.1835   48.5617 H         1 COA500      0.0000 
     60 H          18.4940  -24.5239   49.1731 H         1 COA500      0.0000 
     61 H          16.8718  -24.1252   46.8714 H         1 COA500      0.0000 
     62 H          16.0700  -20.8089   48.2251 H         1 COA500      0.0000 
     63 H          14.4806  -19.4054   47.2437 H         1 COA500      0.0000 
     64 H          14.3796  -20.4613   45.8243 H         1 COA500      0.0000 
     65 H          15.3212  -18.0946   45.5159 H         1 COA500      0.0000 
     66 H          16.2036  -19.4340   44.7626 H         1 COA500      0.0000 
     67 H          18.3865  -19.5345   45.0585 H         1 COA500      0.0000 
     68 H          20.4340  -19.1434   46.1396 H         1 COA500      0.0000 
     69 H          19.6178  -18.3332   47.4877 H         1 COA500      0.0000 
     70 H          19.2804  -16.3010   45.9712 H         1 COA500      0.0000 
     71 H          20.2974  -17.1082   44.7654 H         1 COA500      0.0000 
     72 H          20.2590  -22.7200   46.3963 H         1 COA500      0.0000 
     73 H          19.1008  -23.5321   45.6313 H         1 COA500      0.0000 
     74 H          18.9571  -21.9461   45.8556 H         1 COA500      0.0000 
     75 H          19.9267  -21.8448   48.7046 H         1 COA500      0.0000 
     76 H          18.6345  -21.0186   48.2210 H         1 COA500      0.0000 
     77 H          18.5242  -22.0249   49.4706 H         1 COA500      0.0000 
     78 H          21.2327  -27.9499   55.4076 H         1 COA500      0.0000 
     79 H          15.4565  -23.5321   48.4720 H         1 COA500      0.0000 
@<TRIPOS>BOND
     1    2    1 ar   
     2    6    1 ar   
     3    3    2 ar   
     4   49    2 1    
     5    4    3 ar   
     6    5    4 ar   
     7   10    4 1    
     8    6    5 ar   
     9    8    5 1    
    10    7    6 1    
    11   50    7 1    
    12   51    7 1    
    13    9    8 2    
    14   10    9 1    
    15   52    9 1    
    16   11   10 1    
    17   12   11 1    
    18   21   11 1    
    19   53   11 1    
    20   13   12 1    
    21   14   12 1    
    22   54   12 1    
    23   78   13 1    
    24   15   14 1    
    25   20   14 1    
    26   55   14 1    
    27   16   15 1    
    28   17   16 ar   
    29   18   16 ar   
    30   19   16 ar   
    31   21   20 1    
    32   22   20 1    
    33   56   20 1    
    34   23   22 1    
    35   57   22 1    
    36   58   22 1    
    37   24   23 1    
    38   25   24 ar   
    39   26   24 ar   
    40   27   24 1    
    41   28   27 1    
    42   29   28 ar   
    43   30   28 ar   
    44   31   28 1    
    45   33   31 1    
    46   33   32 1    
    47   34   32 1    
    48   35   32 1    
    49   36   32 1    
    50   59   33 1    
    51   60   33 1    
    52   72   34 1    
    53   73   34 1    
    54   74   34 1    
    55   75   35 1    
    56   76   35 1    
    57   77   35 1    
    58   37   36 1    
    59   38   36 1    
    60   61   36 1    
    61   79   37 1    
    62   39   38 2    
    63   40   38 am   
    64   41   40 1    
    65   62   40 1    
    66   42   41 1    
    67   63   41 1    
    68   64   41 1    
    69   43   42 1    
    70   65   42 1    
    71   66   42 1    
    72   44   43 2    
    73   45   43 am   
    74   46   45 1    
    75   67   45 1    
    76   47   46 1    
    77   68   46 1    
    78   69   46 1    
    79   48   47 1    
    80   70   47 1    
    81   71   47 1    
@<TRIPOS>SUBSTRUCTURE
     1 COA500      1 GROUP   
@<TRIPOS>SET

