#    Name: 3MAU_4_CAVITY_N1_6.mol2
#    Modification time : Tue Mar 11 13:13:33 2014

@<TRIPOS>MOLECULE
3MAU_4_CAVITY_N1_6.mol2
   91     0     6     0     0
SMALL
NO_CHARGES


@<TRIPOS>ATOM
      1 O          23.2642   27.2611   23.1320 O.2       2 ALA2        0.0000 
      2 OG         22.3445   28.2591   23.7709 O.2       1 SER1        0.0000 
      3 O          21.4249   29.2571   24.4099 O.2       2 ALA2        0.0000 
      4 CA         22.0807   26.5291   22.5719 C.3       5 GLY6        0.0000 
      5 OG         21.1611   27.5271   23.2109 O.2       1 SER1        0.0000 
      6 N          19.9776   26.7951   22.6508 N.2       2 ALA2        0.0000 
      7 N          17.5229   34.0265   18.3868 N.2       2 ALA2        0.0000 
      8 CZ         21.0124   35.3749   21.3032 C.ar      4 PHE5        0.0000 
      9 OG         20.0927   36.3729   21.9421 O.2       1 SER1        0.0000 
     10 OG         19.1731   37.3709   22.5811 O.2       1 SER1        0.0000 
     11 CA         24.4272   29.6530   17.5484 C.3       5 GLY6        0.0000 
     12 CA         23.5075   30.6510   18.1874 C.3       5 GLY6        0.0000 
     13 O          17.9896   36.6390   22.0210 O.2       2 ALA2        0.0000 
     14 O          17.0700   37.6370   22.6599 O.2       2 ALA2        0.0000 
     15 CA         23.2437   28.9210   16.9884 C.3       5 GLY6        0.0000 
     16 CA         22.3241   29.9190   17.6273 C.3       5 GLY6        0.0000 
     17 OG         17.7258   34.9090   20.8220 O.2       1 SER1        0.0000 
     18 O          16.8062   35.9070   21.4609 O.2       2 ALA2        0.0000 
     19 CA         20.2210   30.1850   17.7062 C.3       5 GLY6        0.0000 
     20 CZ         19.3013   31.1830   18.3451 C.ar      4 PHE5        0.0000 
     21 CZ         18.3817   32.1810   18.9841 C.ar      4 PHE5        0.0000 
     22 CZ         17.4620   33.1790   19.6230 C.ar      4 PHE5        0.0000 
     23 N          16.5424   34.1770   20.2619 N.2       2 ALA2        0.0000 
     24 OG         17.1982   31.4491   18.4240 O.2       1 SER1        0.0000 
     25 O          16.2786   32.4471   19.0629 O.2       2 ALA2        0.0000 
     26 CA         25.5498   29.5375   19.3446 C.3       5 GLY6        0.0000 
     27 CZ         20.9515   34.5275   22.5393 C.ar      4 PHE5        0.0000 
     28 CZ         20.0319   35.5255   23.1783 C.ar      4 PHE5        0.0000 
     29 CA         19.1122   36.5235   23.8172 C.3       5 GLY6        0.0000 
     30 NZ         25.2860   27.8075   18.1456 N.2       3 LYS4        0.0000 
     31 CA         24.3663   28.8055   18.7846 C.3       5 GLY6        0.0000 
     32 CA         23.4467   29.8035   19.4235 C.3       5 GLY6        0.0000 
     33 N          22.5270   30.8015   20.0625 N.2       2 ALA2        0.0000 
     34 CZ         20.6877   32.7975   21.3403 C.ar      4 PHE5        0.0000 
     35 OG         19.7681   33.7955   21.9793 O.2       1 SER1        0.0000 
     36 OG         18.8484   34.7935   22.6182 O.2       1 SER1        0.0000 
     37 O          17.9288   35.7915   23.2572 O.2       2 ALA2        0.0000 
     38 O          17.0092   36.7895   23.8961 O.2       2 ALA2        0.0000 
     39 CA         23.1829   28.0735   18.2245 C.3       5 GLY6        0.0000 
     40 CA         22.2632   29.0715   18.8635 C.3       5 GLY6        0.0000 
     41 CZ         21.3436   30.0695   19.5024 C.ar      4 PHE5        0.0000 
     42 CZ         20.4239   31.0675   20.1413 C.ar      4 PHE5        0.0000 
     43 CZ         19.5043   32.0655   20.7803 C.ar      4 PHE5        0.0000 
     44 CZ         18.5846   33.0635   21.4192 C.ar      4 PHE5        0.0000 
     45 N          17.6650   34.0615   22.0582 N.2       2 ALA2        0.0000 
     46 CA         21.9994   27.3415   17.6645 C.3       5 GLY6        0.0000 
     47 CA         21.0798   28.3395   18.3034 C.3       5 GLY6        0.0000 
     48 CA         20.1601   29.3375   18.9423 C.3       5 GLY6        0.0000 
     49 OG         19.2405   30.3355   19.5813 O.2       1 SER1        0.0000 
     50 CZ         18.3208   31.3335   20.2202 C.ar      4 PHE5        0.0000 
     51 N          17.4012   32.3316   20.8592 N.2       2 ALA2        0.0000 
     52 OG         18.9767   28.6056   18.3823 O.2       1 SER1        0.0000 
     53 OG         17.1374   30.6016   19.6602 O.2       1 SER1        0.0000 
     54 CA         25.4889   28.6900   20.5808 C.3       5 GLY6        0.0000 
     55 CZ         19.9711   34.6780   24.4144 C.ar      4 PHE5        0.0000 
     56 CA         24.3055   27.9580   20.0207 C.3       5 GLY6        0.0000 
     57 CA         23.3858   28.9560   20.6597 C.3       5 GLY6        0.0000 
     58 N          22.4662   29.9540   21.2986 N.2       2 ALA2        0.0000 
     59 N          21.5465   30.9520   21.9376 N.2       2 ALA2        0.0000 
     60 CA         20.6269   31.9500   22.5765 C.3       5 GLY6        0.0000 
     61 CA         19.7073   32.9480   23.2154 C.3       5 GLY6        0.0000 
     62 CA         23.1220   27.2260   19.4607 C.3       5 GLY6        0.0000 
     63 NZ         22.2024   28.2240   20.0996 N.2       3 LYS4        0.0000 
     64 DU         21.2827   29.2220   20.7386 H         6 CUB7        0.0000 
     65 DU         20.3631   30.2200   21.3775 H         6 CUB7        0.0000 
     66 CA         19.4434   31.2180   22.0164 C.3       5 GLY6        0.0000 
     67 CA         18.5238   32.2160   22.6554 C.3       5 GLY6        0.0000 
     68 CA         17.6042   33.2141   23.2943 C.3       5 GLY6        0.0000 
     69 NZ         21.0189   27.4921   19.5396 N.2       3 LYS4        0.0000 
     70 OG         19.1796   29.4881   20.8174 O.2       1 SER1        0.0000 
     71 OG         18.2600   30.4861   21.4564 O.2       1 SER1        0.0000 
     72 N          17.3404   31.4841   22.0953 N.2       2 ALA2        0.0000 
     73 NZ         19.8355   26.7601   18.9795 N.2       3 LYS4        0.0000 
     74 OG         18.9158   27.7581   19.6184 O.2       1 SER1        0.0000 
     75 OG         17.9962   28.7561   20.2574 O.2       1 SER1        0.0000 
     76 OG         17.0766   29.7541   20.8963 O.2       1 SER1        0.0000 
     77 O          24.5084   28.8405   22.4559 O.2       2 ALA2        0.0000 
     78 OG         22.6692   30.8365   23.7338 O.2       1 SER1        0.0000 
     79 CA         24.2446   27.1105   21.2569 C.3       5 GLY6        0.0000 
     80 CA         23.3250   28.1085   21.8958 C.3       5 GLY6        0.0000 
     81 N          22.4054   29.1065   22.5348 N.2       2 ALA2        0.0000 
     82 N          21.4857   30.1045   23.1737 N.2       2 ALA2        0.0000 
     83 CA         20.5661   31.1025   23.8127 C.3       5 GLY6        0.0000 
     84 NZ         23.0612   26.3786   20.6968 N.2       3 LYS4        0.0000 
     85 NZ         22.1415   27.3766   21.3358 N.2       3 LYS4        0.0000 
     86 NZ         21.2219   28.3746   21.9747 N.2       3 LYS4        0.0000 
     87 OG         20.3023   29.3726   22.6137 O.2       1 SER1        0.0000 
     88 CA         19.3826   30.3706   23.2526 C.3       5 GLY6        0.0000 
     89 NZ         20.0385   27.6426   21.4147 N.2       3 LYS4        0.0000 
     90 N          18.8550   26.9106   20.8546 N.2       2 ALA2        0.0000 
     91 OG         17.9354   27.9086   21.4935 O.2       1 SER1        0.0000 
@<TRIPOS>BOND
@<TRIPOS>SUBSTRUCTURE
     1 SER1        2 GROUP   
     2 ALA2        1 GROUP   
     3 LYS4       30 GROUP   
     4 PHE5        8 GROUP   
     5 GLY6        4 GROUP   
     6 CUB7       64 GROUP   
@<TRIPOS>SET

