#    Name: 3mau_EXT_4_INTS_M
#    Modification time : Mon Mar 24 22:56:07 2014

@<TRIPOS>MOLECULE
3mau_EXT_4_INTS_M
   48     0     9     0     0
SMALL
NO_CHARGES


@<TRIPOS>ATOM
      1 N          19.8430   28.3780   25.2465 N.am      1 SEC2        0.0000 
      2 N          20.3470   28.3960   23.8120 N.am      7 SEL2        0.0000 
      3 N          19.3390   28.3600   26.6810 N.am      4 SEP2        0.0000 
      4 N          19.1060   28.3400   23.9985 N.am      1 SEC2        0.0000 
      5 N          17.8650   28.2840   24.1850 N.am      4 SEP2        0.0000 
      6 N          23.4615   26.2790   24.7925 N.am      1 SEC2        0.0000 
      7 N          22.3040   27.0520   24.9040 N.am      7 SEL2        0.0000 
      8 N          24.6190   25.5060   24.6810 N.am      4 SEP2        0.0000 
      9 N          23.4335   27.5925   25.4635 N.am      1 SEC2        0.0000 
     10 N          24.5630   28.1330   26.0230 N.am      4 SEP2        0.0000 
     11 N          21.6005   24.8490   23.4390 N.am      1 SEC2        0.0000 
     12 N          20.5840   25.8810   23.3610 N.am      7 SEL2        0.0000 
     13 N          22.6170   23.8170   23.5170 N.am      4 SEP2        0.0000 
     14 CA         23.5785   26.2810   22.5505 C.3       3 GLC5        0.0000 
     15 CA         23.3730   28.3050   22.3200 C.3       9 GLL5        0.0000 
     16 CA         23.7840   24.2570   22.7810 C.3       6 GLP5        0.0000 
     17 CA         24.2745   30.1180   21.5535 C.3       3 GLC5        0.0000 
     18 CA         25.1760   31.9310   20.7870 C.3       6 GLP5        0.0000 
     19 N          26.8485   28.3850   18.6400 N.am      1 SEC2        0.0000 
     20 N          25.6540   28.4940   19.3600 N.am      7 SEL2        0.0000 
     21 N          28.0430   28.2760   17.9200 N.am      4 SEP2        0.0000 
     22 CA         26.8660   27.6945   21.1545 C.3       3 GLC5        0.0000 
     23 CA         25.1590   28.2820   20.5700 C.3       9 GLL5        0.0000 
     24 CA         28.5730   27.1070   21.7390 C.3       6 GLP5        0.0000 
     25 CA         25.7655   29.8545   20.8710 C.3       3 GLC5        0.0000 
     26 CA         26.3720   31.4270   21.1720 C.3       6 GLP5        0.0000 
     27 CA         26.5450   30.1815   18.6960 C.3       3 GLC5        0.0000 
     28 CA         25.4900   29.2630   17.0070 C.3       9 GLL5        0.0000 
     29 CA         27.6000   31.1000   20.3850 C.3       6 GLP5        0.0000 
     30 CA         26.2110   30.5365   15.3325 C.3       3 GLC5        0.0000 
     31 CA         26.9320   31.8100   13.6580 C.3       6 GLP5        0.0000 
     32 NZ         15.1995   28.0435   21.5945 N.4       2 LYC4        0.0000 
     33 NZ         15.4330   29.8970   21.3740 N.4       8 LYL4        0.0000 
     34 NZ         14.9660   26.1900   21.8150 N.4       5 LYP4        0.0000 
     35 CA         20.1785   32.6765   19.3180 C.3       3 GLC5        0.0000 
     36 CA         19.9980   31.2210   20.2420 C.3       9 GLL5        0.0000 
     37 CA         20.3590   34.1320   18.3940 C.3       6 GLP5        0.0000 
     38 CA         24.3060   30.3968   20.5933 C.3       3 GLC5        0.0000 
     39 CA         23.0320   29.1350   19.9040 C.3       9 GLL5        0.0000 
     40 CA         24.1867   26.8476   19.4334 C.3       3 GLC5        0.0000 
     41 CA         23.8400   28.5900   20.8950 C.3       9 GLL5        0.0000 
     42 CA         24.0760   25.1230   18.3820 C.3       6 GLP5        0.0000 
     43 CA         24.7052   30.5605   19.6525 C.3       3 GLC5        0.0000 
     44 CA         24.8960   29.0230   18.3910 C.3       9 GLL5        0.0000 
     45 CA         24.1553   27.1565   18.4500 C.3       3 GLC5        0.0000 
     46 CA         23.5730   29.3570   18.6450 C.3       9 GLL5        0.0000 
     47 CA         24.0950   31.1650   17.6540 C.3       3 GLC5        0.0000 
     48 CA         23.8070   33.0800   17.1360 C.3       6 GLP5        0.0000 
@<TRIPOS>BOND
@<TRIPOS>SUBSTRUCTURE
     1 SEC2        1 GROUP        1 X    SEC  0     ROOT SEC X 2
     2 LYC4       32 GROUP        1 X    LYC  0     **** LYC X 4
     3 GLC5       14 GROUP        1 X    GLC  0     **** GLC X 6
     4 SEP2        3 GROUP        1 Y    SEP  0     ROOT SEP Y 9
     5 LYP4       34 GROUP        1 Y    LYP  0     **** LYP Y 11
     6 GLP5       16 GROUP        1 Y    GLP  0     **** GLP Y 13
     7 SEL2        2 GROUP        1 Z    SEL  0     ROOT SEL Z 16
     8 LYL4       33 GROUP        1 Z    LYL  0     **** LYL Z 18
     9 GLL5       15 GROUP        1 Z    GLL  0     **** GLL Z 20
@<TRIPOS>SET

