#    Name: 3mau_EXT_4_ligand
#    Modification time : Mon Mar 24 22:56:07 2014

@<TRIPOS>MOLECULE
3mau_EXT_4_ligand
   35    35     1     0     0
SMALL
NO_CHARGES


@<TRIPOS>ATOM
      1 CAA        23.0320   29.1350   19.9040 C.ar      1 EXT514      0.0000 
      2 CAB        21.7090   29.4790   20.1550 C.2       1 EXT514      0.0000 
      3 PAC        21.4320   27.2010   23.7040 P.3       1 EXT514      0.0000 
      4 OAD        20.3470   28.3960   23.8120 O.co2     1 EXT514      0.0000 
      5 OAE        22.3040   27.0520   24.9040 O.co2     1 EXT514      0.0000 
      6 OAF        20.5840   25.8810   23.3610 O.co2     1 EXT514      0.0000 
      7 OAG        22.2140   27.4850   22.3240 O.3       1 EXT514      0.0000 
      8 CAH        23.3730   28.3050   22.3200 C.3       1 EXT514      0.0000 
      9 CAI        23.8400   28.5900   20.8950 C.ar      1 EXT514      0.0000 
     10 NAJ        25.6540   28.4940   19.3600 N.ar      1 EXT514      0.0000 
     11 CAK        25.1590   28.2820   20.5700 C.ar      1 EXT514      0.0000 
     12 CAL        24.8960   29.0230   18.3910 C.ar      1 EXT514      0.0000 
     13 CAM        25.4900   29.2630   17.0070 C.3       1 EXT514      0.0000 
     14 CAN        23.5730   29.3570   18.6450 C.ar      1 EXT514      0.0000 
     15 OAO        22.7990   29.8940   17.6710 O.3       1 EXT514      0.0000 
     16 OAP        15.4330   29.8970   21.3740 O.co2     1 EXT514      0.0000 
     17 PAQ        16.5370   30.8550   20.6050 P.3       1 EXT514      0.0000 
     18 OAR        16.4080   30.8370   19.1180 O.co2     1 EXT514      0.0000 
     19 OAS        16.3360   32.3780   21.1730 O.co2     1 EXT514      0.0000 
     20 OAT        17.9640   30.3130   21.1680 O.3       1 EXT514      0.0000 
     21 CAU        19.0500   30.0180   20.2810 C.3       1 EXT514      0.0000 
     22 CAV        19.9980   31.2210   20.2420 C.3       1 EXT514      0.0000 
     23 NAW        21.3710   30.7510   20.0030 N.2       1 EXT514      0.0000 
     24 H          21.0467   28.7563   20.4440 H         1 EXT514      0.0000 
     25 H          24.2123   27.8302   22.8556 H         1 EXT514      0.0000 
     26 H          23.1891   29.2762   22.8095 H         1 EXT514      0.0000 
     27 H          25.7586   27.8682   21.3316 H         1 EXT514      0.0000 
     28 H          18.7035   29.8327   19.2628 H         1 EXT514      0.0000 
     29 H          19.6234   29.1517   20.6155 H         1 EXT514      0.0000 
     30 H          19.9277   31.7446   21.1938 H         1 EXT514      0.0000 
     31 H          19.6728   31.8888   19.4462 H         1 EXT514      0.0000 
     32 H          26.2657   29.8932   17.0400 H         1 EXT514      0.0000 
     33 H          25.8189   28.4148   16.5918 H         1 EXT514      0.0000 
     34 H          24.8193   29.6563   16.3781 H         1 EXT514      0.0000 
     35 H          22.4391   30.7404   18.0637 H         1 EXT514      0.0000 
@<TRIPOS>BOND
     1    2    1 1    
     2    9    1 ar   
     3   14    1 ar   
     4   23    2 2    
     5   24    2 1    
     6    4    3 ar   
     7    5    3 ar   
     8    6    3 ar   
     9    7    3 1    
    10    8    7 1    
    11    9    8 1    
    12   25    8 1    
    13   26    8 1    
    14   11    9 ar   
    15   11   10 ar   
    16   12   10 ar   
    17   27   11 1    
    18   13   12 1    
    19   14   12 ar   
    20   32   13 1    
    21   33   13 1    
    22   34   13 1    
    23   15   14 1    
    24   35   15 1    
    25   17   16 ar   
    26   18   17 ar   
    27   19   17 ar   
    28   20   17 1    
    29   21   20 1    
    30   22   21 1    
    31   28   21 1    
    32   29   21 1    
    33   23   22 1    
    34   30   22 1    
    35   31   22 1    
@<TRIPOS>SUBSTRUCTURE
     1 EXT514      1 GROUP   
@<TRIPOS>SET

