#    Name: 4i54_1C1_1_INTS_M
#    Modification time : Tue Mar 25 02:24:13 2014

@<TRIPOS>MOLECULE
4i54_1C1_1_INTS_M
   58     0     6     0     0
SMALL
NO_CHARGES


@<TRIPOS>ATOM
      1 O           0.4900  -14.1520   -9.5990 O.2       1 ALC1        0.0000 
      2 O           1.2740  -15.2430  -10.4490 O.2       5 ALL1        0.0000 
      3 O          -0.2940  -13.0610   -8.7490 O.2       3 ALP1        0.0000 
      4 O          -0.2595  -13.4260  -10.1730 O.2       1 ALC1        0.0000 
      5 O          -0.2250  -13.7910  -11.5970 O.2       5 ALL1        0.0000 
      6 CA          0.0700  -12.1770  -12.1455 C.3       2 GLC5        0.0000 
      7 CA         -1.0110  -13.5350  -12.8070 C.3       6 GLL5        0.0000 
      8 CA          1.1510  -10.8190  -11.4840 C.3       4 GLP5        0.0000 
      9 CA         -5.2625  -14.9270  -11.9300 C.3       2 GLC5        0.0000 
     10 CA         -3.0270  -14.8770  -12.1630 C.3       6 GLL5        0.0000 
     11 CA         -7.4980  -14.9770  -11.6970 C.3       4 GLP5        0.0000 
     12 O          -5.0260  -13.8505  -11.3225 O.2       1 ALC1        0.0000 
     13 O          -3.8440  -14.7360  -10.9620 O.2       5 ALL1        0.0000 
     14 O          -6.2080  -12.9650  -11.6830 O.2       3 ALP1        0.0000 
     15 O          -2.5440  -15.6600   -6.8700 O.2       1 ALC1        0.0000 
     16 O          -3.9410  -15.5040   -7.2040 O.2       5 ALL1        0.0000 
     17 O          -1.1470  -15.8160   -6.5360 O.2       3 ALP1        0.0000 
     18 CA         -5.3085  -16.8190   -6.5305 C.3       2 GLC5        0.0000 
     19 CA         -5.8440  -14.8140   -5.9380 C.3       6 GLL5        0.0000 
     20 CA         -4.7730  -18.8240   -7.1230 C.3       4 GLP5        0.0000 
     21 CA         -9.3920  -13.9810   -4.5630 C.3       2 GLC5        0.0000 
     22 CA         -7.8580  -14.4480   -4.6500 C.3       6 GLL5        0.0000 
     23 CA        -10.9260  -13.5140   -4.4760 C.3       4 GLP5        0.0000 
     24 CA         -8.6910  -15.0000   -2.7605 C.3       2 GLC5        0.0000 
     25 CA         -9.5240  -15.5520   -0.8710 C.3       4 GLP5        0.0000 
     26 CA         -5.6090  -12.2770   -1.5310 C.3       2 GLC5        0.0000 
     27 CA         -6.5530  -14.2210   -2.1190 C.3       6 GLL5        0.0000 
     28 CA         -4.6650  -10.3330   -0.9430 C.3       4 GLP5        0.0000 
     29 CA         -8.0385  -14.8865   -1.4950 C.3       2 GLC5        0.0000 
     30 CA         -6.8715  -13.4045   -0.0830 C.3       2 GLC5        0.0000 
     31 CA         -7.1900  -12.5880    1.9530 C.3       4 GLP5        0.0000 
     32 CA         -5.1655  -14.5945   -0.9525 C.3       2 GLC5        0.0000 
     33 CA         -3.7780  -14.9680    0.2140 C.3       4 GLP5        0.0000 
     34 CA         -6.0125  -14.6612  -13.2327 C.3       2 GLC5        0.0000 
     35 CA         -4.0830  -14.2770  -14.1700 C.3       6 GLL5        0.0000 
     36 CA         -6.5687  -15.5648  -13.3760 C.3       2 GLC5        0.0000 
     37 CA         -5.5940  -16.6800  -14.5970 C.3       6 GLL5        0.0000 
     38 CA         -6.2533  -17.4800  -12.4578 C.3       2 GLC5        0.0000 
     39 CA         -7.3340  -18.3340  -10.8900 C.3       4 GLP5        0.0000 
     40 CA         -5.9290  -15.4565  -12.5295 C.3       2 GLC5        0.0000 
     41 CA         -4.7510  -16.5720  -13.4540 C.3       6 GLL5        0.0000 
     42 CA         -3.8982  -16.7807   -5.7893 C.3       2 GLC5        0.0000 
     43 CA         -4.5280  -14.9470   -6.0090 C.3       6 GLL5        0.0000 
     44 CA         -3.6590  -18.6540   -6.1080 C.3       4 GLP5        0.0000 
     45 CA         -7.2765  -12.6043   -4.5775 C.3       2 GLC5        0.0000 
     46 CA         -7.3550  -10.6890   -4.4480 C.3       4 GLP5        0.0000 
     47 CA         -7.4810  -16.5938   -4.2185 C.3       2 GLC5        0.0000 
     48 CA         -7.7640  -18.6680   -3.7300 C.3       4 GLP5        0.0000 
     49 CA         -7.9623  -15.4336   -6.3902 C.3       2 GLC5        0.0000 
     50 CA         -8.9000  -16.2920   -7.7800 C.3       4 GLP5        0.0000 
     51 CA         -6.7403  -12.5297   -3.6508 C.3       2 GLC5        0.0000 
     52 CA         -5.6980  -14.5200   -3.5880 C.3       6 GLL5        0.0000 
     53 CA         -2.4295  -14.9352   -3.4367 C.3       2 GLC5        0.0000 
     54 CA         -4.2970  -14.6550   -3.6810 C.3       6 GLL5        0.0000 
     55 CA         -0.8370  -15.1090   -2.5670 C.3       4 GLP5        0.0000 
     56 CA         -4.2837  -13.2341   -6.4824 C.3       2 GLC5        0.0000 
     57 CA         -3.7470  -14.8680   -4.9320 C.3       6 GLL5        0.0000 
     58 CA         -4.1010  -11.5940   -7.5120 C.3       4 GLP5        0.0000 
@<TRIPOS>BOND
@<TRIPOS>SUBSTRUCTURE
     1 ALC1        1 GROUP        1 X    ALC  0     ROOT ALC X 1
     2 GLC5        6 GROUP        1 X    GLC  0     **** GLC X 6
     3 ALP1        3 GROUP        1 Y    ALP  0     ROOT ALP Y 8
     4 GLP5        8 GROUP        1 Y    GLP  0     **** GLP Y 13
     5 ALL1        2 GROUP        1 Z    ALL  0     ROOT ALL Z 15
     6 GLL5        7 GROUP        1 Z    GLL  0     **** GLL Z 20
@<TRIPOS>SET

