#    Name: 4i54_1C1_1_ligand
#    Modification time : Tue Mar 25 02:24:13 2014

@<TRIPOS>MOLECULE
4i54_1C1_1_ligand
   48    50     1     0     0
SMALL
NO_CHARGES


@<TRIPOS>ATOM
      1 N01         1.2740  -15.2430  -10.4490 N.pl3     1 1C1501      0.0000 
      2 C02         0.6000  -15.0000  -11.5220 C.cat     1 1C1501      0.0000 
      3 N03        -0.2250  -13.7910  -11.5970 N.pl3     1 1C1501      0.0000 
      4 C04        -1.0110  -13.5350  -12.8070 C.3       1 1C1501      0.0000 
      5 C05        -2.5080  -13.5520  -12.5310 C.3       1 1C1501      0.0000 
      6 C06        -3.2220  -13.0970  -13.7630 C.3       1 1C1501      0.0000 
      7 C07        -4.0830  -14.2770  -14.1700 C.ar      1 1C1501      0.0000 
      8 C08        -4.9710  -14.4140  -15.3670 C.ar      1 1C1501      0.0000 
      9 C09        -5.6850  -15.6250  -15.5130 C.ar      1 1C1501      0.0000 
     10 C10        -5.5940  -16.6800  -14.5970 C.ar      1 1C1501      0.0000 
     11 C11        -4.7510  -16.5720  -13.4540 C.ar      1 1C1501      0.0000 
     12 C12        -3.9690  -15.3000  -13.2700 C.ar      1 1C1501      0.0000 
     13 C13        -3.0270  -14.8770  -12.1630 C.3       1 1C1501      0.0000 
     14 N14        -3.8440  -14.7360  -10.9620 N.am      1 1C1501      0.0000 
     15 C15        -3.4230  -15.3060   -9.6900 C.2       1 1C1501      0.0000 
     16 O16        -2.2400  -15.5290   -9.5030 O.2       1 1C1501      0.0000 
     17 C17        -4.4040  -15.2100   -8.5580 C.2       1 1C1501      0.0000 
     18 O18        -5.4940  -14.6720   -8.7980 O.2       1 1C1501      0.0000 
     19 N19        -3.9410  -15.5040   -7.2040 N.am      1 1C1501      0.0000 
     20 C20        -4.5280  -14.9470   -6.0090 C.ar      1 1C1501      0.0000 
     21 C21        -5.8440  -14.8140   -5.9380 C.ar      1 1C1501      0.0000 
     22 C22        -6.5380  -14.5910   -4.7640 C.ar      1 1C1501      0.0000 
     23 F23        -7.8580  -14.4480   -4.6500 F         1 1C1501      0.0000 
     24 C24        -5.6980  -14.5200   -3.5880 C.ar      1 1C1501      0.0000 
     25 CL1        -6.5530  -14.2210   -2.1190 Cl        1 1C1501      0.0000 
     26 C26        -4.2970  -14.6550   -3.6810 C.ar      1 1C1501      0.0000 
     27 C27        -3.7470  -14.8680   -4.9320 C.ar      1 1C1501      0.0000 
     28 N28         0.6480  -15.8380  -12.5580 N.pl3     1 1C1501      0.0000 
     29 H           1.2353  -14.5421   -9.7368 H         1 1C1501      0.0000 
     30 H           1.7725  -16.1097  -10.4293 H         1 1C1501      0.0000 
     31 H          -0.2511  -13.1498  -10.8332 H         1 1C1501      0.0000 
     32 H          -0.7934  -14.2930  -13.5765 H         1 1C1501      0.0000 
     33 H          -0.7505  -12.5544  -13.2366 H         1 1C1501      0.0000 
     34 H          -2.7195  -12.8374  -11.7417 H         1 1C1501      0.0000 
     35 H          -2.5216  -12.8803  -14.5413 H         1 1C1501      0.0000 
     36 H          -3.8468  -12.2576  -13.5433 H         1 1C1501      0.0000 
     37 H          -5.0294  -13.6639  -16.0087 H         1 1C1501      0.0000 
     38 H          -6.3080  -15.7326  -16.3446 H         1 1C1501      0.0000 
     39 H          -6.1327  -17.5391  -14.7402 H         1 1C1501      0.0000 
     40 H          -4.6572  -17.2910  -12.7802 H         1 1C1501      0.0000 
     41 H          -2.2718  -15.5777  -12.0497 H         1 1C1501      0.0000 
     42 H          -4.7228  -14.2304  -11.0159 H         1 1C1501      0.0000 
     43 H          -3.1389  -16.1553   -7.1024 H         1 1C1501      0.0000 
     44 H          -6.4268  -14.8796   -6.8321 H         1 1C1501      0.0000 
     45 H          -3.7226  -14.5958   -2.8497 H         1 1C1501      0.0000 
     46 H          -2.7118  -14.9645   -5.0095 H         1 1C1501      0.0000 
     47 H           1.2009  -16.6617  -12.4324 H         1 1C1501      0.0000 
     48 H           0.1268  -15.5674  -13.3674 H         1 1C1501      0.0000 
@<TRIPOS>BOND
     1    2    1 ar   
     2   29    1 1    
     3   30    1 1    
     4    3    2 ar   
     5   28    2 ar   
     6    4    3 1    
     7   31    3 1    
     8    5    4 1    
     9   32    4 1    
    10   33    4 1    
    11    6    5 1    
    12   13    5 1    
    13   34    5 1    
    14    7    6 1    
    15   35    6 1    
    16   36    6 1    
    17    8    7 ar   
    18   12    7 ar   
    19    9    8 ar   
    20   37    8 1    
    21   10    9 ar   
    22   38    9 1    
    23   11   10 ar   
    24   39   10 1    
    25   12   11 ar   
    26   40   11 1    
    27   13   12 1    
    28   14   13 1    
    29   41   13 1    
    30   15   14 am   
    31   42   14 1    
    32   16   15 2    
    33   17   15 1    
    34   18   17 2    
    35   19   17 am   
    36   20   19 1    
    37   43   19 1    
    38   21   20 ar   
    39   27   20 ar   
    40   22   21 ar   
    41   44   21 1    
    42   23   22 1    
    43   24   22 ar   
    44   25   24 1    
    45   26   24 ar   
    46   27   26 ar   
    47   45   26 1    
    48   46   27 1    
    49   47   28 1    
    50   48   28 1    
@<TRIPOS>SUBSTRUCTURE
     1 1C1501      1 GROUP   
@<TRIPOS>SET

