#    Name: 3gol_XND_2_INTS_M
#    Modification time : Tue Mar 25 12:48:20 2014

@<TRIPOS>MOLECULE
3gol_XND_2_INTS_M
   52     0     6     0     0
SMALL
NO_CHARGES


@<TRIPOS>ATOM
      1 CA         29.4525   49.9850   62.0335 C.3       2 GLC5        0.0000 
      2 CA         28.7570   50.2270   60.2540 C.3       6 GLL5        0.0000 
      3 CA         30.1480   49.7430   63.8130 C.3       4 GLP5        0.0000 
      4 CA         27.7205   48.4065   59.7205 C.3       2 GLC5        0.0000 
      5 CA         26.6840   46.5860   59.1870 C.3       4 GLP5        0.0000 
      6 CA         29.3690   48.3310   59.8980 C.3       2 GLC5        0.0000 
      7 CA         29.9810   46.4350   59.5420 C.3       4 GLP5        0.0000 
      8 CA         28.9565   56.6925   59.3200 C.3       2 GLC5        0.0000 
      9 CA         28.6910   55.1980   58.6260 C.3       6 GLL5        0.0000 
     10 CA         29.2220   58.1870   60.0140 C.3       4 GLP5        0.0000 
     11 CA         30.3975   55.3815   58.3645 C.3       2 GLC5        0.0000 
     12 CA         32.1040   55.5650   58.1030 C.3       4 GLP5        0.0000 
     13 CA         30.5815   54.9175   56.9320 C.3       2 GLC5        0.0000 
     14 CA         29.0590   54.2700   55.7610 C.3       6 GLL5        0.0000 
     15 N          32.0455   55.6925   54.9300 N.am      1 SEC2        0.0000 
     16 N          31.6230   54.2860   54.5610 N.am      5 SEL2        0.0000 
     17 N          32.4680   57.0990   55.2990 N.am      3 SEP2        0.0000 
     18 N          29.8875   58.1275   54.6835 N.am      1 SEC2        0.0000 
     19 N          28.8140   56.8210   54.8070 N.am      5 SEL2        0.0000 
     20 N          30.9610   59.4340   54.5600 N.am      3 SEP2        0.0000 
     21 CA         25.6340   53.7740   58.9820 C.3       2 GLC5        0.0000 
     22 CA         25.8290   54.5270   57.0720 C.3       6 GLL5        0.0000 
     23 CA         25.4390   53.0210   60.8920 C.3       4 GLP5        0.0000 
     24 CA         25.0685   52.6330   58.6435 C.3       2 GLC5        0.0000 
     25 CA         24.6970   53.7720   57.3170 C.3       6 GLL5        0.0000 
     26 CA         25.4400   51.4940   59.9700 C.3       4 GLP5        0.0000 
     27 CA         24.2010   51.8305   58.0465 C.3       2 GLC5        0.0000 
     28 CA         24.3470   52.7340   56.4540 C.3       6 GLL5        0.0000 
     29 CA         24.0550   50.9270   59.6390 C.3       4 GLP5        0.0000 
     30 N          24.9765   50.0440   53.9145 N.am      1 SEC2        0.0000 
     31 N          24.7580   51.4520   54.5570 N.am      5 SEL2        0.0000 
     32 N          25.1950   48.6360   53.2720 N.am      3 SEP2        0.0000 
     33 CA         32.4785   50.8660   53.8825 C.3       2 GLC5        0.0000 
     34 CA         30.8090   50.9850   53.2010 C.3       6 GLL5        0.0000 
     35 CA         34.1480   50.7470   54.5640 C.3       4 GLP5        0.0000 
     36 CA         30.5320   49.1350   53.6275 C.3       2 GLC5        0.0000 
     37 CA         30.2550   47.2850   54.0540 C.3       4 GLP5        0.0000 
     38 CA         32.5695   51.5655   50.2025 C.3       2 GLC5        0.0000 
     39 CA         30.6860   51.6100   50.7560 C.3       6 GLL5        0.0000 
     40 CA         34.4530   51.5210   49.6490 C.3       4 GLP5        0.0000 
     41 CA         31.7430   49.8775   50.4995 C.3       2 GLC5        0.0000 
     42 CA         32.8000   48.1450   50.2430 C.3       4 GLP5        0.0000 
     43 CA         27.1170   52.2993   59.3367 C.3       2 GLC5        0.0000 
     44 CA         28.7560   52.6520   59.2180 C.3       6 GLL5        0.0000 
     45 CA         27.1830   51.1605   59.2911 C.3       2 GLC5        0.0000 
     46 CA         28.8630   51.3150   58.9350 C.3       6 GLL5        0.0000 
     47 CA         31.0201   51.9586   56.9577 C.3       2 GLC5        0.0000 
     48 CA         29.0420   50.8830   57.6300 C.3       6 GLL5        0.0000 
     49 CA         32.9940   51.6630   56.9340 C.3       4 GLP5        0.0000 
     50 CA         23.9357   50.6650   55.8673 C.3       2 GLC5        0.0000 
     51 CA         25.1400   52.4600   55.3590 C.3       6 GLL5        0.0000 
     52 CA         23.1280   48.7330   55.8280 C.3       4 GLP5        0.0000 
@<TRIPOS>BOND
@<TRIPOS>SUBSTRUCTURE
     1 SEC2       15 GROUP        1 X    SEC  0     ROOT SEC X 2
     2 GLC5        1 GROUP        1 X    GLC  0     **** GLC X 6
     3 SEP2       17 GROUP        1 Y    SEP  0     ROOT SEP Y 9
     4 GLP5        3 GROUP        1 Y    GLP  0     **** GLP Y 13
     5 SEL2       16 GROUP        1 Z    SEL  0     ROOT SEL Z 16
     6 GLL5        2 GROUP        1 Z    GLL  0     **** GLL Z 20
@<TRIPOS>SET

