#    Name: 3gol_XND_2_ligand
#    Modification time : Tue Mar 25 12:48:20 2014

@<TRIPOS>MOLECULE
3gol_XND_2_ligand
   52    55     1     0     0
SMALL
NO_CHARGES


@<TRIPOS>ATOM
      1 CL29       28.7570   50.2270   60.2540 Cl        1 XND579      0.0000 
      2 C22        28.8630   51.3150   58.9350 C.ar      1 XND579      0.0000 
      3 C21        28.7560   52.6520   59.2180 C.ar      1 XND579      0.0000 
      4 C20        28.8320   53.5570   58.1890 C.ar      1 XND579      0.0000 
      5 CL28       28.6910   55.1980   58.6260 Cl        1 XND579      0.0000 
      6 C23        29.0420   50.8830   57.6300 C.ar      1 XND579      0.0000 
      7 C24        29.1130   51.8000   56.5860 C.ar      1 XND579      0.0000 
      8 C16        29.0150   53.1670   56.8550 C.ar      1 XND579      0.0000 
      9 C11        29.0590   54.2700   55.7610 C.3       1 XND579      0.0000 
     10 C5         29.3410   53.6960   54.3740 C.2       1 XND579      0.0000 
     11 C6         30.7370   53.8460   53.8540 C.2       1 XND579      0.0000 
     12 O25        31.6230   54.2860   54.5610 O.2       1 XND579      0.0000 
     13 C1         31.0590   53.3780   52.4540 C.3       1 XND579      0.0000 
     14 N10        27.7940   55.0340   55.7620 N.am      1 XND579      0.0000 
     15 C17        27.7610   56.2570   55.0720 C.2       1 XND579      0.0000 
     16 C19        26.4600   56.9010   54.6300 C.3       1 XND579      0.0000 
     17 O18        28.8140   56.8210   54.8070 O.2       1 XND579      0.0000 
     18 C9         26.6240   54.2580   55.9610 C.ar      1 XND579      0.0000 
     19 C15        25.8290   54.5270   57.0720 C.ar      1 XND579      0.0000 
     20 C14        24.6970   53.7720   57.3170 C.ar      1 XND579      0.0000 
     21 C13        24.3470   52.7340   56.4540 C.ar      1 XND579      0.0000 
     22 C12        25.1400   52.4600   55.3590 C.ar      1 XND579      0.0000 
     23 O30        24.7580   51.4520   54.5570 O.3       1 XND579      0.0000 
     24 C8         26.2870   53.2100   55.0890 C.ar      1 XND579      0.0000 
     25 N7         27.0840   52.8150   53.9840 N.pl3     1 XND579      0.0000 
     26 C4         28.4230   52.9780   53.6660 C.2       1 XND579      0.0000 
     27 C3         28.8420   52.2500   52.3870 C.3       1 XND579      0.0000 
     28 C2         30.3520   52.0530   52.1870 C.3       1 XND579      0.0000 
     29 C27        30.8090   50.9850   53.2010 C.3       1 XND579      0.0000 
     30 C26        30.6860   51.6100   50.7560 C.3       1 XND579      0.0000 
     31 H          28.6210   52.9723   60.1848 H         1 XND579      0.0000 
     32 H          29.1235   49.8737   57.4289 H         1 XND579      0.0000 
     33 H          29.2369   51.4755   55.6209 H         1 XND579      0.0000 
     34 H          29.8812   54.9457   56.0207 H         1 XND579      0.0000 
     35 H          32.1299   53.2378   52.3511 H         1 XND579      0.0000 
     36 H          30.7195   54.1148   51.7335 H         1 XND579      0.0000 
     37 H          26.0890   55.2926   57.7115 H         1 XND579      0.0000 
     38 H          24.1073   53.9724   58.1374 H         1 XND579      0.0000 
     39 H          23.5019   52.1803   56.6386 H         1 XND579      0.0000 
     40 H          26.4969   52.2523   53.2093 H         1 XND579      0.0000 
     41 H          28.4400   52.8047   51.5128 H         1 XND579      0.0000 
     42 H          28.3507   51.2542   52.3661 H         1 XND579      0.0000 
     43 H          26.6171   57.7645   54.1507 H         1 XND579      0.0000 
     44 H          25.9455   56.3102   54.0085 H         1 XND579      0.0000 
     45 H          25.8622   57.1012   55.4062 H         1 XND579      0.0000 
     46 H          31.7944   50.8224   53.1504 H         1 XND579      0.0000 
     47 H          30.6044   51.2546   54.1420 H         1 XND579      0.0000 
     48 H          30.3585   50.1063   53.0433 H         1 XND579      0.0000 
     49 H          31.6694   51.4833   50.6264 H         1 XND579      0.0000 
     50 H          30.2456   50.7429   50.5233 H         1 XND579      0.0000 
     51 H          30.3854   52.2822   50.0794 H         1 XND579      0.0000 
     52 H          23.8098   51.6586   54.3157 H         1 XND579      0.0000 
@<TRIPOS>BOND
     1    2    1 1    
     2    3    2 ar   
     3    6    2 ar   
     4    4    3 ar   
     5   31    3 1    
     6    5    4 1    
     7    8    4 ar   
     8    7    6 ar   
     9   32    6 1    
    10    8    7 ar   
    11   33    7 1    
    12    9    8 1    
    13   10    9 1    
    14   14    9 1    
    15   34    9 1    
    16   11   10 1    
    17   26   10 2    
    18   12   11 2    
    19   13   11 1    
    20   28   13 1    
    21   35   13 1    
    22   36   13 1    
    23   15   14 am   
    24   18   14 1    
    25   16   15 1    
    26   17   15 2    
    27   43   16 1    
    28   44   16 1    
    29   45   16 1    
    30   19   18 ar   
    31   24   18 ar   
    32   20   19 ar   
    33   37   19 1    
    34   21   20 ar   
    35   38   20 1    
    36   22   21 ar   
    37   39   21 1    
    38   23   22 1    
    39   24   22 ar   
    40   52   23 1    
    41   25   24 1    
    42   26   25 1    
    43   40   25 1    
    44   27   26 1    
    45   28   27 1    
    46   41   27 1    
    47   42   27 1    
    48   29   28 1    
    49   30   28 1    
    50   46   29 1    
    51   47   29 1    
    52   48   29 1    
    53   49   30 1    
    54   50   30 1    
    55   51   30 1    
@<TRIPOS>SUBSTRUCTURE
     1 XND579      1 GROUP   
@<TRIPOS>SET

