#    Name: 3b7k_COA_2_INTS_M
#    Modification time : Mon Mar 24 19:05:54 2014

@<TRIPOS>MOLECULE
3b7k_COA_2_INTS_M
   75     0     9     0     0
SMALL
NO_CHARGES


@<TRIPOS>ATOM
      1 CA         16.1160   -0.8895   34.2355 C.3       3 GLC5        0.0000 
      2 CA         16.2640    0.2580   35.8030 C.3       9 GLL5        0.0000 
      3 CA         15.9680   -2.0370   32.6680 C.3       6 GLP5        0.0000 
      4 CA         17.2745   -1.2200   36.6485 C.3       3 GLC5        0.0000 
      5 CA         18.2850   -2.6980   37.4940 C.3       6 GLP5        0.0000 
      6 CA         17.6230    1.5255   34.9345 C.3       3 GLC5        0.0000 
      7 CA         18.9820    2.7930   34.0660 C.3       6 GLP5        0.0000 
      8 CA         12.1980    0.6240   34.6630 C.3       3 GLC5        0.0000 
      9 CA         13.6550    1.0070   36.2770 C.3       9 GLL5        0.0000 
     10 CA         10.7410    0.2410   33.0490 C.3       6 GLP5        0.0000 
     11 CA         15.0860   -0.4230   33.8395 C.3       3 GLC5        0.0000 
     12 CA         14.2040    1.1910   35.0110 C.3       9 GLL5        0.0000 
     13 CA         12.9455    0.1825   33.7835 C.3       3 GLC5        0.0000 
     14 CA         11.6870   -0.8260   32.5560 C.3       6 GLP5        0.0000 
     15 CA         15.6710   -1.4000   40.5965 C.3       3 GLC5        0.0000 
     16 CA         14.1230    0.0040   39.7640 C.3       9 GLL5        0.0000 
     17 CA         17.2190   -2.8040   41.4290 C.3       6 GLP5        0.0000 
     18 N          15.8545    2.5695   41.9525 N.am      1 SEC2        0.0000 
     19 N          14.9700    2.0460   40.8850 N.am      7 SEL2        0.0000 
     20 N          16.7390    3.0930   43.0200 N.am      4 SEP2        0.0000 
     21 N          15.3220   -1.8795   45.5280 N.am      1 SEC2        0.0000 
     22 N          14.5970   -0.9480   44.9010 N.am      7 SEL2        0.0000 
     23 N          16.0470   -2.8110   46.1550 N.am      4 SEP2        0.0000 
     24 N          14.0765   -2.2160   44.6640 N.am      1 SEC2        0.0000 
     25 N          13.5560   -3.4840   44.4270 N.am      4 SEP2        0.0000 
     26 NZ         17.3975    1.5270   43.5890 N.4       2 LYC4        0.0000 
     27 NZ         16.7740    0.0800   44.4760 N.4       8 LYL4        0.0000 
     28 NZ         18.0210    2.9740   42.7020 N.4       5 LYP4        0.0000 
     29 N          17.5075   -0.4290   45.6560 N.am      1 SEC2        0.0000 
     30 N          16.7740    0.0800   44.4760 N.am      7 SEL2        0.0000 
     31 N          18.2410   -0.9380   46.8360 N.am      4 SEP2        0.0000 
     32 N          16.4105   -1.3655   45.3155 N.am      1 SEC2        0.0000 
     33 N          15.7455    2.3190   43.8360 N.am      1 SEC2        0.0000 
     34 N          14.7520    1.5450   44.6520 N.am      7 SEL2        0.0000 
     35 CA         15.1980   -1.9055   41.5430 C.3       3 GLC5        0.0000 
     36 CA         13.1770   -1.0070   41.6570 C.3       9 GLL5        0.0000 
     37 CA         13.5310   -2.8130   40.9245 C.3       3 GLC5        0.0000 
     38 CA         13.8850   -4.6190   40.1920 C.3       6 GLP5        0.0000 
     39 NZ          9.0105    0.4875   36.0830 N.4       2 LYC4        0.0000 
     40 NZ          9.3910    0.3930   37.9380 N.4       8 LYL4        0.0000 
     41 NZ          8.6300    0.5820   34.2280 N.4       5 LYP4        0.0000 
     42 CA         12.6540   -3.4465   37.1080 C.3       3 GLC5        0.0000 
     43 CA         10.7550   -2.4450   37.7690 C.3       9 GLL5        0.0000 
     44 CA         14.5530   -4.4480   36.4470 C.3       6 GLP5        0.0000 
     45 CA         10.2980   -1.3580   35.9555 C.3       3 GLC5        0.0000 
     46 CA          9.8410   -0.2710   34.1420 C.3       6 GLP5        0.0000 
     47 CA         12.0410   -4.6085   39.4940 C.3       3 GLC5        0.0000 
     48 CA         10.1970   -4.5980   38.7960 C.3       9 GLL5        0.0000 
     49 CA         10.3435   -6.7525   33.2240 C.3       3 GLC5        0.0000 
     50 CA          9.8920   -7.5210   34.8890 C.3       9 GLL5        0.0000 
     51 CA         10.7950   -5.9840   31.5590 C.3       6 GLP5        0.0000 
     52 CA         13.1540   -9.4820   32.9400 C.3       3 GLC5        0.0000 
     53 CA         10.9950   -9.7990   32.9290 C.3       9 GLL5        0.0000 
     54 CA         15.3130   -9.1650   32.9510 C.3       6 GLP5        0.0000 
     55 CA         11.3180   -8.2925   31.7645 C.3       3 GLC5        0.0000 
     56 CA         11.6410   -6.7860   30.6000 C.3       6 GLP5        0.0000 
     57 CA          6.9375   -9.5795   33.3550 C.3       3 GLC5        0.0000 
     58 CA          8.4560   -9.8660   31.8810 C.3       9 GLL5        0.0000 
     59 CA          5.4190   -9.2930   34.8290 C.3       6 GLP5        0.0000 
     60 CA          6.8990  -11.0805   31.5660 C.3       3 GLC5        0.0000 
     61 CA          5.3420  -12.2950   31.2510 C.3       6 GLP5        0.0000 
     62 CA          7.7865   -8.7105   30.4780 C.3       3 GLC5        0.0000 
     63 CA          7.1170   -7.5550   29.0750 C.3       6 GLP5        0.0000 
     64 CA         14.3489    2.6757   36.5671 C.3       3 GLC5        0.0000 
     65 CA         14.5750    4.3920   37.2370 C.3       6 GLP5        0.0000 
     66 CA         10.6182   -8.5615   36.8100 C.3       3 GLC5        0.0000 
     67 CA          9.2770   -6.9430   36.1550 C.3       9 GLL5        0.0000 
     68 CA         11.6520   -9.8910   38.0980 C.3       6 GLP5        0.0000 
     69 CA         11.9902  -10.9793   31.4448 C.3       3 GLC5        0.0000 
     70 CA         13.4690  -11.7090   30.3370 C.3       6 GLP5        0.0000 
     71 CA          9.2300  -10.7265   30.2333 C.3       3 GLC5        0.0000 
     72 CA         10.0280  -10.7000   32.1760 C.3       9 GLL5        0.0000 
     73 CA          9.2180  -11.1700   28.4380 C.3       6 GLP5        0.0000 
     74 CA         10.1500   -8.8920   30.7937 C.3       3 GLC5        0.0000 
     75 CA         11.0580   -7.5010   29.5590 C.3       6 GLP5        0.0000 
@<TRIPOS>BOND
@<TRIPOS>SUBSTRUCTURE
     1 SEC2       18 GROUP        1 X    SEC  0     ROOT SEC X 2
     2 LYC4       26 GROUP        1 X    LYC  0     **** LYC X 4
     3 GLC5        1 GROUP        1 X    GLC  0     **** GLC X 6
     4 SEP2       20 GROUP        1 Y    SEP  0     ROOT SEP Y 9
     5 LYP4       28 GROUP        1 Y    LYP  0     **** LYP Y 11
     6 GLP5        3 GROUP        1 Y    GLP  0     **** GLP Y 13
     7 SEL2       19 GROUP        1 Z    SEL  0     ROOT SEL Z 16
     8 LYL4       27 GROUP        1 Z    LYL  0     **** LYL Z 18
     9 GLL5        2 GROUP        1 Z    GLL  0     **** GLL Z 20
@<TRIPOS>SET

