#    Name: 3b7k_COA_2_ligand
#    Modification time : Mon Mar 24 19:05:54 2014

@<TRIPOS>MOLECULE
3b7k_COA_2_ligand
   79    81     1     0     0
SMALL
NO_CHARGES


@<TRIPOS>ATOM
      1 N1A        15.5140    0.8080   34.7820 N.ar      1 COA317      0.0000 
      2 C2A        16.2640    0.2580   35.8030 C.ar      1 COA317      0.0000 
      3 N3A        15.7110    0.0820   37.0570 N.ar      1 COA317      0.0000 
      4 C4A        14.4280    0.4490   37.2900 C.ar      1 COA317      0.0000 
      5 C5A        13.6550    1.0070   36.2770 C.ar      1 COA317      0.0000 
      6 C6A        14.2040    1.1910   35.0110 C.ar      1 COA317      0.0000 
      7 N6A        13.5410    1.9000   34.0930 N.pl3     1 COA317      0.0000 
      8 N7A        12.4340    1.2830   36.7820 N.2       1 COA317      0.0000 
      9 C8A        12.4220    0.9080   38.0830 C.2       1 COA317      0.0000 
     10 N9A        13.6480    0.3860   38.4150 N.pl3     1 COA317      0.0000 
     11 C1B        14.1230    0.0040   39.7640 C.3       1 COA317      0.0000 
     12 C2B        13.9070    1.1160   40.7960 C.3       1 COA317      0.0000 
     13 O2B        14.9700    2.0460   40.8850 O.3       1 COA317      0.0000 
     14 C3B        13.7680    0.3320   42.0810 C.3       1 COA317      0.0000 
     15 O3B        15.0500    0.1070   42.6150 O.3       1 COA317      0.0000 
     16 P3B        15.2910    0.1980   44.2000 P.3       1 COA317      0.0000 
     17 O7A        14.5970   -0.9480   44.9010 O.co2     1 COA317      0.0000 
     18 O8A        16.7740    0.0800   44.4760 O.co2     1 COA317      0.0000 
     19 O9A        14.7520    1.5450   44.6520 O.co2     1 COA317      0.0000 
     20 C4B        13.1770   -1.0070   41.6570 C.3       1 COA317      0.0000 
     21 O4B        13.4350   -1.1350   40.2660 O.3       1 COA317      0.0000 
     22 C5B        11.6790   -1.1120   41.9530 C.3       1 COA317      0.0000 
     23 O5B        11.1040    0.1300   42.3340 O.3       1 COA317      0.0000 
     24 P1A        10.0790    0.9440   41.3890 P.3       1 COA317      0.0000 
     25 O1A        10.8440    1.9970   40.6250 O.co2     1 COA317      0.0000 
     26 O2A         8.9560    1.5810   42.1710 O.co2     1 COA317      0.0000 
     27 O3A         9.5090   -0.2280   40.4140 O.3       1 COA317      0.0000 
     28 P2A         8.5510   -0.0480   39.1150 P.3       1 COA317      0.0000 
     29 O4A         9.3910    0.3930   37.9380 O.co2     1 COA317      0.0000 
     30 O5A         7.3780    0.8890   39.3290 O.co2     1 COA317      0.0000 
     31 O6A         8.0460   -1.5480   38.8320 O.3       1 COA317      0.0000 
     32 CBP         9.5910   -3.3420   38.1760 C.3       1 COA317      0.0000 
     33 CCP         8.7820   -2.6660   39.2840 C.3       1 COA317      0.0000 
     34 CDP        10.7550   -2.4450   37.7690 C.3       1 COA317      0.0000 
     35 CEP        10.1970   -4.5980   38.7960 C.3       1 COA317      0.0000 
     36 CAP         8.7740   -3.6620   36.9080 C.3       1 COA317      0.0000 
     37 OAP         7.8760   -2.6370   36.5330 O.3       1 COA317      0.0000 
     38 C9P         8.0760   -4.9950   36.9030 C.2       1 COA317      0.0000 
     39 O9P         7.1360   -5.3440   37.9010 O.2       1 COA317      0.0000 
     40 N8P         8.4040   -5.8130   35.9050 N.am      1 COA317      0.0000 
     41 C7P         9.2770   -6.9430   36.1550 C.3       1 COA317      0.0000 
     42 C6P         9.8920   -7.5210   34.8890 C.3       1 COA317      0.0000 
     43 C5P         9.7540   -9.0330   34.9000 C.2       1 COA317      0.0000 
     44 O5P         8.7460   -9.5760   35.3860 O.2       1 COA317      0.0000 
     45 N4P        10.7490   -9.7440   34.3620 N.am      1 COA317      0.0000 
     46 C3P        10.9950   -9.7990   32.9290 C.3       1 COA317      0.0000 
     47 C2P        10.0280  -10.7000   32.1760 C.3       1 COA317      0.0000 
     48 S1P         8.4560   -9.8660   31.8810 S.3       1 COA317      0.0000 
     49 H          17.2429   -0.0232   35.6287 H         1 COA317      0.0000 
     50 H          14.0315    2.0854   33.2415 H         1 COA317      0.0000 
     51 H          12.6137    2.1816   34.3398 H         1 COA317      0.0000 
     52 H          11.6756    0.9900   38.6900 H         1 COA317      0.0000 
     53 H          15.1943   -0.1925   39.7364 H         1 COA317      0.0000 
     54 H          12.9530    1.5625   40.5924 H         1 COA317      0.0000 
     55 H          13.1057    0.8162   42.7222 H         1 COA317      0.0000 
     56 H          13.6949   -1.7838   42.2103 H         1 COA317      0.0000 
     57 H          11.5531   -1.8803   42.7439 H         1 COA317      0.0000 
     58 H          11.1927   -1.5262   41.0455 H         1 COA317      0.0000 
     59 H           8.1203   -3.4432   39.7262 H         1 COA317      0.0000 
     60 H           9.4979   -2.3895   40.0893 H         1 COA317      0.0000 
     61 H           9.5591   -3.7391   36.0691 H         1 COA317      0.0000 
     62 H           8.0667   -5.6890   34.9411 H         1 COA317      0.0000 
     63 H           8.7269   -7.7578   36.6687 H         1 COA317      0.0000 
     64 H          10.1049   -6.6563   36.8352 H         1 COA317      0.0000 
     65 H          10.9428   -7.2533   34.8444 H         1 COA317      0.0000 
     66 H           9.3791   -7.1165   34.0223 H         1 COA317      0.0000 
     67 H          11.4077  -10.3029   34.9556 H         1 COA317      0.0000 
     68 H          12.0257  -10.1576   32.7243 H         1 COA317      0.0000 
     69 H          10.9327   -8.7837   32.4839 H         1 COA317      0.0000 
     70 H           9.7314  -11.5652   32.7269 H         1 COA317      0.0000 
     71 H          10.3504  -10.9430   31.1875 H         1 COA317      0.0000 
     72 H          11.3672   -2.2593   38.5376 H         1 COA317      0.0000 
     73 H          11.3086   -2.8597   37.0469 H         1 COA317      0.0000 
     74 H          10.4397   -1.5605   37.4251 H         1 COA317      0.0000 
     75 H          10.7455   -5.1107   38.1355 H         1 COA317      0.0000 
     76 H          10.7951   -4.3800   39.5672 H         1 COA317      0.0000 
     77 H           9.4928   -5.2202   39.1379 H         1 COA317      0.0000 
     78 H          15.8020    1.4938   40.8322 H         1 COA317      0.0000 
     79 H           7.7861   -2.0616   37.3459 H         1 COA317      0.0000 
@<TRIPOS>BOND
     1    2    1 ar   
     2    6    1 ar   
     3    3    2 ar   
     4   49    2 1    
     5    4    3 ar   
     6    5    4 ar   
     7   10    4 1    
     8    6    5 ar   
     9    8    5 1    
    10    7    6 1    
    11   50    7 1    
    12   51    7 1    
    13    9    8 2    
    14   10    9 1    
    15   52    9 1    
    16   11   10 1    
    17   12   11 1    
    18   21   11 1    
    19   53   11 1    
    20   13   12 1    
    21   14   12 1    
    22   54   12 1    
    23   78   13 1    
    24   15   14 1    
    25   20   14 1    
    26   55   14 1    
    27   16   15 1    
    28   17   16 ar   
    29   18   16 ar   
    30   19   16 ar   
    31   21   20 1    
    32   22   20 1    
    33   56   20 1    
    34   23   22 1    
    35   57   22 1    
    36   58   22 1    
    37   24   23 1    
    38   25   24 ar   
    39   26   24 ar   
    40   27   24 1    
    41   28   27 1    
    42   29   28 ar   
    43   30   28 ar   
    44   31   28 1    
    45   33   31 1    
    46   33   32 1    
    47   34   32 1    
    48   35   32 1    
    49   36   32 1    
    50   59   33 1    
    51   60   33 1    
    52   72   34 1    
    53   73   34 1    
    54   74   34 1    
    55   75   35 1    
    56   76   35 1    
    57   77   35 1    
    58   37   36 1    
    59   38   36 1    
    60   61   36 1    
    61   79   37 1    
    62   39   38 2    
    63   40   38 am   
    64   41   40 1    
    65   62   40 1    
    66   42   41 1    
    67   63   41 1    
    68   64   41 1    
    69   43   42 1    
    70   65   42 1    
    71   66   42 1    
    72   44   43 2    
    73   45   43 am   
    74   46   45 1    
    75   67   45 1    
    76   47   46 1    
    77   68   46 1    
    78   69   46 1    
    79   48   47 1    
    80   70   47 1    
    81   71   47 1    
@<TRIPOS>SUBSTRUCTURE
     1 COA317      1 GROUP   
@<TRIPOS>SET

