#    Name: 2qmg_SC6_2_INTS_M
#    Modification time : Mon Mar 24 22:31:18 2014

@<TRIPOS>MOLECULE
2qmg_SC6_2_INTS_M
   97     0    12     0     0
SMALL
NO_CHARGES


@<TRIPOS>ATOM
      1 CA         20.6240   29.5770   59.5485 C.3       4 GLC5        0.0000 
      2 CA         18.7640   29.9550   59.1680 C.3      12 GLL5        0.0000 
      3 CA         22.4840   29.1990   59.9290 C.3       8 GLP5        0.0000 
      4 N          13.7175   32.4735   59.5060 N.am      2 SEC2        0.0000 
      5 N          13.9460   31.4310   58.5900 N.am     10 SEL2        0.0000 
      6 N          13.4890   33.5160   60.4220 N.am      6 SEP2        0.0000 
      7 CA         11.7485   34.1305   54.5900 C.3       4 GLC5        0.0000 
      8 CA         13.3630   33.4900   55.8680 C.3      12 GLL5        0.0000 
      9 CA         10.1340   34.7710   53.3120 C.3       8 GLP5        0.0000 
     10 CA         19.8675   27.9365   60.4890 C.3       4 GLC5        0.0000 
     11 CA         17.7470   27.8890   60.2830 C.3      12 GLL5        0.0000 
     12 CA         21.9880   27.9840   60.6950 C.3       8 GLP5        0.0000 
     13 CA         17.3190   28.6095   62.1175 C.3       4 GLC5        0.0000 
     14 CA         16.8910   29.3300   63.9520 C.3       8 GLP5        0.0000 
     15 O          18.3540   34.1825   58.0290 O.2       1 ALC1        0.0000 
     16 O          19.6090   33.3220   57.9290 O.2       9 ALL1        0.0000 
     17 O          17.0990   35.0430   58.1290 O.2       5 ALP1        0.0000 
     18 N          21.3080   30.0410   57.4480 N.am      2 SEC2        0.0000 
     19 N          20.9460   31.4690   57.9430 N.am     10 SEL2        0.0000 
     20 N          21.6700   28.6130   56.9530 N.am      6 SEP2        0.0000 
     21 CA         21.5505   36.9590   60.0540 C.3       4 GLC5        0.0000 
     22 CA         21.1210   35.1490   58.8010 C.3      12 GLL5        0.0000 
     23 CA         21.9800   38.7690   61.3070 C.3       8 GLP5        0.0000 
     24 CA         19.1795   36.2560   58.7645 C.3       4 GLC5        0.0000 
     25 CA         17.2380   37.3630   58.7280 C.3       8 GLP5        0.0000 
     26 CA         18.7045   36.2865   57.5810 C.3       4 GLC5        0.0000 
     27 CA         20.1710   35.2100   56.4340 C.3      12 GLL5        0.0000 
     28 O          21.8005   37.0805   57.7945 O.2       1 ALC1        0.0000 
     29 O          22.2060   35.9540   58.3980 O.2       9 ALL1        0.0000 
     30 O          21.3950   38.2070   57.1910 O.2       5 ALP1        0.0000 
     31 CA         21.9030   32.6535   55.1290 C.3       4 GLC5        0.0000 
     32 CA         20.2400   33.4770   54.5530 C.3      12 GLL5        0.0000 
     33 CA         23.5660   31.8300   55.7050 C.3       8 GLP5        0.0000 
     34 CA         14.8470   33.7000   52.3960 C.3       4 GLC5        0.0000 
     35 CA         16.3310   34.3520   53.5110 C.3      12 GLL5        0.0000 
     36 CA         13.3630   33.0480   51.2810 C.3       8 GLP5        0.0000 
     37 CA         15.8840   35.1505   52.0360 C.3       4 GLC5        0.0000 
     38 CA         15.4370   35.9490   50.5610 C.3       8 GLP5        0.0000 
     39 CA         22.0385   32.5445   53.2095 C.3       4 GLC5        0.0000 
     40 CA         20.2920   31.8730   52.8100 C.3      12 GLL5        0.0000 
     41 CA         23.7850   33.2160   53.6090 C.3       8 GLP5        0.0000 
     42 CA         20.9835   30.3240   52.6045 C.3       4 GLC5        0.0000 
     43 CA         21.6750   28.7750   52.3990 C.3       8 GLP5        0.0000 
     44 CA         20.6935   32.8080   51.5300 C.3       4 GLC5        0.0000 
     45 CA         21.0950   33.7430   50.2500 C.3       8 GLP5        0.0000 
     46 CA         22.4360   35.0225   63.6450 C.3       4 GLC5        0.0000 
     47 CA         22.7950   34.2700   61.9980 C.3      12 GLL5        0.0000 
     48 CA         22.0770   35.7750   65.2920 C.3       8 GLP5        0.0000 
     49 OD1        20.5405   36.3330   61.2300 O.co2     3 ASC3        0.0000 
     50 OD1        22.0240   35.1920   61.1490 O.co2    11 ASL3        0.0000 
     51 OD1        19.0570   37.4740   61.3110 O.co2     7 ASP3        0.0000 
     52 OD1        20.8005   35.3550   61.6630 O.co2     3 ASC3        0.0000 
     53 OD1        19.5770   35.5180   62.1770 O.co2     7 ASP3        0.0000 
     54 CA         23.4110   33.8400   57.7505 C.3       4 GLC5        0.0000 
     55 CA         22.7590   33.3690   59.7950 C.3      12 GLL5        0.0000 
     56 CA         24.0630   34.3110   55.7060 C.3       8 GLP5        0.0000 
     57 CA         22.6215   31.2840   59.8620 C.3       4 GLC5        0.0000 
     58 CA         12.7150   36.6150   56.0770 C.3       4 GLC5        0.0000 
     59 CA         13.6940   35.4160   57.2390 C.3      12 GLL5        0.0000 
     60 CA         11.7360   37.8140   54.9150 C.3       8 GLP5        0.0000 
     61 CA         15.4660   36.3895   57.9835 C.3       4 GLC5        0.0000 
     62 CA         14.7410   34.8680   58.8585 C.3       4 GLC5        0.0000 
     63 CA         15.7880   34.3200   60.4780 C.3       8 GLP5        0.0000 
     64 CA         12.8815   34.4890   58.9960 C.3       4 GLC5        0.0000 
     65 CA         12.0690   33.5620   60.7530 C.3       8 GLP5        0.0000 
     66 N          12.4725   33.5330   57.8260 N.am      2 SEC2        0.0000 
     67 N          13.5980   34.0090   57.1670 N.am     10 SEL2        0.0000 
     68 N          11.3470   33.0570   58.4850 N.am      6 SEP2        0.0000 
     69 CA         16.5090   30.8987   60.6905 C.3       4 GLC5        0.0000 
     70 CA         17.6150   29.1610   59.4800 C.3      12 GLL5        0.0000 
     71 CA         16.0440   32.4260   62.1290 C.3       8 GLP5        0.0000 
     72 CA         19.0545   29.1875   57.6290 C.3       4 GLC5        0.0000 
     73 CA         19.4100   27.8180   56.4700 C.3       8 GLP5        0.0000 
     74 CA         16.2815   32.7412   59.2993 C.3       4 GLC5        0.0000 
     75 CA         17.3550   31.5510   57.9730 C.3      12 GLL5        0.0000 
     76 CA         13.6917   32.0602   52.8030 C.3       4 GLC5        0.0000 
     77 CA         14.7100   30.7610   54.1930 C.3      12 GLL5        0.0000 
     78 CA         18.3852   28.2241   58.1187 C.3       4 GLC5        0.0000 
     79 CA         16.3330   29.5820   59.0240 C.3      12 GLL5        0.0000 
     80 CA         22.2997   34.6386   56.5100 C.3       4 GLC5        0.0000 
     81 CA         20.6830   34.2960   57.5870 C.3      12 GLL5        0.0000 
     82 CA         19.9663   36.4222   54.5627 C.3       4 GLC5        0.0000 
     83 CA         18.1800   34.7610   54.9160 C.3      12 GLL5        0.0000 
     84 CA         20.9190   38.0440   53.7380 C.3       8 GLP5        0.0000 
     85 CA         17.1026   36.1814   53.8395 C.3       4 GLC5        0.0000 
     86 CA         17.0980   37.9800   53.7340 C.3       8 GLP5        0.0000 
     87 CA         24.6490   35.0180   62.4183 C.3       4 GLC5        0.0000 
     88 CA         23.6950   33.5560   61.0030 C.3      12 GLL5        0.0000 
     89 CA         26.0530   36.1230   63.3360 C.3       8 GLP5        0.0000 
     90 CA         27.4970   34.4698   55.8720 C.3       4 GLC5        0.0000 
     91 CA         27.7480   33.8010   57.7960 C.3      12 GLL5        0.0000 
     92 CA         27.5010   34.4920   53.8090 C.3       8 GLP5        0.0000 
     93 CA         26.0439   32.1819   57.2679 C.3       4 GLC5        0.0000 
     94 CA         24.8310   31.0850   56.1330 C.3       8 GLP5        0.0000 
     95 CA         25.6283   36.7430   58.0305 C.3       4 GLC5        0.0000 
     96 CA         27.2380   35.0940   58.0740 C.3      12 GLL5        0.0000 
     97 CA         24.5150   38.3100   57.4910 C.3       8 GLP5        0.0000 
@<TRIPOS>BOND
@<TRIPOS>SUBSTRUCTURE
     1 ALC1       15 GROUP        1 X    ALC  0     ROOT ALC X 1
     2 SEC2        4 GROUP        1 X    SEC  0     **** SEC X 2
     3 ASC3       49 GROUP        1 X    ASC  0     **** ASC X 3
     4 GLC5        1 GROUP        1 X    GLC  0     **** GLC X 6
     5 ALP1       17 GROUP        1 Y    ALP  0     ROOT ALP Y 8
     6 SEP2        6 GROUP        1 Y    SEP  0     **** SEP Y 9
     7 ASP3       51 GROUP        1 Y    ASP  0     **** ASP Y 10
     8 GLP5        3 GROUP        1 Y    GLP  0     **** GLP Y 13
     9 ALL1       16 GROUP        1 Z    ALL  0     ROOT ALL Z 15
    10 SEL2        5 GROUP        1 Z    SEL  0     **** SEL Z 16
    11 ASL3       50 GROUP        1 Z    ASL  0     **** ASL Z 17
    12 GLL5        2 GROUP        1 Z    GLL  0     **** GLL Z 20
@<TRIPOS>SET

