#    Name: 2qmg_SC6_2_ligand
#    Modification time : Mon Mar 24 22:31:18 2014

@<TRIPOS>MOLECULE
2qmg_SC6_2_ligand
   82    86     1     0     0
SMALL
NO_CHARGES


@<TRIPOS>ATOM
      1 C1         16.3330   29.5820   59.0240 C.ar      1 SC61        0.0000 
      2 C2         17.6150   29.1610   59.4800 C.ar      1 SC61        0.0000 
      3 C3         18.7640   29.9550   59.1680 C.ar      1 SC61        0.0000 
      4 C4         18.6340   31.1590   58.4080 C.ar      1 SC61        0.0000 
      5 C5         17.3550   31.5510   57.9730 C.ar      1 SC61        0.0000 
      6 C6         16.1950   30.7740   58.2680 C.ar      1 SC61        0.0000 
      7 C7         14.8660   31.2380   57.7900 C.2       1 SC61        0.0000 
      8 N1         14.6620   31.4740   56.4190 N.am      1 SC61        0.0000 
      9 O1         13.9460   31.4310   58.5900 O.2       1 SC61        0.0000 
     10 C8         15.6180   31.3050   55.3050 C.3       1 SC61        0.0000 
     11 C9         14.7100   30.7610   54.1930 C.3       1 SC61        0.0000 
     12 C10        13.3310   31.3840   54.4570 C.3       1 SC61        0.0000 
     13 C11        13.3830   31.9460   55.8920 C.3       1 SC61        0.0000 
     14 C12        13.3630   33.4900   55.8680 C.3       1 SC61        0.0000 
     15 C30        17.7470   27.8890   60.2830 C.3       1 SC61        0.0000 
     16 C14        19.8250   31.9700   58.0820 C.2       1 SC61        0.0000 
     17 N2         19.6090   33.3220   57.9290 N.am      1 SC61        0.0000 
     18 O2         20.9460   31.4690   57.9430 O.2       1 SC61        0.0000 
     19 C15        20.6830   34.2960   57.5870 C.3       1 SC61        0.0000 
     20 C16        21.1210   35.1490   58.8010 C.3       1 SC61        0.0000 
     21 C17        20.1710   35.2100   56.4340 C.3       1 SC61        0.0000 
     22 O3         22.2060   35.9540   58.3980 O.3       1 SC61        0.0000 
     23 C19        19.5230   34.4700   55.2840 C.ar      1 SC61        0.0000 
     24 C21        18.1800   34.7610   54.9160 C.ar      1 SC61        0.0000 
     25 C22        17.5870   34.0660   53.8420 C.ar      1 SC61        0.0000 
     26 C23        18.2800   33.0790   53.1080 C.ar      1 SC61        0.0000 
     27 C24        19.6090   32.8030   53.4860 C.ar      1 SC61        0.0000 
     28 C25        20.2400   33.4770   54.5530 C.ar      1 SC61        0.0000 
     29 F2         16.3310   34.3520   53.5110 F         1 SC61        0.0000 
     30 F1         20.2920   31.8730   52.8100 F         1 SC61        0.0000 
     31 C26        23.6950   33.5560   61.0030 C.3       1 SC61        0.0000 
     32 C18        22.7950   34.2700   61.9980 C.3       1 SC61        0.0000 
     33 N3         22.0240   35.1920   61.1490 N.4       1 SC61        0.0000 
     34 C20        22.7590   33.3690   59.7950 C.3       1 SC61        0.0000 
     35 C27        21.5750   34.3360   60.0400 C.3       1 SC61        0.0000 
     36 O4         24.7660   34.4610   60.7420 O.3       1 SC61        0.0000 
     37 C31        25.7500   34.1440   59.7890 C.ar      1 SC61        0.0000 
     38 C32        26.2680   32.8380   59.5060 C.ar      1 SC61        0.0000 
     39 C33        27.2630   32.6750   58.5130 C.ar      1 SC61        0.0000 
     40 C34        27.7480   33.8010   57.7960 C.ar      1 SC61        0.0000 
     41 C35        27.2380   35.0940   58.0740 C.ar      1 SC61        0.0000 
     42 C36        26.2450   35.2580   59.0660 C.ar      1 SC61        0.0000 
     43 C37        13.6940   35.4160   57.2390 C.3       1 SC61        0.0000 
     44 O5         13.5980   34.0090   57.1670 O.3       1 SC61        0.0000 
     45 H          15.5093   29.0200   59.2443 H         1 SC61        0.0000 
     46 H          19.6847   29.6585   59.4913 H         1 SC61        0.0000 
     47 H          17.2439   32.4186   57.4277 H         1 SC61        0.0000 
     48 H          16.3523   30.5791   55.5349 H         1 SC61        0.0000 
     49 H          16.0187   32.2344   54.9975 H         1 SC61        0.0000 
     50 H          14.6445   29.7017   54.2703 H         1 SC61        0.0000 
     51 H          15.0721   31.0826   53.2455 H         1 SC61        0.0000 
     52 H          12.5788   30.6298   54.3981 H         1 SC61        0.0000 
     53 H          13.1594   32.1814   53.7694 H         1 SC61        0.0000 
     54 H          12.5750   31.5722   56.4395 H         1 SC61        0.0000 
     55 H          12.3853   33.7949   55.4700 H         1 SC61        0.0000 
     56 H          14.1276   33.8124   55.1478 H         1 SC61        0.0000 
     57 H          18.6583   33.7302   58.0497 H         1 SC61        0.0000 
     58 H          21.5502   33.7654   57.2096 H         1 SC61        0.0000 
     59 H          20.2815   35.7682   59.0978 H         1 SC61        0.0000 
     60 H          21.0273   35.7984   56.0616 H         1 SC61        0.0000 
     61 H          19.4530   35.9293   56.8644 H         1 SC61        0.0000 
     62 H          17.6561   35.4662   55.4274 H         1 SC61        0.0000 
     63 H          17.8419   32.5936   52.3468 H         1 SC61        0.0000 
     64 H          21.2010   33.2608   54.8049 H         1 SC61        0.0000 
     65 H          23.9675   32.6413   61.3918 H         1 SC61        0.0000 
     66 H          23.3981   34.8029   62.6959 H         1 SC61        0.0000 
     67 H          22.1586   33.5571   62.4686 H         1 SC61        0.0000 
     68 H          22.3989   32.3694   59.7713 H         1 SC61        0.0000 
     69 H          23.2642   33.6488   58.9028 H         1 SC61        0.0000 
     70 H          20.7387   33.7275   60.3913 H         1 SC61        0.0000 
     71 H          25.9165   32.0362   60.0215 H         1 SC61        0.0000 
     72 H          27.6347   31.7464   58.3098 H         1 SC61        0.0000 
     73 H          28.4639   33.6779   57.0807 H         1 SC61        0.0000 
     74 H          27.5871   35.9006   57.5597 H         1 SC61        0.0000 
     75 H          25.8767   36.1943   59.2666 H         1 SC61        0.0000 
     76 H          18.6967   27.7081   60.5387 H         1 SC61        0.0000 
     77 H          17.2177   27.9282   61.1305 H         1 SC61        0.0000 
     78 H          17.4241   27.0922   59.7723 H         1 SC61        0.0000 
     79 H          13.8577   35.7297   58.1743 H         1 SC61        0.0000 
     80 H          14.4433   35.7664   56.6770 H         1 SC61        0.0000 
     81 H          12.8568   35.8621   56.9225 H         1 SC61        0.0000 
     82 H          21.7883   36.7610   57.9806 H         1 SC61        0.0000 
@<TRIPOS>BOND
     1    2    1 ar   
     2    6    1 ar   
     3   45    1 1    
     4    3    2 ar   
     5   15    2 1    
     6    4    3 ar   
     7   46    3 1    
     8    5    4 ar   
     9   16    4 1    
    10    6    5 ar   
    11   47    5 1    
    12    7    6 1    
    13    8    7 am   
    14    9    7 2    
    15   10    8 1    
    16   13    8 1    
    17   11   10 1    
    18   48   10 1    
    19   49   10 1    
    20   12   11 1    
    21   50   11 1    
    22   51   11 1    
    23   13   12 1    
    24   52   12 1    
    25   53   12 1    
    26   14   13 1    
    27   54   13 1    
    28   44   14 1    
    29   55   14 1    
    30   56   14 1    
    31   76   15 1    
    32   77   15 1    
    33   78   15 1    
    34   17   16 am   
    35   18   16 2    
    36   19   17 1    
    37   57   17 1    
    38   20   19 1    
    39   21   19 1    
    40   58   19 1    
    41   22   20 1    
    42   35   20 1    
    43   59   20 1    
    44   23   21 1    
    45   60   21 1    
    46   61   21 1    
    47   82   22 1    
    48   24   23 ar   
    49   28   23 ar   
    50   25   24 ar   
    51   62   24 1    
    52   26   25 ar   
    53   29   25 1    
    54   27   26 ar   
    55   63   26 1    
    56   28   27 ar   
    57   30   27 1    
    58   64   28 1    
    59   32   31 1    
    60   34   31 1    
    61   36   31 1    
    62   65   31 1    
    63   33   32 1    
    64   66   32 1    
    65   67   32 1    
    66   35   33 1    
    67   35   34 1    
    68   68   34 1    
    69   69   34 1    
    70   70   35 1    
    71   37   36 1    
    72   38   37 ar   
    73   42   37 ar   
    74   39   38 ar   
    75   71   38 1    
    76   40   39 ar   
    77   72   39 1    
    78   41   40 ar   
    79   73   40 1    
    80   42   41 ar   
    81   74   41 1    
    82   75   42 1    
    83   44   43 1    
    84   79   43 1    
    85   80   43 1    
    86   81   43 1    
@<TRIPOS>SUBSTRUCTURE
     1 SC61        1 GROUP   
@<TRIPOS>SET

