#    Name: 1bx6_BA1_1_INTS_M
#    Modification time : Mon Mar 24 19:54:42 2014

@<TRIPOS>MOLECULE
1bx6_BA1_1_INTS_M
   87     0     9     0     0
SMALL
NO_CHARGES


@<TRIPOS>ATOM
      1 CA         12.7970   40.8885   16.6700 C.3       3 GLC5        0.0000 
      2 CA         13.4280   40.7010   18.7730 C.3       9 GLL5        0.0000 
      3 CA         12.1660   41.0760   14.5670 C.3       6 GLP5        0.0000 
      4 CA         12.6615   41.9775   20.3775 C.3       3 GLC5        0.0000 
      5 CA         11.8950   43.2540   21.9820 C.3       6 GLP5        0.0000 
      6 CA         14.5315   43.4100   17.4575 C.3       3 GLC5        0.0000 
      7 CA         14.1850   41.8670   18.9130 C.3       9 GLL5        0.0000 
      8 CA         14.8780   44.9530   16.0020 C.3       6 GLP5        0.0000 
      9 CA         13.5155   43.1305   20.3200 C.3       3 GLC5        0.0000 
     10 CA         12.8460   44.3940   21.7270 C.3       6 GLP5        0.0000 
     11 CA         16.5765   43.2200   17.8945 C.3       3 GLC5        0.0000 
     12 CA         15.5710   41.8170   19.0700 C.3       9 GLL5        0.0000 
     13 CA         17.5820   44.6230   16.7190 C.3       6 GLP5        0.0000 
     14 CA         17.2920   40.5825   20.9205 C.3       3 GLC5        0.0000 
     15 CA         16.2780   40.6210   19.0950 C.3       9 GLL5        0.0000 
     16 CA         18.3060   40.5440   22.7460 C.3       6 GLP5        0.0000 
     17 N          18.7470   39.7825   20.2830 N.am      2 SEC2        0.0000 
     18 N          17.7100   40.6120   19.2680 N.am      8 SEL2        0.0000 
     19 N          19.7840   38.9530   21.2980 N.am      5 SEP2        0.0000 
     20 O          18.6285   41.3595   19.1750 O.2       1 ALC1        0.0000 
     21 O          17.7100   40.6120   19.2680 O.2       7 ALL1        0.0000 
     22 O          19.5470   42.1070   19.0820 O.2       4 ALP1        0.0000 
     23 CA         14.3645   39.9225   16.6435 C.3       3 GLC5        0.0000 
     24 CA         14.1120   39.4750   18.8250 C.3       9 GLL5        0.0000 
     25 CA         14.6170   40.3700   14.4620 C.3       6 GLP5        0.0000 
     26 CA         10.9150   40.7945   16.3765 C.3       3 GLC5        0.0000 
     27 CA          9.6640   40.5130   18.1860 C.3       9 GLL5        0.0000 
     28 CA          9.0110   38.2300   16.2350 C.3       3 GLC5        0.0000 
     29 CA          8.5780   39.7190   17.4620 C.3       9 GLL5        0.0000 
     30 CA          9.4440   36.7410   15.0080 C.3       6 GLP5        0.0000 
     31 CA          6.3000   39.9480   21.9375 C.3       3 GLC5        0.0000 
     32 CA          6.9610   40.9370   20.2640 C.3       9 GLL5        0.0000 
     33 CA          5.6390   38.9590   23.6110 C.3       6 GLP5        0.0000 
     34 CA         10.1015   41.6420   14.6565 C.3       3 GLC5        0.0000 
     35 CA          8.0370   42.2080   14.7460 C.3       9 GLL5        0.0000 
     36 CA          7.1670   40.0665   13.1470 C.3       3 GLC5        0.0000 
     37 CA          7.5920   42.0580   13.4480 C.3       9 GLL5        0.0000 
     38 CA          6.7420   38.0750   12.8460 C.3       6 GLP5        0.0000 
     39 CA          8.7310   40.9420   12.0480 C.3       3 GLC5        0.0000 
     40 CA          9.8700   39.8260   10.6480 C.3       6 GLP5        0.0000 
     41 CA          7.4540   42.7220   10.7200 C.3       3 GLC5        0.0000 
     42 CA          7.0430   43.1410   12.7890 C.3       9 GLL5        0.0000 
     43 CA          7.8650   42.3030    8.6510 C.3       6 GLP5        0.0000 
     44 N           5.2900   43.2805   10.4285 N.am      2 SEC2        0.0000 
     45 N           6.5810   43.0170   11.4930 N.am      8 SEL2        0.0000 
     46 N           3.9990   43.5440    9.3640 N.am      5 SEP2        0.0000 
     47 N           8.4705   46.0275   15.2080 N.am      2 SEC2        0.0000 
     48 N           7.2130   45.7040   15.3670 N.am      8 SEL2        0.0000 
     49 N           9.7280   46.3510   15.0490 N.am      5 SEP2        0.0000 
     50 O           7.2425   46.3405   16.8350 O.2       1 ALC1        0.0000 
     51 O           7.2130   45.7040   15.3670 O.2       7 ALL1        0.0000 
     52 O           7.2720   46.9770   18.3030 O.2       4 ALP1        0.0000 
     53 O           7.6725   45.3185   16.7030 O.2       1 ALC1        0.0000 
     54 O           8.1320   44.9330   18.0390 O.2       4 ALP1        0.0000 
     55 N           5.0700   44.3920   10.4500 N.am      2 SEC2        0.0000 
     56 N           6.1410   45.2400   11.5360 N.am      8 SEL2        0.0000 
     57 CA          8.3540   46.6395   13.6850 C.3       3 GLC5        0.0000 
     58 CA          6.5860   47.6740   13.4300 C.3       9 GLL5        0.0000 
     59 CA         10.1220   45.6050   13.9400 C.3       6 GLP5        0.0000 
     60 O           8.4590   48.4315   13.9380 O.2       1 ALC1        0.0000 
     61 O           7.8430   47.4040   12.9980 O.2       7 ALL1        0.0000 
     62 O           9.0750   49.4590   14.8780 O.2       4 ALP1        0.0000 
     63 N           2.5710   44.3440   12.6710 N.am      2 SEC2        0.0000 
     64 N           3.8410   44.4190   13.1840 N.am      8 SEL2        0.0000 
     65 N           1.3010   44.2690   12.1580 N.am      5 SEP2        0.0000 
     66 CA         14.4203   41.1975   20.6390 C.3       3 GLC5        0.0000 
     67 CA         15.0340   41.1110   22.4350 C.3       6 GLP5        0.0000 
     68 CA         15.4793   41.1650   20.7587 C.3       3 GLC5        0.0000 
     69 CA         15.4985   38.0745   17.6620 C.3       3 GLC5        0.0000 
     70 CA         15.5480   39.4270   18.9990 C.3       9 GLL5        0.0000 
     71 CA         16.1670   36.6980   16.4120 C.3       6 GLP5        0.0000 
     72 CA         16.7121   40.3630   17.4274 C.3       3 GLC5        0.0000 
     73 CA         17.6880   40.4030   15.8140 C.3       6 GLP5        0.0000 
     74 CA         14.9320   40.2810   20.6735 C.3       3 GLC5        0.0000 
     75 CA          6.1867   41.5975   13.3325 C.3       3 GLC5        0.0000 
     76 CA          4.5590   41.0620   12.5680 C.3       6 GLP5        0.0000 
     77 CA          8.9682   43.8690   14.0185 C.3       3 GLC5        0.0000 
     78 CA          5.7750   42.4032   12.8395 C.3       3 GLC5        0.0000 
     79 CA          6.9390   44.3480   13.4330 C.3       9 GLL5        0.0000 
     80 CA          8.5565   44.6748   13.5255 C.3       3 GLC5        0.0000 
     81 CA          8.8705   44.7833   14.5157 C.3       3 GLC5        0.0000 
     82 CA          7.3410   44.4970   14.7530 C.3       9 GLL5        0.0000 
     83 CA          7.3003   47.4255   11.7443 C.3       3 GLC5        0.0000 
     84 CA          8.4540   47.6930   10.1360 C.3       6 GLP5        0.0000 
     85 CA          6.1450   49.7750   15.7982 C.3       3 GLC5        0.0000 
     86 CA          6.1970   48.9120   13.9500 C.3       9 GLL5        0.0000 
     87 CA          6.7610   50.5970   17.4360 C.3       6 GLP5        0.0000 
@<TRIPOS>BOND
@<TRIPOS>SUBSTRUCTURE
     1 ALC1       20 GROUP        1 X    ALC  0     ROOT ALC X 1
     2 SEC2       17 GROUP        1 X    SEC  0     **** SEC X 2
     3 GLC5        1 GROUP        1 X    GLC  0     **** GLC X 6
     4 ALP1       22 GROUP        1 Y    ALP  0     ROOT ALP Y 8
     5 SEP2       19 GROUP        1 Y    SEP  0     **** SEP Y 9
     6 GLP5        3 GROUP        1 Y    GLP  0     **** GLP Y 13
     7 ALL1       21 GROUP        1 Z    ALL  0     ROOT ALL Z 15
     8 SEL2       18 GROUP        1 Z    SEL  0     **** SEL Z 16
     9 GLL5        2 GROUP        1 Z    GLL  0     **** GLL Z 20
@<TRIPOS>SET

