#    Name: 1bx6_BA1_1_ligand
#    Modification time : Mon Mar 24 19:54:42 2014

@<TRIPOS>MOLECULE
1bx6_BA1_1_ligand
   64    67     1     0     0
SMALL
NO_CHARGES


@<TRIPOS>ATOM
      1 C1'        11.9140   40.9050   18.5720 C.2       1 BA1351      0.0000 
      2 C2'        13.4280   40.7010   18.7730 C.ar      1 BA1351      0.0000 
      3 C3'        14.1850   41.8670   18.9130 C.ar      1 BA1351      0.0000 
      4 C4'        15.5710   41.8170   19.0700 C.ar      1 BA1351      0.0000 
      5 C5'        16.2780   40.6210   19.0950 C.ar      1 BA1351      0.0000 
      6 O5'        17.7100   40.6120   19.2680 O.3       1 BA1351      0.0000 
      7 C6'        15.5480   39.4270   18.9990 C.ar      1 BA1351      0.0000 
      8 C7'        14.1120   39.4750   18.8250 C.ar      1 BA1351      0.0000 
      9 O1'        11.4970   41.9660   18.9720 O.2       1 BA1351      0.0000 
     10 N1'        11.0050   40.0300   18.0950 N.am      1 BA1351      0.0000 
     11 N1          8.3460   41.1350   20.3510 N.4       1 BA1351      0.0000 
     12 C2          9.3280   40.3180   19.6560 C.3       1 BA1351      0.0000 
     13 C3          9.6640   40.5130   18.1860 C.3       1 BA1351      0.0000 
     14 C4          8.5780   39.7190   17.4620 C.3       1 BA1351      0.0000 
     15 C5          7.5490   39.1630   18.4220 C.3       1 BA1351      0.0000 
     16 C6          6.4890   39.9300   19.2020 C.3       1 BA1351      0.0000 
     17 C7          6.9610   40.9370   20.2640 C.3       1 BA1351      0.0000 
     18 OAC         7.8630   40.5310   16.5160 O.3       1 BA1351      0.0000 
     19 C1B         8.5600   41.0240   15.3660 C.2       1 BA1351      0.0000 
     20 OBC         9.5310   40.4110   14.9110 O.2       1 BA1351      0.0000 
     21 C2B         8.0370   42.2080   14.7460 C.ar      1 BA1351      0.0000 
     22 C3B         7.5920   42.0580   13.4480 C.ar      1 BA1351      0.0000 
     23 C4B         7.0430   43.1410   12.7890 C.ar      1 BA1351      0.0000 
     24 O4'         6.5810   43.0170   11.4930 O.3       1 BA1351      0.0000 
     25 C5B         6.9390   44.3480   13.4330 C.ar      1 BA1351      0.0000 
     26 C6B         7.3410   44.4970   14.7530 C.ar      1 BA1351      0.0000 
     27 O6'         7.2130   45.7040   15.3670 O.3       1 BA1351      0.0000 
     28 C7B         7.8970   43.4260   15.4300 C.ar      1 BA1351      0.0000 
     29 C8'         6.2890   45.4210   12.7140 C.2       1 BA1351      0.0000 
     30 O8'         6.1410   45.2400   11.5360 O.2       1 BA1351      0.0000 
     31 C9'         5.7070   46.6420   13.2750 C.ar      1 BA1351      0.0000 
     32 CXU         6.5860   47.6740   13.4300 C.ar      1 BA1351      0.0000 
     33 OXU         7.8430   47.4040   12.9980 O.3       1 BA1351      0.0000 
     34 CX4         6.1970   48.9120   13.9500 C.ar      1 BA1351      0.0000 
     35 CXE         4.8610   48.9940   14.3710 C.ar      1 BA1351      0.0000 
     36 CXO         3.9580   47.9010   14.2620 C.ar      1 BA1351      0.0000 
     37 CXY         4.3850   46.6920   13.7110 C.ar      1 BA1351      0.0000 
     38 CX8         3.4820   45.5600   13.5420 C.2       1 BA1351      0.0000 
     39 OX8         2.2070   45.7330   13.7880 O.co2     1 BA1351      0.0000 
     40 OXI         3.8410   44.4190   13.1840 O.co2     1 BA1351      0.0000 
     41 H          13.7079   42.7859   18.8999 H         1 BA1351      0.0000 
     42 H          16.0953   42.7158   19.1726 H         1 BA1351      0.0000 
     43 H          16.0068   38.5227   19.0491 H         1 BA1351      0.0000 
     44 H          13.6025   38.5902   18.7401 H         1 BA1351      0.0000 
     45 H          11.2020   39.1457   17.7172 H         1 BA1351      0.0000 
     46 H           9.0538   39.2073   19.7862 H         1 BA1351      0.0000 
     47 H          10.3256   40.3587   20.2296 H         1 BA1351      0.0000 
     48 H           9.5657   41.5419   17.9826 H         1 BA1351      0.0000 
     49 H           9.0436   38.8789   16.9541 H         1 BA1351      0.0000 
     50 H           8.1290   38.5097   19.2019 H         1 BA1351      0.0000 
     51 H           6.9904   38.3005   17.8603 H         1 BA1351      0.0000 
     52 H           5.8075   39.1933   19.6999 H         1 BA1351      0.0000 
     53 H           5.8325   40.4735   18.4749 H         1 BA1351      0.0000 
     54 H           6.4158   41.8988   20.0533 H         1 BA1351      0.0000 
     55 H           6.5280   40.5909   21.2435 H         1 BA1351      0.0000 
     56 H           7.6682   41.1487   12.9754 H         1 BA1351      0.0000 
     57 H           8.1986   43.5092   16.3956 H         1 BA1351      0.0000 
     58 H           6.8207   49.6812   14.0178 H         1 BA1351      0.0000 
     59 H           4.5110   49.8829   14.7785 H         1 BA1351      0.0000 
     60 H           2.9958   48.0128   14.5915 H         1 BA1351      0.0000 
     61 H          17.9979   41.5532   19.0912 H         1 BA1351      0.0000 
     62 H           6.7985   43.8899   11.0562 H         1 BA1351      0.0000 
     63 H           6.9754   45.4885   16.3142 H         1 BA1351      0.0000 
     64 H           8.4323   48.0288   13.5101 H         1 BA1351      0.0000 
@<TRIPOS>BOND
     1    2    1 1    
     2    9    1 2    
     3   10    1 am   
     4    3    2 ar   
     5    8    2 ar   
     6    4    3 ar   
     7   41    3 1    
     8    5    4 ar   
     9   42    4 1    
    10    6    5 1    
    11    7    5 ar   
    12   61    6 1    
    13    8    7 ar   
    14   43    7 1    
    15   44    8 1    
    16   13   10 1    
    17   45   10 1    
    18   12   11 1    
    19   17   11 1    
    20   13   12 1    
    21   46   12 1    
    22   47   12 1    
    23   14   13 1    
    24   48   13 1    
    25   15   14 1    
    26   18   14 1    
    27   49   14 1    
    28   16   15 1    
    29   50   15 1    
    30   51   15 1    
    31   17   16 1    
    32   52   16 1    
    33   53   16 1    
    34   54   17 1    
    35   55   17 1    
    36   19   18 1    
    37   20   19 2    
    38   21   19 1    
    39   22   21 ar   
    40   28   21 ar   
    41   23   22 ar   
    42   56   22 1    
    43   24   23 1    
    44   25   23 ar   
    45   62   24 1    
    46   26   25 ar   
    47   29   25 1    
    48   27   26 1    
    49   28   26 ar   
    50   63   27 1    
    51   57   28 1    
    52   30   29 2    
    53   31   29 1    
    54   32   31 ar   
    55   37   31 ar   
    56   33   32 1    
    57   34   32 ar   
    58   64   33 1    
    59   35   34 ar   
    60   58   34 1    
    61   36   35 ar   
    62   59   35 1    
    63   37   36 ar   
    64   60   36 1    
    65   38   37 1    
    66   39   38 ar   
    67   40   38 ar   
@<TRIPOS>SUBSTRUCTURE
     1 BA1351      1 GROUP   
@<TRIPOS>SET

