#    Name: 4lhv_GDP_1_INTS_M
#    Modification time : Tue Apr  8 00:00:14 2014

@<TRIPOS>MOLECULE
4lhv_GDP_1_INTS_M
   80     0    15     0     0
SMALL
NO_CHARGES


@<TRIPOS>ATOM
      1 Zn         -5.4235   36.4860   31.9935 Zn        4 ZIC7        0.0000 
      2 Zn         -6.2400   36.7200   31.4380 Zn       14 ZIL7        0.0000 
      3 Zn         -4.6070   36.2520   32.5490 Zn        9 ZIP7        0.0000 
      4 N          -6.8755   37.8730   32.3770 N.am      2 SEC2        0.0000 
      5 N          -6.2400   36.7200   31.4380 N.am     12 SEL2        0.0000 
      6 N          -7.5110   39.0260   33.3160 N.am      7 SEP2        0.0000 
      7 N          -5.9710   35.9395   32.5385 N.am      2 SEC2        0.0000 
      8 N          -5.7020   35.1590   33.6390 N.am      7 SEP2        0.0000 
      9 NZ         -7.6260   34.4540   30.5975 N.4       3 LYC4        0.0000 
     10 NZ         -6.3540   35.2560   29.5300 N.4      13 LYL4        0.0000 
     11 NZ         -8.8980   33.6520   31.6650 N.4       8 LYP4        0.0000 
     12 N          -7.0165   34.6770   28.5045 N.am      2 SEC2        0.0000 
     13 N          -6.3540   35.2560   29.5300 N.am     12 SEL2        0.0000 
     14 N          -7.6790   34.0980   27.4790 N.am      7 SEP2        0.0000 
     15 NZ         -8.7105   34.8035   31.0335 N.4       3 LYC4        0.0000 
     16 NZ         -8.5230   35.9550   30.4020 N.4      13 LYL4        0.0000 
     17 N          -9.3180   37.0245   29.6195 N.am      2 SEC2        0.0000 
     18 N          -8.5230   35.9550   30.4020 N.am     12 SEL2        0.0000 
     19 N         -10.1130   38.0940   28.8370 N.am      7 SEP2        0.0000 
     20 N          -9.1280   37.0830   31.0210 N.am      2 SEC2        0.0000 
     21 N          -9.7330   38.2110   31.6400 N.am      7 SEP2        0.0000 
     22 N          -8.7105   34.8035   31.0335 N.am      2 SEC2        0.0000 
     23 N          -8.8980   33.6520   31.6650 N.am      7 SEP2        0.0000 
     24 N          -8.6290   37.8250   28.9870 N.am      2 SEC2        0.0000 
     25 N          -7.1450   37.5560   29.1370 N.am     12 SEL2        0.0000 
     26 NZ         -4.6260   37.2405   28.1735 N.4       3 LYC4        0.0000 
     27 NZ         -4.8340   38.5650   29.1550 N.4      13 LYL4        0.0000 
     28 NZ         -3.8570   36.4870   26.1140 N.4       8 LYP4        0.0000 
     29 N          -4.6260   37.2405   28.1735 N.am      2 SEC2        0.0000 
     30 N          -4.8340   38.5650   29.1550 N.am     12 SEL2        0.0000 
     31 N          -4.4180   35.9160   27.1920 N.am      7 SEP2        0.0000 
     32 N          -6.9400   40.7775   31.3310 N.am      2 SEC2        0.0000 
     33 N          -6.6730   39.8670   30.2350 N.am     12 SEL2        0.0000 
     34 N          -7.2070   41.6880   32.4270 N.am      7 SEP2        0.0000 
     35 CA         -7.2295   37.0315   26.5020 C.3       5 GLC5        0.0000 
     36 CA         -6.5910   38.9240   26.5330 C.3      15 GLL5        0.0000 
     37 CA         -7.8680   35.1390   26.4710 C.3      10 GLP5        0.0000 
     38 CA         -8.2465   39.1520   28.0135 C.3       5 GLC5        0.0000 
     39 CA         -9.9020   39.3800   29.4940 C.3      10 GLP5        0.0000 
     40 CA         -6.3030   42.6885   27.9070 C.3       5 GLC5        0.0000 
     41 CA         -6.2080   42.1940   26.1540 C.3      15 GLL5        0.0000 
     42 CA         -6.3980   43.1830   29.6600 C.3      10 GLP5        0.0000 
     43 CA         -6.8970   44.3080   26.3515 C.3       5 GLC5        0.0000 
     44 CA         -7.5860   46.4220   26.5490 C.3      10 GLP5        0.0000 
     45 N          -4.6355   44.3350   26.8215 N.am      2 SEC2        0.0000 
     46 N          -5.6410   43.4660   25.8950 N.am     12 SEL2        0.0000 
     47 N          -3.6300   45.2040   27.7480 N.am      7 SEP2        0.0000 
     48 CA         -9.3010   40.9380   25.1585 C.3       5 GLC5        0.0000 
     49 CA         -7.5270   42.0450   25.4270 C.3      15 GLL5        0.0000 
     50 CA        -11.0750   39.8310   24.8900 C.3      10 GLP5        0.0000 
     51 CA         -7.2470   43.4775   23.9395 C.3       5 GLC5        0.0000 
     52 CA         -6.9670   44.9100   22.4520 C.3      10 GLP5        0.0000 
     53 N         -11.4815   42.0590   28.3845 N.am      2 SEC2        0.0000 
     54 N         -10.1610   42.8180   27.8530 N.am     12 SEL2        0.0000 
     55 N         -12.8020   41.3000   28.9160 N.am      7 SEP2        0.0000 
     56 CA        -11.7600   42.5000   25.9615 C.3       5 GLC5        0.0000 
     57 CA        -10.5370   43.6020   26.8300 C.3      15 GLL5        0.0000 
     58 CA        -12.9830   41.3980   25.0930 C.3      10 GLP5        0.0000 
     59 CA        -10.7410   44.4180   28.7900 C.3       5 GLC5        0.0000 
     60 CA        -10.9450   45.2340   30.7500 C.3      10 GLP5        0.0000 
     61 N         -12.8345   45.3520   28.5970 N.am      2 SEC2        0.0000 
     62 N         -12.5330   44.7540   27.3880 N.am     12 SEL2        0.0000 
     63 N         -13.1360   45.9500   29.8060 N.am      7 SEP2        0.0000 
     64 N         -11.9555   46.2010   27.9710 N.am      2 SEC2        0.0000 
     65 N         -11.3780   47.6480   28.5540 N.am      7 SEP2        0.0000 
     66 O         -12.8335   45.8960   25.0840 O.2       1 ALC1        0.0000 
     67 O         -11.6530   45.1190   25.3580 O.2      11 ALL1        0.0000 
     68 O         -14.0140   46.6730   24.8100 O.2       6 ALP1        0.0000 
     69 O         -11.9580   46.4945   23.1605 O.2       1 ALC1        0.0000 
     70 O         -10.8490   45.5410   23.2900 O.2      11 ALL1        0.0000 
     71 O         -13.0670   47.4480   23.0310 O.2       6 ALP1        0.0000 
     72 O          -9.7770   45.6405   22.2005 O.2       1 ALC1        0.0000 
     73 O          -8.7050   45.7400   21.1110 O.2       6 ALP1        0.0000 
     74 CA        -10.7165   42.1400   24.9720 C.3       5 GLC5        0.0000 
     75 CA         -9.5640   43.4230   25.7520 C.3      15 GLL5        0.0000 
     76 CA        -11.8690   40.8570   24.1920 C.3      10 GLP5        0.0000 
     77 CA         -8.2655   44.1665   24.1020 C.3       5 GLC5        0.0000 
     78 CA         -4.5036   39.6410   25.0733 C.3       5 GLC5        0.0000 
     79 CA         -6.4560   39.9440   25.4170 C.3      15 GLL5        0.0000 
     80 CA         -3.0430   39.0540   24.3380 C.3      10 GLP5        0.0000 
@<TRIPOS>BOND
@<TRIPOS>SUBSTRUCTURE
     1 ALC1       66 GROUP        1 X    ALC  0     ROOT ALC X 1
     2 SEC2        4 GROUP        1 X    SEC  0     **** SEC X 2
     3 LYC4        9 GROUP        1 X    LYC  0     **** LYC X 4
     4 ZIC7        1 GROUP        1 X    ZIC  0     **** ZIC X 5
     5 GLC5       35 GROUP        1 X    GLC  0     **** GLC X 6
     6 ALP1       68 GROUP        1 Y    ALP  0     ROOT ALP Y 8
     7 SEP2        6 GROUP        1 Y    SEP  0     **** SEP Y 9
     8 LYP4       11 GROUP        1 Y    LYP  0     **** LYP Y 11
     9 ZIP7        3 GROUP        1 Y    ZIP  0     **** ZIP Y 12
    10 GLP5       37 GROUP        1 Y    GLP  0     **** GLP Y 13
    11 ALL1       67 GROUP        1 Z    ALL  0     ROOT ALL Z 15
    12 SEL2        5 GROUP        1 Z    SEL  0     **** SEL Z 16
    13 LYL4       10 GROUP        1 Z    LYL  0     **** LYL Z 18
    14 ZIL7        2 GROUP        1 Z    ZIL  0     **** ZIL Z 19
    15 GLL5       36 GROUP        1 Z    GLL  0     **** GLL Z 20
@<TRIPOS>SET

