#    Name: 4lhv_GDP_1_ligand
#    Modification time : Tue Apr  8 00:00:15 2014

@<TRIPOS>MOLECULE
4lhv_GDP_1_ligand
   40    42     1     0     0
SMALL
NO_CHARGES


@<TRIPOS>ATOM
      1 PB         -7.0760   36.3730   30.2070 P.3       1 GDP201      0.0000 
      2 O1B        -6.2400   36.7200   31.4380 O.co2     1 GDP201      0.0000 
      3 O2B        -6.3540   35.2560   29.5300 O.co2     1 GDP201      0.0000 
      4 O3B        -8.5230   35.9550   30.4020 O.co2     1 GDP201      0.0000 
      5 O3A        -7.1450   37.5560   29.1370 O.3       1 GDP201      0.0000 
      6 PA         -6.2680   38.9100   29.1240 P.3       1 GDP201      0.0000 
      7 O1A        -4.8340   38.5650   29.1550 O.co2     1 GDP201      0.0000 
      8 O2A        -6.6730   39.8670   30.2350 O.co2     1 GDP201      0.0000 
      9 O5'        -6.7630   39.5950   27.7810 O.3       1 GDP201      0.0000 
     10 C5'        -6.5910   38.9240   26.5330 C.3       1 GDP201      0.0000 
     11 C4'        -6.4560   39.9440   25.4170 C.3       1 GDP201      0.0000 
     12 O4'        -7.6910   40.6390   25.2940 O.3       1 GDP201      0.0000 
     13 C3'        -5.4050   41.0220   25.6420 C.3       1 GDP201      0.0000 
     14 O3'        -4.8410   41.3690   24.3700 O.3       1 GDP201      0.0000 
     15 C2'        -6.2080   42.1940   26.1540 C.3       1 GDP201      0.0000 
     16 O2'        -5.6410   43.4660   25.8950 O.3       1 GDP201      0.0000 
     17 C1'        -7.5270   42.0450   25.4270 C.3       1 GDP201      0.0000 
     18 N9         -8.6970   42.5480   26.2060 N.pl3     1 GDP201      0.0000 
     19 C8         -9.0500   42.1690   27.4610 C.2       1 GDP201      0.0000 
     20 N7        -10.1610   42.8180   27.8530 N.2       1 GDP201      0.0000 
     21 C5        -10.5370   43.6020   26.8300 C.2       1 GDP201      0.0000 
     22 C6        -11.6310   44.5280   26.5540 C.2       1 GDP201      0.0000 
     23 O6        -12.5330   44.7540   27.3880 O.2       1 GDP201      0.0000 
     24 N1        -11.6530   45.1190   25.3580 N.am      1 GDP201      0.0000 
     25 C2        -10.7210   44.9050   24.4270 C.2       1 GDP201      0.0000 
     26 N2        -10.8490   45.5410   23.2900 N.pl3     1 GDP201      0.0000 
     27 N3         -9.7020   44.0670   24.5680 N.2       1 GDP201      0.0000 
     28 C4         -9.5640   43.4230   25.7520 C.2       1 GDP201      0.0000 
     29 H          -7.4465   38.2779   26.2997 H         1 GDP201      0.0000 
     30 H          -5.6898   38.2983   26.5309 H         1 GDP201      0.0000 
     31 H          -6.2311   39.4350   24.4914 H         1 GDP201      0.0000 
     32 H          -4.7243   40.7108   26.3486 H         1 GDP201      0.0000 
     33 H          -6.4109   42.0243   27.2010 H         1 GDP201      0.0000 
     34 H          -7.4679   42.5100   24.4815 H         1 GDP201      0.0000 
     35 H          -8.5604   41.5151   27.9989 H         1 GDP201      0.0000 
     36 H         -12.4501   45.7918   25.1361 H         1 GDP201      0.0000 
     37 H         -11.6596   46.1193   23.1981 H         1 GDP201      0.0000 
     38 H         -10.1244   45.3903   22.6175 H         1 GDP201      0.0000 
     39 H          -4.0436   41.9326   24.5857 H         1 GDP201      0.0000 
     40 H          -4.7733   43.2739   25.4364 H         1 GDP201      0.0000 
@<TRIPOS>BOND
     1    2    1 ar   
     2    3    1 ar   
     3    4    1 ar   
     4    5    1 1    
     5    6    5 1    
     6    7    6 ar   
     7    8    6 ar   
     8    9    6 1    
     9   10    9 1    
    10   11   10 1    
    11   29   10 1    
    12   30   10 1    
    13   12   11 1    
    14   13   11 1    
    15   31   11 1    
    16   17   12 1    
    17   14   13 1    
    18   15   13 1    
    19   32   13 1    
    20   39   14 1    
    21   16   15 1    
    22   17   15 1    
    23   33   15 1    
    24   40   16 1    
    25   18   17 1    
    26   34   17 1    
    27   19   18 1    
    28   28   18 1    
    29   20   19 2    
    30   35   19 1    
    31   21   20 1    
    32   22   21 1    
    33   28   21 2    
    34   23   22 2    
    35   24   22 am   
    36   25   24 1    
    37   36   24 1    
    38   26   25 1    
    39   27   25 2    
    40   37   26 1    
    41   38   26 1    
    42   28   27 1    
@<TRIPOS>SUBSTRUCTURE
     1 GDP201      1 GROUP   
@<TRIPOS>SET

