#    Name: 2h29_DND_2_INTS_M
#    Modification time : Tue Mar 25 15:24:52 2014

@<TRIPOS>MOLECULE
2h29_DND_2_INTS_M
  111     0    12     0     0
SMALL
NO_CHARGES


@<TRIPOS>ATOM
      1 NZ         24.2575   -3.5205   17.9320 N.4       3 LYC4        0.0000 
      2 NZ         24.6530   -3.8200   19.2360 N.4      11 LYL4        0.0000 
      3 NZ         23.8620   -3.2210   16.6280 N.4       7 LYP4        0.0000 
      4 N          24.2575   -3.5205   17.9320 N.am      2 SEC2        0.0000 
      5 N          24.6530   -3.8200   19.2360 N.am     10 SEL2        0.0000 
      6 N          23.8620   -3.2210   16.6280 N.am      6 SEP2        0.0000 
      7 N          27.8730   -3.4075   21.2415 N.am      2 SEC2        0.0000 
      8 N          26.4900   -3.5960   21.0490 N.am     10 SEL2        0.0000 
      9 N          29.2560   -3.2190   21.4340 N.am      6 SEP2        0.0000 
     10 N          26.6835   -4.9390   21.1115 N.am      2 SEC2        0.0000 
     11 N          26.8770   -6.2820   21.1740 N.am      6 SEP2        0.0000 
     12 CA         22.4185   -1.6935   21.9610 C.3       4 GLC5        0.0000 
     13 CA         24.2870   -2.3680   22.8210 C.3      12 GLL5        0.0000 
     14 CA         20.5500   -1.0190   21.1010 C.3       8 GLP5        0.0000 
     15 CA         23.2655   -2.7680   25.9960 C.3       4 GLC5        0.0000 
     16 CA         23.9780   -3.2150   24.0520 C.3      12 GLL5        0.0000 
     17 CA         22.5530   -2.3210   27.9400 C.3       8 GLP5        0.0000 
     18 CA         21.9395   -3.5470   24.8385 C.3       4 GLC5        0.0000 
     19 CA         19.9010   -3.8790   25.6250 C.3       8 GLP5        0.0000 
     20 O          24.9225   -6.0880   26.1900 O.2       1 ALC1        0.0000 
     21 O          25.1760   -4.5300   25.6630 O.2       9 ALL1        0.0000 
     22 O          24.6690   -7.6460   26.7170 O.2       5 ALP1        0.0000 
     23 CA         25.2500   -6.3425   21.9340 C.3       4 GLC5        0.0000 
     24 CA         24.2320   -5.5500   23.6520 C.3      12 GLL5        0.0000 
     25 CA         26.2680   -7.1350   20.2160 C.3       8 GLP5        0.0000 
     26 CA         24.1005   -7.6400   22.9220 C.3       4 GLC5        0.0000 
     27 CA         23.9690   -9.7300   22.1920 C.3       8 GLP5        0.0000 
     28 O          24.6855   -7.2415   25.4210 O.2       1 ALC1        0.0000 
     29 O          24.7020   -6.8370   24.1250 O.2       9 ALL1        0.0000 
     30 CA         21.3625   -4.5555   24.8800 C.3       4 GLC5        0.0000 
     31 CA         22.8240   -5.2320   24.1350 C.3      12 GLL5        0.0000 
     32 CA         17.9710   -8.1585   22.7325 C.3       4 GLC5        0.0000 
     33 CA         19.9970   -7.5850   22.0770 C.3      12 GLL5        0.0000 
     34 CA         15.9450   -8.7320   23.3880 C.3       8 GLP5        0.0000 
     35 CA         18.2795   -7.7395   23.8800 C.3       4 GLC5        0.0000 
     36 CA         20.3840   -7.8950   23.3760 C.3      12 GLL5        0.0000 
     37 CA         16.1750   -7.5840   24.3840 C.3       8 GLP5        0.0000 
     38 CA         22.0540   -8.8670   23.2320 C.3       4 GLC5        0.0000 
     39 CA         21.3180   -7.1040   24.0130 C.3      12 GLL5        0.0000 
     40 CA         22.7900  -10.6300   22.4510 C.3       8 GLP5        0.0000 
     41 CA         21.3735   -7.2360   26.1930 C.3       4 GLC5        0.0000 
     42 CA         21.4290   -7.3680   28.3730 C.3       8 GLP5        0.0000 
     43 N          21.0970   -9.5380   26.4065 N.am      2 SEC2        0.0000 
     44 N          20.2860   -9.3980   25.2150 N.am     10 SEL2        0.0000 
     45 N          21.9080   -9.6780   27.5980 N.am      6 SEP2        0.0000 
     46 N          17.7450  -10.3145   23.9760 N.am      2 SEC2        0.0000 
     47 N          18.9530   -9.7730   23.5530 N.am     10 SEL2        0.0000 
     48 N          16.5370  -10.8560   24.3990 N.am      6 SEP2        0.0000 
     49 NZ         25.0020   -1.9515   17.3805 N.4       3 LYC4        0.0000 
     50 NZ         26.1420   -0.6820   18.1330 N.4      11 LYL4        0.0000 
     51 N          28.6145   -2.1160   20.7110 N.am      2 SEC2        0.0000 
     52 N          27.9730   -1.0130   19.9880 N.am     10 SEL2        0.0000 
     53 CA         27.4325   -0.6080   22.4620 C.3       4 GLC5        0.0000 
     54 CA         26.6430    0.9650   21.6000 C.3      12 GLL5        0.0000 
     55 CA         28.2220   -2.1810   23.3240 C.3       8 GLP5        0.0000 
     56 CA         25.8135    2.4540   23.9580 C.3       4 GLC5        0.0000 
     57 CA         25.4730    1.6090   22.3580 C.3      12 GLL5        0.0000 
     58 CA         26.1540    3.2990   25.5580 C.3       8 GLP5        0.0000 
     59 N          26.3125    3.8735   22.9995 N.am      2 SEC2        0.0000 
     60 N          25.5450    3.0410   22.1830 N.am     10 SEL2        0.0000 
     61 N          27.0800    4.7060   23.8160 N.am      6 SEP2        0.0000 
     62 CA         22.3235    0.0940   21.4770 C.3       4 GLC5        0.0000 
     63 CA         24.0970    1.2070   21.8530 C.3      12 GLL5        0.0000 
     64 N          22.0355    2.3195   23.1185 N.am      2 SEC2        0.0000 
     65 N          23.1970    1.1910   22.9630 N.am     10 SEL2        0.0000 
     66 N          20.8740    3.4480   23.2740 N.am      6 SEP2        0.0000 
     67 O          23.5625    0.5250   24.0540 O.2       1 ALC1        0.0000 
     68 O          23.1970    1.1910   22.9630 O.2       9 ALL1        0.0000 
     69 O          23.9280   -0.1410   25.1450 O.2       5 ALP1        0.0000 
     70 N          21.6225    3.0015   21.9840 N.am      2 SEC2        0.0000 
     71 N          22.3710    2.5550   20.6940 N.am     10 SEL2        0.0000 
     72 O          21.6095    2.5550   19.6915 O.2       1 ALC1        0.0000 
     73 O          22.3710    2.5550   20.6940 O.2       9 ALL1        0.0000 
     74 O          20.8480    2.5550   18.6890 O.2       5 ALP1        0.0000 
     75 CA         25.3010    3.4095   23.4835 C.3       4 GLC5        0.0000 
     76 CA         24.4480    3.5200   21.4090 C.3      12 GLL5        0.0000 
     77 CA         25.2560    6.9760   21.9855 C.3       4 GLC5        0.0000 
     78 CA         24.7160    5.6960   20.2840 C.3      12 GLL5        0.0000 
     79 CA         25.7960    8.2560   23.6870 C.3       8 GLP5        0.0000 
     80 CA         24.7430    8.0180   22.1740 C.3       4 GLC5        0.0000 
     81 CA         23.6900    7.7800   20.6610 C.3      12 GLL5        0.0000 
     82 CA         22.8565    7.6220   22.4260 C.3       4 GLC5        0.0000 
     83 CA         22.0230    7.4640   24.1910 C.3       8 GLP5        0.0000 
     84 CA         22.2475    7.4115   19.4940 C.3       4 GLC5        0.0000 
     85 CA         20.8050    7.0430   18.3270 C.3       8 GLP5        0.0000 
     86 CA         23.8155    9.5500   21.6330 C.3       4 GLC5        0.0000 
     87 CA         23.9410   11.3200   22.6050 C.3       8 GLP5        0.0000 
     88 CA         27.0680    8.4620   18.9860 C.3       4 GLC5        0.0000 
     89 CA         25.2840    7.5870   18.9280 C.3      12 GLL5        0.0000 
     90 CA         28.8520    9.3370   19.0440 C.3       8 GLP5        0.0000 
     91 CA         23.6315    7.2020   18.1480 C.3       4 GLC5        0.0000 
     92 CA         21.9790    6.8170   17.3680 C.3       8 GLP5        0.0000 
     93 O          26.0180    9.4585   17.3125 O.2       1 ALC1        0.0000 
     94 O          25.9530    8.1930   17.9000 O.2       9 ALL1        0.0000 
     95 O          26.0830   10.7240   16.7250 O.2       5 ALP1        0.0000 
     96 O          26.9450    7.6180   16.9085 O.2       1 ALC1        0.0000 
     97 O          27.9370    7.0430   15.9170 O.2       5 ALP1        0.0000 
     98 CA         25.6435   -2.8652   25.4872 C.3       4 GLC5        0.0000 
     99 CA         24.9620   -4.3540   24.2470 C.3      12 GLL5        0.0000 
    100 CA         26.8170   -1.9460   26.8250 C.3       8 GLP5        0.0000 
    101 CA         26.3846   -2.8769   23.5829 C.3       4 GLC5        0.0000 
    102 CA         19.2437   -7.3053   20.1893 C.3       4 GLC5        0.0000 
    103 CA         18.2010   -7.5820   18.6230 C.3       8 GLP5        0.0000 
    104 CA         21.1361   -9.0039   21.9014 C.3       4 GLC5        0.0000 
    105 CA         20.5760   -6.4720   21.4340 C.3      12 GLL5        0.0000 
    106 CA         21.9370  -10.5460   21.2370 C.3       8 GLP5        0.0000 
    107 CA         22.2480    3.6930   21.7405 C.3       4 GLC5        0.0000 
    108 CA         23.7660    2.2900   20.8370 C.3      12 GLL5        0.0000 
    109 CA         20.3890    4.4810   22.3580 C.3       8 GLP5        0.0000 
    110 CA         23.6937    5.6502   18.4975 C.3       4 GLC5        0.0000 
    111 CA         22.2980    5.3380   17.2360 C.3       8 GLP5        0.0000 
@<TRIPOS>BOND
@<TRIPOS>SUBSTRUCTURE
     1 ALC1       20 GROUP        1 X    ALC  0     ROOT ALC X 1
     2 SEC2        4 GROUP        1 X    SEC  0     **** SEC X 2
     3 LYC4        1 GROUP        1 X    LYC  0     **** LYC X 4
     4 GLC5       12 GROUP        1 X    GLC  0     **** GLC X 6
     5 ALP1       22 GROUP        1 Y    ALP  0     ROOT ALP Y 8
     6 SEP2        6 GROUP        1 Y    SEP  0     **** SEP Y 9
     7 LYP4        3 GROUP        1 Y    LYP  0     **** LYP Y 11
     8 GLP5       14 GROUP        1 Y    GLP  0     **** GLP Y 13
     9 ALL1       21 GROUP        1 Z    ALL  0     ROOT ALL Z 15
    10 SEL2        5 GROUP        1 Z    SEL  0     **** SEL Z 16
    11 LYL4        2 GROUP        1 Z    LYL  0     **** LYL Z 18
    12 GLL5       13 GROUP        1 Z    GLL  0     **** GLL Z 20
@<TRIPOS>SET

