#    Name: 2h29_DND_2_ligand
#    Modification time : Tue Mar 25 15:24:52 2014

@<TRIPOS>MOLECULE
2h29_DND_2_ligand
   68    72     1     0     0
SMALL
NO_CHARGES


@<TRIPOS>ATOM
      1 PN         25.1980   -3.0980   20.4550 P.3       1 DND999      0.0000 
      2 O11        24.6530   -3.8200   19.2360 O.co2     1 DND999      0.0000 
      3 O12        26.4900   -3.5960   21.0490 O.co2     1 DND999      0.0000 
      4 O3P        25.3780   -1.5500   20.2730 O.3       1 DND999      0.0000 
      5 O5D        24.1260   -3.1580   21.6340 O.3       1 DND999      0.0000 
      6 C5D        24.2870   -2.3680   22.8210 C.3       1 DND999      0.0000 
      7 C4D        23.9780   -3.2150   24.0520 C.3       1 DND999      0.0000 
      8 O4D        22.6750   -3.7990   23.9570 O.3       1 DND999      0.0000 
      9 C3D        24.9620   -4.3540   24.2470 C.3       1 DND999      0.0000 
     10 O3D        25.1760   -4.5300   25.6630 O.3       1 DND999      0.0000 
     11 C2D        24.2320   -5.5500   23.6520 C.3       1 DND999      0.0000 
     12 O2D        24.7020   -6.8370   24.1250 O.3       1 DND999      0.0000 
     13 C1D        22.8240   -5.2320   24.1350 C.3       1 DND999      0.0000 
     14 N1N        21.8360   -6.0260   23.3970 N.pl3     1 DND999      0.0000 
     15 C6N        21.4820   -5.6970   22.1430 C.ar      1 DND999      0.0000 
     16 C5N        20.5760   -6.4720   21.4340 C.ar      1 DND999      0.0000 
     17 C4N        19.9970   -7.5850   22.0770 C.ar      1 DND999      0.0000 
     18 C3N        20.3840   -7.8950   23.3760 C.ar      1 DND999      0.0000 
     19 C2N        21.3180   -7.1040   24.0130 C.ar      1 DND999      0.0000 
     20 C7N        19.8360   -9.0920   24.0980 C.2       1 DND999      0.0000 
     21 O7N        20.2860   -9.3980   25.2150 O.co2     1 DND999      0.0000 
     22 O8N        18.9530   -9.7730   23.5530 O.co2     1 DND999      0.0000 
     23 PA         26.5910   -0.7390   19.5720 P.3       1 DND999      0.0000 
     24 O13        26.1420   -0.6820   18.1330 O.co2     1 DND999      0.0000 
     25 O14        27.9730   -1.0130   19.9880 O.co2     1 DND999      0.0000 
     26 O5B        26.2740    0.7020   20.2320 O.3       1 DND999      0.0000 
     27 C5B        26.6430    0.9650   21.6000 C.3       1 DND999      0.0000 
     28 C4B        25.4730    1.6090   22.3580 C.3       1 DND999      0.0000 
     29 O4B        25.5450    3.0410   22.1830 O.3       1 DND999      0.0000 
     30 C3B        24.0970    1.2070   21.8530 C.3       1 DND999      0.0000 
     31 O3B        23.1970    1.1910   22.9630 O.3       1 DND999      0.0000 
     32 C2B        23.7660    2.2900   20.8370 C.3       1 DND999      0.0000 
     33 O2B        22.3710    2.5550   20.6940 O.3       1 DND999      0.0000 
     34 C1B        24.4480    3.5200   21.4090 C.3       1 DND999      0.0000 
     35 N9A        25.0100    4.4030   20.3740 N.pl3     1 DND999      0.0000 
     36 C4A        24.7160    5.6960   20.2840 C.ar      1 DND999      0.0000 
     37 N3A        23.8340    6.4840   20.9740 N.ar      1 DND999      0.0000 
     38 C2A        23.6900    7.7800   20.6610 C.ar      1 DND999      0.0000 
     39 N1A        24.4090    8.3210   19.6640 N.ar      1 DND999      0.0000 
     40 C6A        25.2840    7.5870   18.9280 C.ar      1 DND999      0.0000 
     41 C5A        25.4630    6.2290   19.2340 C.ar      1 DND999      0.0000 
     42 N7A        26.2330    5.2260   18.7400 N.2       1 DND999      0.0000 
     43 C8A        25.9590    4.1000   19.4560 C.2       1 DND999      0.0000 
     44 N6A        25.9530    8.1930   17.9000 N.pl3     1 DND999      0.0000 
     45 H          23.6101   -1.5063   22.8264 H         1 DND999      0.0000 
     46 H          25.3117   -1.9924   22.9191 H         1 DND999      0.0000 
     47 H          24.0331   -2.5762   24.9324 H         1 DND999      0.0000 
     48 H          25.8270   -4.1594   23.7031 H         1 DND999      0.0000 
     49 H          24.2365   -5.4419   22.5954 H         1 DND999      0.0000 
     50 H          22.7963   -5.4730   25.1923 H         1 DND999      0.0000 
     51 H          21.8824   -4.8529   21.6807 H         1 DND999      0.0000 
     52 H          20.3289   -6.2517   20.4748 H         1 DND999      0.0000 
     53 H          19.3037   -8.1502   21.5880 H         1 DND999      0.0000 
     54 H          21.6146   -7.3566   24.9791 H         1 DND999      0.0000 
     55 H          27.4975    1.6499   21.6614 H         1 DND999      0.0000 
     56 H          26.9148    0.0426   22.1275 H         1 DND999      0.0000 
     57 H          25.5479    1.3664   23.4004 H         1 DND999      0.0000 
     58 H          24.1863    0.2805   21.3582 H         1 DND999      0.0000 
     59 H          24.2525    2.0547   19.9181 H         1 DND999      0.0000 
     60 H          23.7581    4.0476   22.0257 H         1 DND999      0.0000 
     61 H          23.0140    8.3737   21.1959 H         1 DND999      0.0000 
     62 H          26.3703    3.2412   19.3285 H         1 DND999      0.0000 
     63 H          25.7700    9.1675   17.7698 H         1 DND999      0.0000 
     64 H          26.5663    7.6084   17.3689 H         1 DND999      0.0000 
     65 H          24.8683   -5.4614   25.8573 H         1 DND999      0.0000 
     66 H          24.5524   -6.8197   25.1136 H         1 DND999      0.0000 
     67 H          23.6655    0.6589   23.6682 H         1 DND999      0.0000 
     68 H          22.1864    2.4492   19.7169 H         1 DND999      0.0000 
@<TRIPOS>BOND
     1    2    1 ar   
     2    3    1 ar   
     3    4    1 1    
     4    5    1 1    
     5   23    4 1    
     6    6    5 1    
     7    7    6 1    
     8   45    6 1    
     9   46    6 1    
    10    8    7 1    
    11    9    7 1    
    12   47    7 1    
    13   13    8 1    
    14   10    9 1    
    15   11    9 1    
    16   48    9 1    
    17   65   10 1    
    18   12   11 1    
    19   13   11 1    
    20   49   11 1    
    21   66   12 1    
    22   14   13 1    
    23   50   13 1    
    24   15   14 ar   
    25   19   14 ar   
    26   16   15 ar   
    27   51   15 1    
    28   17   16 ar   
    29   52   16 1    
    30   18   17 ar   
    31   53   17 1    
    32   19   18 ar   
    33   20   18 1    
    34   54   19 1    
    35   21   20 ar   
    36   22   20 ar   
    37   24   23 ar   
    38   25   23 ar   
    39   26   23 1    
    40   27   26 1    
    41   28   27 1    
    42   55   27 1    
    43   56   27 1    
    44   29   28 1    
    45   30   28 1    
    46   57   28 1    
    47   34   29 1    
    48   31   30 1    
    49   32   30 1    
    50   58   30 1    
    51   67   31 1    
    52   33   32 1    
    53   34   32 1    
    54   59   32 1    
    55   68   33 1    
    56   35   34 1    
    57   60   34 1    
    58   36   35 1    
    59   43   35 1    
    60   37   36 ar   
    61   41   36 ar   
    62   38   37 ar   
    63   39   38 ar   
    64   61   38 1    
    65   40   39 ar   
    66   41   40 ar   
    67   44   40 1    
    68   42   41 1    
    69   43   42 2    
    70   62   43 1    
    71   63   44 1    
    72   64   44 1    
@<TRIPOS>SUBSTRUCTURE
     1 DND999      1 GROUP   
@<TRIPOS>SET

