#    Name: 1xur_PB5_1_INTS_M
#    Modification time : Tue Mar 25 10:42:10 2014

@<TRIPOS>MOLECULE
1xur_PB5_1_INTS_M
   68     0     9     0     0
SMALL
NO_CHARGES


@<TRIPOS>ATOM
      1 CA        -11.6060   26.0235   46.3660 C.3       3 GLC5        0.0000 
      2 CA        -11.8390   27.3620   44.9950 C.3       9 GLL5        0.0000 
      3 CA        -11.3730   24.6850   47.7370 C.3       6 GLP5        0.0000 
      4 CA        -11.9600   27.1830   47.5620 C.3       3 GLC5        0.0000 
      5 CA        -11.2640   27.9440   46.1050 C.3       9 GLL5        0.0000 
      6 CA        -12.6560   26.4220   49.0190 C.3       6 GLP5        0.0000 
      7 CA        -12.8390   29.1370   47.1625 C.3       3 GLC5        0.0000 
      8 CA        -14.4140   30.3300   48.2200 C.3       6 GLP5        0.0000 
      9 CA        -10.6320   26.3435   46.9600 C.3       3 GLC5        0.0000 
     10 CA         -9.8910   28.0020   46.1830 C.3       9 GLL5        0.0000 
     11 CA         -7.9405   27.0000   45.8030 C.3       3 GLC5        0.0000 
     12 CA         -5.9900   25.9980   45.4230 C.3       6 GLP5        0.0000 
     13 CA         -6.5970   27.4060   47.0580 C.3       3 GLC5        0.0000 
     14 CA         -7.2040   28.8140   48.6930 C.3       9 GLL5        0.0000 
     15 CA         -5.6230   29.9465   47.8330 C.3       3 GLC5        0.0000 
     16 CA         -4.0420   31.0790   46.9730 C.3       6 GLP5        0.0000 
     17 CA        -14.3245   23.8465   48.2745 C.3       3 GLC5        0.0000 
     18 CA        -15.9670   23.6480   46.7810 C.3       9 GLL5        0.0000 
     19 CA        -12.6820   24.0450   49.7680 C.3       6 GLP5        0.0000 
     20 CA         -7.9800   25.4255   48.4685 C.3       3 GLC5        0.0000 
     21 CA         -8.1990   26.8560   49.9990 C.3       9 GLL5        0.0000 
     22 CA         -7.7610   23.9950   46.9380 C.3       6 GLP5        0.0000 
     23 CA         -6.3575   25.5585   51.6960 C.3       3 GLC5        0.0000 
     24 CA         -7.7090   26.5020   52.3400 C.3       9 GLL5        0.0000 
     25 CA         -5.0060   24.6150   51.0520 C.3       6 GLP5        0.0000 
     26 CA         -6.3045   30.4640   51.5475 C.3       3 GLC5        0.0000 
     27 CA         -6.7090   28.4050   51.1400 C.3       9 GLL5        0.0000 
     28 CA         -5.9000   32.5230   51.9550 C.3       6 GLP5        0.0000 
     29 CA         -7.8265   26.4495   44.7345 C.3       3 GLC5        0.0000 
     30 CA         -9.6630   26.9010   44.0460 C.3       9 GLL5        0.0000 
     31 CA         -8.4730   26.6210   42.4290 C.3       3 GLC5        0.0000 
     32 CA         -7.2830   26.3410   40.8120 C.3       6 GLP5        0.0000 
     33 O          -6.7995   28.5115   46.3915 O.2       1 ALC1        0.0000 
     34 O          -7.9450   28.2920   47.5220 O.2       7 ALL1        0.0000 
     35 O          -5.6540   28.7310   45.2610 O.2       4 ALP1        0.0000 
     36 CA        -16.4840   27.0205   42.3765 C.3       3 GLC5        0.0000 
     37 CA        -15.2520   26.1090   43.8640 C.3       9 GLL5        0.0000 
     38 CA        -17.7160   27.9320   40.8890 C.3       6 GLP5        0.0000 
     39 CA        -13.8250   24.4415   43.8580 C.3       3 GLC5        0.0000 
     40 CA        -12.3980   22.7740   43.8520 C.3       6 GLP5        0.0000 
     41 CA        -15.5055   22.1535   44.3685 C.3       3 GLC5        0.0000 
     42 CA        -16.7560   22.6860   46.1310 C.3       9 GLL5        0.0000 
     43 CA        -14.2550   21.6210   42.6060 C.3       6 GLP5        0.0000 
     44 CA        -14.0710   25.5865   47.5290 C.3       3 GLC5        0.0000 
     45 CA        -15.4860   24.7510   46.0390 C.3       9 GLL5        0.0000 
     46 N         -14.5905   29.2605   45.7115 N.am      2 SEC2        0.0000 
     47 N         -14.1120   27.9570   45.5400 N.am      8 SEL2        0.0000 
     48 N         -15.0690   30.5640   45.8830 N.am      5 SEP2        0.0000 
     49 N         -14.7150   28.6675   44.3650 N.am      2 SEC2        0.0000 
     50 N         -15.3180   29.3780   43.1900 N.am      5 SEP2        0.0000 
     51 N         -10.1065   30.3280   49.0035 N.am      2 SEC2        0.0000 
     52 N          -9.8000   29.3030   48.2140 N.am      8 SEL2        0.0000 
     53 N         -10.4130   31.3530   49.7930 N.am      5 SEP2        0.0000 
     54 CA        -12.4662   29.2120   44.5480 C.3       3 GLC5        0.0000 
     55 CA        -13.3810   30.7710   43.5460 C.3       6 GLP5        0.0000 
     56 CA         -6.0230   26.4120   50.8025 C.3       3 GLC5        0.0000 
     57 CA         -7.3710   28.0130   49.9660 C.3       9 GLL5        0.0000 
     58 CA        -15.2132   23.0263   43.4695 C.3       3 GLC5        0.0000 
     59 CA        -15.7770   24.9150   44.6530 C.3       9 GLL5        0.0000 
     60 CA        -10.0620   25.8110   49.8520 C.3       3 GLC5        0.0000 
     61 CA        -11.8380   25.1430   49.1180 C.3       6 GLP5        0.0000 
     62 CA         -7.1895   25.0560   50.6655 C.3       3 GLC5        0.0000 
     63 CA         -6.0930   23.6330   50.7450 C.3       6 GLP5        0.0000 
     64 CA         -8.9135   24.6795   52.3537 C.3       3 GLC5        0.0000 
     65 CA         -8.3730   26.1020   51.1730 C.3       9 GLL5        0.0000 
     66 CA         -9.7860   23.0570   52.9510 C.3       6 GLP5        0.0000 
     67 CA         -8.2501   29.3824   51.1236 C.3       3 GLC5        0.0000 
     68 CA         -9.2740   30.7450   51.8450 C.3       6 GLP5        0.0000 
@<TRIPOS>BOND
@<TRIPOS>SUBSTRUCTURE
     1 ALC1       33 GROUP        1 X    ALC  0     ROOT ALC X 1
     2 SEC2       46 GROUP        1 X    SEC  0     **** SEC X 2
     3 GLC5        1 GROUP        1 X    GLC  0     **** GLC X 6
     4 ALP1       35 GROUP        1 Y    ALP  0     ROOT ALP Y 8
     5 SEP2       48 GROUP        1 Y    SEP  0     **** SEP Y 9
     6 GLP5        3 GROUP        1 Y    GLP  0     **** GLP Y 13
     7 ALL1       34 GROUP        1 Z    ALL  0     ROOT ALL Z 15
     8 SEL2       47 GROUP        1 Z    SEL  0     **** SEL Z 16
     9 GLL5        2 GROUP        1 Z    GLL  0     **** GLL Z 20
@<TRIPOS>SET

