#    Name: 1xur_PB5_1_ligand
#    Modification time : Tue Mar 25 10:42:10 2014

@<TRIPOS>MOLECULE
1xur_PB5_1_ligand
   42    44     1     0     0
SMALL
NO_CHARGES


@<TRIPOS>ATOM
      1 C1        -11.8390   27.3620   44.9950 C.ar      1 PB52001     0.0000 
      2 C2        -11.2640   27.9440   46.1050 C.ar      1 PB52001     0.0000 
      3 C3         -9.8910   28.0020   46.1830 C.ar      1 PB52001     0.0000 
      4 N6        -11.0400   26.8450   43.9760 N.ar      1 PB52001     0.0000 
      5 C9         -9.2680   28.5980   47.3590 C.2       1 PB52001     0.0000 
      6 C11        -7.2040   28.8140   48.6930 C.3       1 PB52001     0.0000 
      7 C12        -7.3710   28.0130   49.9660 C.ar      1 PB52001     0.0000 
      8 C15       -13.2980   27.2780   44.9040 C.2       1 PB52001     0.0000 
      9 C21       -16.5660   23.9480   44.0130 C.ar      1 PB52001     0.0000 
     10 C24       -15.9670   23.6480   46.7810 C.ar      1 PB52001     0.0000 
     11 C30        -8.1990   26.8560   49.9990 C.ar      1 PB52001     0.0000 
     12 C31        -8.3730   26.1020   51.1730 C.ar      1 PB52001     0.0000 
     13 C32        -7.7090   26.5020   52.3400 C.ar      1 PB52001     0.0000 
     14 C34        -6.7090   28.4050   51.1400 C.ar      1 PB52001     0.0000 
     15 N4         -9.0910   27.4840   45.1630 N.ar      1 PB52001     0.0000 
     16 C5         -9.6630   26.9010   44.0460 C.ar      1 PB52001     0.0000 
     17 N10        -7.9450   28.2920   47.5220 N.am      1 PB52001     0.0000 
     18 N16       -13.8020   26.3210   44.0370 N.am      1 PB52001     0.0000 
     19 C17       -15.2520   26.1090   43.8640 C.3       1 PB52001     0.0000 
     20 C18       -15.7770   24.9150   44.6530 C.ar      1 PB52001     0.0000 
     21 N22       -17.0470   22.8440   44.7570 N.ar      1 PB52001     0.0000 
     22 C23       -16.7560   22.6860   46.1310 C.ar      1 PB52001     0.0000 
     23 C25       -15.4860   24.7510   46.0390 C.ar      1 PB52001     0.0000 
     24 N33        -6.8860   27.6440   52.3100 N.ar      1 PB52001     0.0000 
     25 O41       -14.1120   27.9570   45.5400 O.2       1 PB52001     0.0000 
     26 O42        -9.8000   29.3030   48.2140 O.2       1 PB52001     0.0000 
     27 H         -11.8470   28.3246   46.8547 H         1 PB52001     0.0000 
     28 H          -6.1175   28.8698   48.4537 H         1 PB52001     0.0000 
     29 H          -7.5162   29.8639   48.8957 H         1 PB52001     0.0000 
     30 H         -16.7933   24.0338   43.0254 H         1 PB52001     0.0000 
     31 H         -15.7433   23.5574   47.7661 H         1 PB52001     0.0000 
     32 H          -8.6826   26.5680   49.1324 H         1 PB52001     0.0000 
     33 H          -8.9713   25.2804   51.1726 H         1 PB52001     0.0000 
     34 H          -7.8187   25.9732   53.2046 H         1 PB52001     0.0000 
     35 H          -6.1102   29.2264   51.1463 H         1 PB52001     0.0000 
     36 H          -9.0833   26.5249   43.2987 H         1 PB52001     0.0000 
     37 H          -7.4255   27.7105   46.8676 H         1 PB52001     0.0000 
     38 H         -13.1768   25.7211   43.4801 H         1 PB52001     0.0000 
     39 H         -15.4897   25.9505   42.7973 H         1 PB52001     0.0000 
     40 H         -15.8095   27.0071   44.1834 H         1 PB52001     0.0000 
     41 H         -17.1165   21.8822   46.6396 H         1 PB52001     0.0000 
     42 H         -14.9051   25.4632   46.5112 H         1 PB52001     0.0000 
@<TRIPOS>BOND
     1    2    1 ar   
     2    4    1 ar   
     3    8    1 1    
     4    3    2 ar   
     5   27    2 1    
     6    5    3 1    
     7   15    3 ar   
     8   16    4 ar   
     9   17    5 am   
    10   26    5 2    
    11    7    6 1    
    12   17    6 1    
    13   28    6 1    
    14   29    6 1    
    15   11    7 ar   
    16   14    7 ar   
    17   18    8 am   
    18   25    8 2    
    19   20    9 ar   
    20   21    9 ar   
    21   30    9 1    
    22   22   10 ar   
    23   23   10 ar   
    24   31   10 1    
    25   12   11 ar   
    26   32   11 1    
    27   13   12 ar   
    28   33   12 1    
    29   24   13 ar   
    30   34   13 1    
    31   24   14 ar   
    32   35   14 1    
    33   16   15 ar   
    34   36   16 1    
    35   37   17 1    
    36   19   18 1    
    37   38   18 1    
    38   20   19 1    
    39   39   19 1    
    40   40   19 1    
    41   23   20 ar   
    42   22   21 ar   
    43   41   22 1    
    44   42   23 1    
@<TRIPOS>SUBSTRUCTURE
     1 PB52001     1 GROUP   
@<TRIPOS>SET

