#    Name: 3srs_M23_1_INTS_M
#    Modification time : Mon Mar 24 18:08:09 2014

@<TRIPOS>MOLECULE
3srs_M23_1_INTS_M
   70     0     9     0     0
SMALL
NO_CHARGES


@<TRIPOS>ATOM
      1 CA         -7.2760   37.2490   -4.4170 C.3       3 GLC5        0.0000 
      2 CA         -7.8990   36.4540   -6.3690 C.3       9 GLL5        0.0000 
      3 CA         -6.6530   38.0440   -2.4650 C.3       6 GLP5        0.0000 
      4 CA         -4.8515   28.0055   -2.0255 C.3       3 GLC5        0.0000 
      5 CA         -4.1400   28.6940   -3.8980 C.3       9 GLL5        0.0000 
      6 CA         -5.5630   27.3170   -0.1530 C.3       6 GLP5        0.0000 
      7 CA         -3.8545   26.7080   -3.9205 C.3       3 GLC5        0.0000 
      8 CA         -3.5690   24.7220   -3.9430 C.3       6 GLP5        0.0000 
      9 CA         -5.9035   27.5620   -2.3615 C.3       3 GLC5        0.0000 
     10 CA         -6.2440   27.8070   -4.5700 C.3       9 GLL5        0.0000 
     11 CA         -4.9065   26.2645   -4.2565 C.3       3 GLC5        0.0000 
     12 CA         -6.3765   26.5755   -6.1620 C.3       3 GLC5        0.0000 
     13 CA         -6.5090   25.3440   -7.7540 C.3       6 GLP5        0.0000 
     14 CA         -7.2600   28.7870   -3.5990 C.3       3 GLC5        0.0000 
     15 CA         -8.2760   29.7670   -2.6280 C.3       6 GLP5        0.0000 
     16 N          -7.7265   28.6315   -6.0170 N.am      2 SEC2        0.0000 
     17 N          -6.5390   28.8720   -5.3660 N.am      8 SEL2        0.0000 
     18 N          -8.9140   28.3910   -6.6680 N.am      5 SEP2        0.0000 
     19 O          -2.6900   27.4210   -2.6000 O.2       1 ALC1        0.0000 
     20 O          -2.9800   28.6040   -3.2310 O.2       7 ALL1        0.0000 
     21 O          -2.4000   26.2380   -1.9690 O.2       4 ALP1        0.0000 
     22 O          -1.7425   29.2550   -3.1940 O.2       1 ALC1        0.0000 
     23 O          -0.5050   29.9060   -3.1570 O.2       4 ALP1        0.0000 
     24 O          -8.3945   26.6860   -5.1085 O.2       1 ALC1        0.0000 
     25 O          -7.1510   26.8040   -4.5000 O.2       7 ALL1        0.0000 
     26 O          -9.6380   26.5680   -5.7170 O.2       4 ALP1        0.0000 
     27 O          -8.0325   27.5975   -5.5840 O.2       1 ALC1        0.0000 
     28 O          -8.9140   28.3910   -6.6680 O.2       4 ALP1        0.0000 
     29 O          -7.5475   25.6585   -3.5340 O.2       1 ALC1        0.0000 
     30 O          -7.9440   24.5130   -2.5680 O.2       4 ALP1        0.0000 
     31 CA         -0.9260   33.3645   -5.3760 C.3       3 GLC5        0.0000 
     32 CA         -2.7510   33.1460   -5.6110 C.3       9 GLL5        0.0000 
     33 CA          0.8990   33.5830   -5.1410 C.3       6 GLP5        0.0000 
     34 CA         -2.7850   35.0270   -5.8705 C.3       3 GLC5        0.0000 
     35 CA         -2.8190   36.9080   -6.1300 C.3       6 GLP5        0.0000 
     36 CA         -2.9180   33.3310   -3.9325 C.3       3 GLC5        0.0000 
     37 CA         -3.0850   33.5160   -2.2540 C.3       6 GLP5        0.0000 
     38 CA         -1.4490   31.6675   -5.9575 C.3       3 GLC5        0.0000 
     39 CA         -0.1470   30.1890   -6.3040 C.3       6 GLP5        0.0000 
     40 CA         -4.7815   32.3760   -9.5440 C.3       3 GLC5        0.0000 
     41 CA         -4.4760   33.7510   -8.2430 C.3       9 GLL5        0.0000 
     42 CA         -5.0870   31.0010  -10.8450 C.3       6 GLP5        0.0000 
     43 CA         -5.6230   33.0415   -9.4970 C.3       3 GLC5        0.0000 
     44 CA         -4.7620   34.9980   -8.8220 C.3       9 GLL5        0.0000 
     45 CA         -6.4840   31.0850  -10.1720 C.3       6 GLP5        0.0000 
     46 CA         -1.9705   33.4090  -11.6180 C.3       3 GLC5        0.0000 
     47 CA         -2.5020   33.3240   -9.6190 C.3       9 GLL5        0.0000 
     48 CA         -1.4390   33.4940  -13.6170 C.3       6 GLP5        0.0000 
     49 CA         -3.7945   32.1625  -10.2320 C.3       3 GLC5        0.0000 
     50 CA         -0.1245   33.4990   -7.0515 C.3       3 GLC5        0.0000 
     51 CA         -1.1480   33.4150   -8.9620 C.3       9 GLL5        0.0000 
     52 CA         -8.2890   34.2755   -6.8378 C.3       3 GLC5        0.0000 
     53 CA         -6.5230   35.3980   -7.1660 C.3       9 GLL5        0.0000 
     54 CA         -9.3670   32.6250   -6.9080 C.3       6 GLP5        0.0000 
     55 CA         -6.2755   29.5295   -3.4720 C.3       3 GLC5        0.0000 
     56 CA         -4.4100   29.8900   -4.7340 C.3       9 GLL5        0.0000 
     57 CA         -7.0553   30.1217   -4.2475 C.3       3 GLC5        0.0000 
     58 CA         -5.6780   29.9190   -5.4720 C.3       9 GLL5        0.0000 
     59 CA         -7.4455   32.0898   -6.6010 C.3       3 GLC5        0.0000 
     60 CA         -5.9910   31.0340   -6.2620 C.3       9 GLL5        0.0000 
     61 CA         -5.9467   31.7631   -8.4305 C.3       3 GLC5        0.0000 
     62 CA         -7.5720   33.1900   -6.8648 C.3       3 GLC5        0.0000 
     63 CA         -5.2950   33.3280   -7.0840 C.3       9 GLL5        0.0000 
     64 CA         -3.8523   35.2237   -6.8967 C.3       3 GLC5        0.0000 
     65 CA         -4.0440   36.1543   -7.3400 C.3       3 GLC5        0.0000 
     66 CA         -4.6050   35.8490   -6.4962 C.3       3 GLC5        0.0000 
     67 CA         -0.6700   34.9608   -9.4958 C.3       3 GLC5        0.0000 
     68 CA          0.4850   36.5520   -9.7010 C.3       6 GLP5        0.0000 
     69 CA         -0.3185   32.3353   -9.8507 C.3       3 GLC5        0.0000 
     70 CA          1.1880   31.3010  -10.4110 C.3       6 GLP5        0.0000 
@<TRIPOS>BOND
@<TRIPOS>SUBSTRUCTURE
     1 ALC1       19 GROUP        1 X    ALC  0     ROOT ALC X 1
     2 SEC2       16 GROUP        1 X    SEC  0     **** SEC X 2
     3 GLC5        1 GROUP        1 X    GLC  0     **** GLC X 6
     4 ALP1       21 GROUP        1 Y    ALP  0     ROOT ALP Y 8
     5 SEP2       18 GROUP        1 Y    SEP  0     **** SEP Y 9
     6 GLP5        3 GROUP        1 Y    GLP  0     **** GLP Y 13
     7 ALL1       20 GROUP        1 Z    ALL  0     ROOT ALL Z 15
     8 SEL2       17 GROUP        1 Z    SEL  0     **** SEL Z 16
     9 GLL5        2 GROUP        1 Z    GLL  0     **** GLL Z 20
@<TRIPOS>SET

