#    Name: 3srs_M23_1_ligand
#    Modification time : Mon Mar 24 18:08:09 2014

@<TRIPOS>MOLECULE
3srs_M23_1_ligand
   40    42     1     0     0
SMALL
NO_CHARGES


@<TRIPOS>ATOM
      1 BR         -7.8990   36.4540   -6.3690 Br        1 M23168      0.0000 
      2 C1         -4.1400   28.6940   -3.8980 C.ar      1 M23168      0.0000 
      3 N2         -5.0850   27.7200   -3.8700 N.ar      1 M23168      0.0000 
      4 C3         -6.2440   27.8070   -4.5700 C.ar      1 M23168      0.0000 
      5 N4         -6.5390   28.8720   -5.3660 N.ar      1 M23168      0.0000 
      6 C5         -5.6780   29.9190   -5.4720 C.ar      1 M23168      0.0000 
      7 C6         -4.4100   29.8900   -4.7340 C.ar      1 M23168      0.0000 
      8 C7         -3.4830   30.9310   -4.7860 C.ar      1 M23168      0.0000 
      9 C8         -3.7800   32.0350   -5.5720 C.ar      1 M23168      0.0000 
     10 C9         -5.0570   32.0750   -6.3260 C.ar      1 M23168      0.0000 
     11 C10        -5.9910   31.0340   -6.2620 C.ar      1 M23168      0.0000 
     12 N11        -2.9800   28.6040   -3.2310 N.pl3     1 M23168      0.0000 
     13 N12        -7.1510   26.8040   -4.5000 N.pl3     1 M23168      0.0000 
     14 C13        -2.7510   33.1460   -5.6110 C.3       1 M23168      0.0000 
     15 C14        -5.2950   33.3280   -7.0840 C.ar      1 M23168      0.0000 
     16 C15        -4.4760   33.7510   -8.2430 C.ar      1 M23168      0.0000 
     17 C16        -4.7620   34.9980   -8.8220 C.ar      1 M23168      0.0000 
     18 C17        -5.7760   35.8030   -8.2780 C.ar      1 M23168      0.0000 
     19 C18        -6.5230   35.3980   -7.1660 C.ar      1 M23168      0.0000 
     20 C19        -6.2590   34.1820   -6.5590 C.ar      1 M23168      0.0000 
     21 O21        -3.4970   32.8970   -8.6730 O.3       1 M23168      0.0000 
     22 C22        -2.5020   33.3240   -9.6190 C.3       1 M23168      0.0000 
     23 C23        -1.1480   33.4150   -8.9620 C.3       1 M23168      0.0000 
     24 H          -2.6150   30.8789   -4.2613 H         1 M23168      0.0000 
     25 H          -6.8634   31.0840   -6.7689 H         1 M23168      0.0000 
     26 H          -2.8285   27.7553   -2.7243 H         1 M23168      0.0000 
     27 H          -2.3703   29.3937   -3.3000 H         1 M23168      0.0000 
     28 H          -6.9269   26.0505   -3.8819 H         1 M23168      0.0000 
     29 H          -7.9645   26.9057   -5.0726 H         1 M23168      0.0000 
     30 H          -4.2342   35.3186   -9.6363 H         1 M23168      0.0000 
     31 H          -5.9753   36.7230   -8.7140 H         1 M23168      0.0000 
     32 H          -6.7792   33.9051   -5.7117 H         1 M23168      0.0000 
     33 H          -2.7503   34.3114  -10.0372 H         1 M23168      0.0000 
     34 H          -2.4301   32.6214  -10.4631 H         1 M23168      0.0000 
     35 H          -1.8709   32.8250   -5.9608 H         1 M23168      0.0000 
     36 H          -3.0420   33.9013   -6.1983 H         1 M23168      0.0000 
     37 H          -2.5833   33.5289   -4.7026 H         1 M23168      0.0000 
     38 H          -0.4414   33.7073   -9.6064 H         1 M23168      0.0000 
     39 H          -1.1450   34.0703   -8.2067 H         1 M23168      0.0000 
     40 H          -0.8570   32.5346   -8.5874 H         1 M23168      0.0000 
@<TRIPOS>BOND
     1   19    1 1    
     2    3    2 ar   
     3    7    2 ar   
     4   12    2 1    
     5    4    3 ar   
     6    5    4 ar   
     7   13    4 1    
     8    6    5 ar   
     9    7    6 ar   
    10   11    6 ar   
    11    8    7 ar   
    12    9    8 ar   
    13   24    8 1    
    14   10    9 ar   
    15   14    9 1    
    16   11   10 ar   
    17   15   10 1    
    18   25   11 1    
    19   26   12 1    
    20   27   12 1    
    21   28   13 1    
    22   29   13 1    
    23   35   14 1    
    24   36   14 1    
    25   37   14 1    
    26   16   15 ar   
    27   20   15 ar   
    28   17   16 ar   
    29   21   16 1    
    30   18   17 ar   
    31   30   17 1    
    32   19   18 ar   
    33   31   18 1    
    34   20   19 ar   
    35   32   20 1    
    36   22   21 1    
    37   23   22 1    
    38   33   22 1    
    39   34   22 1    
    40   38   23 1    
    41   39   23 1    
    42   40   23 1    
@<TRIPOS>SUBSTRUCTURE
     1 M23168      1 GROUP   
@<TRIPOS>SET

