#    Name: 3ro9_06U_2_INTS_M
#    Modification time : Tue Mar 25 11:44:33 2014

@<TRIPOS>MOLECULE
3ro9_06U_2_INTS_M
   87     0     9     0     0
SMALL
NO_CHARGES


@<TRIPOS>ATOM
      1 CA         32.9415    4.8530   33.8675 C.3       3 GLC5        0.0000 
      2 CA         31.8780    4.7670   35.7710 C.3       9 GLL5        0.0000 
      3 CA         34.0050    4.9390   31.9640 C.3       6 GLP5        0.0000 
      4 CA         31.4395    3.3245   34.4070 C.3       3 GLC5        0.0000 
      5 CA         31.0010    1.8820   33.0430 C.3       6 GLP5        0.0000 
      6 CA         31.5395    3.2315   36.7835 C.3       3 GLC5        0.0000 
      7 CA         31.2010    1.6960   37.7960 C.3       6 GLP5        0.0000 
      8 CA         32.5965    6.5385   36.1075 C.3       3 GLC5        0.0000 
      9 CA         33.3150    8.3100   36.4440 C.3       6 GLP5        0.0000 
     10 N          31.7395    5.0280   38.1675 N.am      2 SEC2        0.0000 
     11 N          31.2820    5.2960   36.9240 N.am      8 SEL2        0.0000 
     12 N          32.1970    4.7600   39.4110 N.am      5 SEP2        0.0000 
     13 CA         30.5240    3.7535   33.7450 C.3       3 GLC5        0.0000 
     14 CA         30.0470    5.6250   34.4470 C.3       9 GLL5        0.0000 
     15 CA         24.5735   12.7760   39.9680 C.3       3 GLC5        0.0000 
     16 CA         26.6030   12.3280   39.9460 C.3       9 GLL5        0.0000 
     17 CA         22.5440   13.2240   39.9900 C.3       6 GLP5        0.0000 
     18 O          33.5090    4.0900   37.1030 O.2       1 ALC1        0.0000 
     19 O          33.0310    4.1110   35.8560 O.2       7 ALL1        0.0000 
     20 O          33.9870    4.0690   38.3500 O.2       4 ALP1        0.0000 
     21 CA         27.7965    6.2360   39.3470 C.3       3 GLC5        0.0000 
     22 CA         29.4610    6.5320   38.1560 C.3       9 GLL5        0.0000 
     23 CA         26.1320    5.9400   40.5380 C.3       6 GLP5        0.0000 
     24 O          30.0285    4.7980   32.1730 O.2       1 ALC1        0.0000 
     25 O          29.4700    5.7790   33.2570 O.2       7 ALL1        0.0000 
     26 O          30.5870    3.8170   31.0890 O.2       4 ALP1        0.0000 
     27 O          28.3715    6.0930   32.3625 O.2       1 ALC1        0.0000 
     28 O          27.2730    6.4070   31.4680 O.2       4 ALP1        0.0000 
     29 CA         29.6745    7.7990   34.4530 C.3       3 GLC5        0.0000 
     30 CA         28.2130    6.8670   35.5080 C.3       9 GLL5        0.0000 
     31 CA         31.1360    8.7310   33.3980 C.3       6 GLP5        0.0000 
     32 CA         28.7925    8.6915   34.5830 C.3       3 GLC5        0.0000 
     33 CA         27.1490    7.4920   35.4510 C.3       9 GLL5        0.0000 
     34 CA         30.4360    9.8910   33.7150 C.3       6 GLP5        0.0000 
     35 CA         25.4590    6.4620   34.4030 C.3       3 GLC5        0.0000 
     36 CA         25.8650    8.2090   35.3480 C.3       9 GLL5        0.0000 
     37 CA         25.0530    4.7150   33.4580 C.3       6 GLP5        0.0000 
     38 CA         24.9645   10.7205   34.1290 C.3       3 GLC5        0.0000 
     39 CA         25.9240    9.1820   34.1690 C.3       9 GLL5        0.0000 
     40 CA         24.0050   12.2590   34.0890 C.3       6 GLP5        0.0000 
     41 CA         26.6830    9.7760   32.4695 C.3       3 GLC5        0.0000 
     42 CA         27.4420   10.3700   30.7700 C.3       6 GLP5        0.0000 
     43 CA         23.3115   11.4230   38.1365 C.3       3 GLC5        0.0000 
     44 CA         24.8850   10.3000   39.0210 C.3       9 GLL5        0.0000 
     45 CA         21.7380   12.5460   37.2520 C.3       6 GLP5        0.0000 
     46 CA         23.7145   11.7620   39.5055 C.3       3 GLC5        0.0000 
     47 CA         27.0850   15.3235   38.5635 C.3       3 GLC5        0.0000 
     48 CA         28.2450   13.6240   38.1810 C.3       9 GLL5        0.0000 
     49 CA         25.9250   17.0230   38.9460 C.3       6 GLP5        0.0000 
     50 CA         29.3250   13.0995   40.2575 C.3       3 GLC5        0.0000 
     51 CA         27.3610   13.4390   40.3190 C.3       9 GLL5        0.0000 
     52 CA         31.2890   12.7600   40.1960 C.3       6 GLP5        0.0000 
     53 CA         26.6430   15.2310   39.6325 C.3       3 GLC5        0.0000 
     54 CA         30.5170    8.8220   39.9855 C.3       3 GLC5        0.0000 
     55 CA         30.4300    7.4480   38.8970 C.3       9 GLL5        0.0000 
     56 CA         30.6040   10.1960   41.0740 C.3       6 GLP5        0.0000 
     57 CA         31.8725    7.8790   37.6705 C.3       3 GLC5        0.0000 
     58 CA         21.2105    6.0815   39.6035 C.3       3 GLC5        0.0000 
     59 CA         22.4760    7.5660   38.9410 C.3       9 GLL5        0.0000 
     60 CA         19.9450    4.5970   40.2660 C.3       6 GLP5        0.0000 
     61 CA         23.7235    6.3045   39.5500 C.3       3 GLC5        0.0000 
     62 CA         24.9710    5.0430   40.1590 C.3       6 GLP5        0.0000 
     63 CA         21.0210    8.0080   37.8395 C.3       3 GLC5        0.0000 
     64 CA         19.5660    8.4500   36.7380 C.3       6 GLP5        0.0000 
     65 CA         31.5377    7.1932   36.3327 C.3       3 GLC5        0.0000 
     66 CA         29.4570    6.1550   35.5970 C.3       9 GLL5        0.0000 
     67 CA         28.6520   11.6442   39.4277 C.3       3 GLC5        0.0000 
     68 CA         26.6870   11.8570   38.6370 C.3       9 GLL5        0.0000 
     69 CA         30.6590   11.1960   39.5640 C.3       6 GLP5        0.0000 
     70 CA         26.9385    5.7138   34.7943 C.3       3 GLC5        0.0000 
     71 CA         26.1960    4.2480   34.1090 C.3       6 GLP5        0.0000 
     72 CA         24.4847    8.2033   33.6262 C.3       3 GLC5        0.0000 
     73 CA         23.0750    7.7110   32.4940 C.3       6 GLP5        0.0000 
     74 CA         24.4947   10.2285   35.6847 C.3       3 GLC5        0.0000 
     75 CA         23.2910   11.8730   35.3690 C.3       6 GLP5        0.0000 
     76 CA         25.2153    7.3998   39.2867 C.3       3 GLC5        0.0000 
     77 CA         24.4610    8.5270   37.4410 C.3       9 GLL5        0.0000 
     78 CA         23.7948   10.3662   36.7022 C.3       3 GLC5        0.0000 
     79 CA         24.1360    9.1920   38.6300 C.3       9 GLL5        0.0000 
     80 CA         24.7015   11.1402   36.5065 C.3       3 GLC5        0.0000 
     81 CA         26.2750   10.0700   37.0530 C.3       9 GLL5        0.0000 
     82 CA         25.4210   13.0862   37.4305 C.3       3 GLC5        0.0000 
     83 CA         23.7390   13.9840   36.6730 C.3       6 GLP5        0.0000 
     84 CA         29.2705   12.1340   38.7620 C.3       3 GLC5        0.0000 
     85 CA         27.5190   12.5200   37.7390 C.3       9 GLL5        0.0000 
     86 CA         27.8555   13.9585   36.3970 C.3       3 GLC5        0.0000 
     87 CA         27.8290   14.8450   34.8340 C.3       6 GLP5        0.0000 
@<TRIPOS>BOND
@<TRIPOS>SUBSTRUCTURE
     1 ALC1       18 GROUP        1 X    ALC  0     ROOT ALC X 1
     2 SEC2       10 GROUP        1 X    SEC  0     **** SEC X 2
     3 GLC5        1 GROUP        1 X    GLC  0     **** GLC X 6
     4 ALP1       20 GROUP        1 Y    ALP  0     ROOT ALP Y 8
     5 SEP2       12 GROUP        1 Y    SEP  0     **** SEP Y 9
     6 GLP5        3 GROUP        1 Y    GLP  0     **** GLP Y 13
     7 ALL1       19 GROUP        1 Z    ALL  0     ROOT ALL Z 15
     8 SEL2       11 GROUP        1 Z    SEL  0     **** SEL Z 16
     9 GLL5        2 GROUP        1 Z    GLL  0     **** GLL Z 20
@<TRIPOS>SET

