#    Name: 3ro9_06U_2_ligand
#    Modification time : Tue Mar 25 11:44:33 2014

@<TRIPOS>MOLECULE
3ro9_06U_2_ligand
   51    53     1     0     0
SMALL
NO_CHARGES


@<TRIPOS>ATOM
      1 N1         31.2580    4.9330   34.5320 N.ar      1 06U1        0.0000 
      2 C2         31.8780    4.7670   35.7710 C.ar      1 06U1        0.0000 
      3 N3         31.2820    5.2960   36.9240 N.ar      1 06U1        0.0000 
      4 C4         30.0640    5.9980   36.8460 C.ar      1 06U1        0.0000 
      5 C5         29.4570    6.1550   35.5970 C.ar      1 06U1        0.0000 
      6 C6         30.0470    5.6250   34.4470 C.ar      1 06U1        0.0000 
      7 CAA        26.6030   12.3280   39.9460 C.ar      1 06U1        0.0000 
      8 NAH        33.0310    4.1110   35.8560 N.pl3     1 06U1        0.0000 
      9 CAI        29.4610    6.5320   38.1560 C.3       1 06U1        0.0000 
     10 NAJ        29.4700    5.7790   33.2570 N.pl3     1 06U1        0.0000 
     11 CAK        28.2130    6.8670   35.5080 C.1       1 06U1        0.0000 
     12 CAL        27.1490    7.4920   35.4510 C.1       1 06U1        0.0000 
     13 CAM        25.8650    8.2090   35.3480 C.3       1 06U1        0.0000 
     14 CAN        25.9240    9.1820   34.1690 C.3       1 06U1        0.0000 
     15 CAO        25.5320    8.9590   36.6530 C.ar      1 06U1        0.0000 
     16 CAP        24.4610    8.5270   37.4410 C.ar      1 06U1        0.0000 
     17 CAQ        24.1360    9.1920   38.6300 C.ar      1 06U1        0.0000 
     18 CAR        24.8850   10.3000   39.0210 C.ar      1 06U1        0.0000 
     19 CAS        25.9490   10.7450   38.2350 C.ar      1 06U1        0.0000 
     20 CAT        26.2750   10.0700   37.0530 C.ar      1 06U1        0.0000 
     21 CAU        26.6870   11.8570   38.6370 C.ar      1 06U1        0.0000 
     22 CAV        27.5190   12.5200   37.7390 C.ar      1 06U1        0.0000 
     23 CAW        28.2450   13.6240   38.1810 C.ar      1 06U1        0.0000 
     24 NAX        28.1500   14.0490   39.4370 N.ar      1 06U1        0.0000 
     25 CAY        27.3610   13.4390   40.3190 C.ar      1 06U1        0.0000 
     26 CAZ        30.4300    7.4480   38.8970 C.3       1 06U1        0.0000 
     27 OBA        23.0920    8.7780   39.4200 O.3       1 06U1        0.0000 
     28 CBB        22.4760    7.5660   38.9410 C.3       1 06U1        0.0000 
     29 H          25.9949   11.8668   40.6242 H         1 06U1        0.0000 
     30 H          33.3978    3.7529   34.9974 H         1 06U1        0.0000 
     31 H          33.4275    4.0348   36.7709 H         1 06U1        0.0000 
     32 H          29.2010    5.6857   38.7963 H         1 06U1        0.0000 
     33 H          28.5462    7.0830   37.9252 H         1 06U1        0.0000 
     34 H          28.5842    6.2430   33.2542 H         1 06U1        0.0000 
     35 H          29.9744    5.4167   32.4732 H         1 06U1        0.0000 
     36 H          25.0644    7.5014   35.1540 H         1 06U1        0.0000 
     37 H          23.9051    7.7121   37.1453 H         1 06U1        0.0000 
     38 H          24.6532   10.7937   39.8941 H         1 06U1        0.0000 
     39 H          27.0632   10.3948   36.4803 H         1 06U1        0.0000 
     40 H          27.5962   12.2029   36.7724 H         1 06U1        0.0000 
     41 H          28.8665   14.1067   37.4924 H         1 06U1        0.0000 
     42 H          27.2889   13.7722   41.3037 H         1 06U1        0.0000 
     43 H          26.6534    9.8569   34.2806 H         1 06U1        0.0000 
     44 H          26.0927    8.7083   33.3046 H         1 06U1        0.0000 
     45 H          25.0688    9.6894   34.0631 H         1 06U1        0.0000 
     46 H          31.2770    6.9747   39.1391 H         1 06U1        0.0000 
     47 H          30.6854    8.2423   38.3457 H         1 06U1        0.0000 
     48 H          30.0354    7.7961   39.7474 H         1 06U1        0.0000 
     49 H          23.1265    6.8073   38.9067 H         1 06U1        0.0000 
     50 H          21.7193    7.2771   39.5275 H         1 06U1        0.0000 
     51 H          22.1060    7.6769   38.0186 H         1 06U1        0.0000 
@<TRIPOS>BOND
     1    2    1 ar   
     2    6    1 ar   
     3    3    2 ar   
     4    8    2 1    
     5    4    3 ar   
     6    5    4 ar   
     7    9    4 1    
     8    6    5 ar   
     9   11    5 1    
    10   10    6 1    
    11   21    7 ar   
    12   25    7 ar   
    13   29    7 1    
    14   30    8 1    
    15   31    8 1    
    16   26    9 1    
    17   32    9 1    
    18   33    9 1    
    19   34   10 1    
    20   35   10 1    
    21   12   11 3    
    22   13   12 1    
    23   14   13 1    
    24   15   13 1    
    25   36   13 1    
    26   43   14 1    
    27   44   14 1    
    28   45   14 1    
    29   16   15 ar   
    30   20   15 ar   
    31   17   16 ar   
    32   37   16 1    
    33   18   17 ar   
    34   27   17 1    
    35   19   18 ar   
    36   38   18 1    
    37   20   19 ar   
    38   21   19 1    
    39   39   20 1    
    40   22   21 ar   
    41   23   22 ar   
    42   40   22 1    
    43   24   23 ar   
    44   41   23 1    
    45   25   24 ar   
    46   42   25 1    
    47   46   26 1    
    48   47   26 1    
    49   48   26 1    
    50   28   27 1    
    51   49   28 1    
    52   50   28 1    
    53   51   28 1    
@<TRIPOS>SUBSTRUCTURE
     1 06U1        1 GROUP   
@<TRIPOS>SET

