#    Name: 3lcc_SAH_1_INTS_M
#    Modification time : Mon Mar 24 21:27:46 2014

@<TRIPOS>MOLECULE
3lcc_SAH_1_INTS_M
   74     0     9     0     0
SMALL
NO_CHARGES


@<TRIPOS>ATOM
      1 O          -6.0940   24.6285   10.8625 O.2       1 ALC1        0.0000 
      2 O          -5.9160   23.7520    9.7850 O.2       7 ALL1        0.0000 
      3 O          -6.2720   25.5050   11.9400 O.2       4 ALP1        0.0000 
      4 O          -5.2200   22.4930    9.9810 O.2       1 ALC1        0.0000 
      5 O          -4.5240   21.2340   10.1770 O.2       4 ALP1        0.0000 
      6 CA         -7.7425   25.1885   10.5285 C.3       3 GLC5        0.0000 
      7 CA         -6.4640   24.7180    8.7940 C.3       9 GLL5        0.0000 
      8 CA         -9.0210   25.6590   12.2630 C.3       6 GLP5        0.0000 
      9 CA         -3.6225   28.0910    7.2160 C.3       3 GLC5        0.0000 
     10 CA         -3.1480   27.2290    8.6530 C.3       9 GLL5        0.0000 
     11 CA         -4.0970   28.9530    5.7790 C.3       6 GLP5        0.0000 
     12 CA         -0.9765   26.7975   10.8880 C.3       3 GLC5        0.0000 
     13 CA         -2.7770   27.4600   10.3740 C.3       9 GLL5        0.0000 
     14 CA          0.8240   26.1350   11.4020 C.3       6 GLP5        0.0000 
     15 CA         -4.8185   27.2410   12.6870 C.3       3 GLC5        0.0000 
     16 CA         -3.8170   28.2240   11.1970 C.3       9 GLL5        0.0000 
     17 CA         -5.8200   26.2580   14.1770 C.3       6 GLP5        0.0000 
     18 CA         -2.4060   30.4380   10.0615 C.3       3 GLC5        0.0000 
     19 CA         -4.0050   29.6930   10.8110 C.3       9 GLL5        0.0000 
     20 CA         -0.8070   31.1830    9.3120 C.3       6 GLP5        0.0000 
     21 N          -5.7225   30.9880    9.4845 N.am      2 SEC2        0.0000 
     22 N          -5.3820   29.9190   10.4550 N.am      8 SEL2        0.0000 
     23 N          -6.0630   32.0570    8.5140 N.am      5 SEP2        0.0000 
     24 O          -6.0620   30.7250   11.8030 O.2       1 ALC1        0.0000 
     25 O          -5.3820   29.9190   10.4550 O.2       7 ALL1        0.0000 
     26 O          -6.7420   31.5310   13.1510 O.2       4 ALP1        0.0000 
     27 O          -6.2450   29.6920   11.4530 O.2       1 ALC1        0.0000 
     28 O          -7.1080   29.4650   12.4510 O.2       4 ALP1        0.0000 
     29 CA         -2.1535   31.5140   11.7760 C.3       3 GLC5        0.0000 
     30 CA         -3.5430   30.4740   12.0360 C.3       9 GLL5        0.0000 
     31 CA         -0.7640   32.5540   11.5160 C.3       6 GLP5        0.0000 
     32 O          -5.5065   31.5995   12.7395 O.2       1 ALC1        0.0000 
     33 O          -4.2710   31.6680   12.3280 O.2       7 ALL1        0.0000 
     34 CA         -4.7975   27.8625   13.6620 C.3       3 GLC5        0.0000 
     35 CA         -3.7750   29.4670   13.1470 C.3       9 GLL5        0.0000 
     36 CA         -2.8685   27.8730   14.3765 C.3       3 GLC5        0.0000 
     37 CA         -1.9620   26.2790   15.6060 C.3       6 GLP5        0.0000 
     38 CA         -3.5920   30.9395   18.1130 C.3       3 GLC5        0.0000 
     39 CA         -2.6890   29.3870   17.9260 C.3       9 GLL5        0.0000 
     40 CA         -4.4950   32.4920   18.3000 C.3       6 GLP5        0.0000 
     41 CA         -3.7610   29.9355   19.6915 C.3       3 GLC5        0.0000 
     42 CA         -4.8330   30.4840   21.4570 C.3       6 GLP5        0.0000 
     43 CA         -3.8760   27.6350   18.5895 C.3       3 GLC5        0.0000 
     44 CA         -5.0630   25.8830   19.2530 C.3       6 GLP5        0.0000 
     45 O          -1.8915   29.6895   20.2580 O.2       1 ALC1        0.0000 
     46 O          -1.7350   29.5240   18.8700 O.2       7 ALL1        0.0000 
     47 O          -2.0480   29.8550   21.6460 O.2       4 ALP1        0.0000 
     48 N          -4.2460   28.5970   19.7240 N.am      2 SEC2        0.0000 
     49 N          -3.9580   29.1040   18.2650 N.am      8 SEL2        0.0000 
     50 N          -4.5340   28.0900   21.1830 N.am      5 SEP2        0.0000 
     51 CA         -5.3755   27.6110   15.7680 C.3       3 GLC5        0.0000 
     52 CA         -4.9310   28.9640   17.3590 C.3       9 GLL5        0.0000 
     53 CA         -6.5165   29.5695   16.4685 C.3       3 GLC5        0.0000 
     54 CA         -8.1020   30.1750   15.5780 C.3       6 GLP5        0.0000 
     55 CA         -4.7130   30.7280   17.8295 C.3       3 GLC5        0.0000 
     56 CA         -4.8820   29.7240   19.4080 C.3       3 GLC5        0.0000 
     57 CA         -4.9970   27.4235   18.3060 C.3       3 GLC5        0.0000 
     58 N          -5.6470   30.5475   16.0980 N.am      2 SEC2        0.0000 
     59 N          -4.7080   29.1140   16.0400 N.am      8 SEL2        0.0000 
     60 N          -6.5860   31.9810   16.1560 N.am      5 SEP2        0.0000 
     61 CA         -4.6470   27.8285   14.8705 C.3       3 GLC5        0.0000 
     62 CA         -3.4740   29.3990   15.5640 C.3       9 GLL5        0.0000 
     63 CA         -7.2773   26.8800    9.2263 C.3       3 GLC5        0.0000 
     64 CA         -5.6190   26.0040    8.7470 C.3       9 GLL5        0.0000 
     65 CA         -8.5130   28.3990    9.6820 C.3       6 GLP5        0.0000 
     66 CA         -4.8906   26.1890    7.0601 C.3       3 GLC5        0.0000 
     67 CA         -4.6990   26.8300    5.4060 C.3       6 GLP5        0.0000 
     68 CA         -2.6427   24.8940    8.0087 C.3       3 GLC5        0.0000 
     69 CA         -4.1230   25.7350    8.6580 C.3       9 GLL5        0.0000 
     70 CA         -1.6500   23.3060    7.3620 C.3       6 GLP5        0.0000 
     71 CA         -1.5823   28.7357    9.0948 C.3       3 GLC5        0.0000 
     72 CA         -0.2020   30.1270    8.6760 C.3       6 GLP5        0.0000 
     73 CA         -3.3393   31.2690   15.9785 C.3       3 GLC5        0.0000 
     74 CA         -3.7620   33.0550   15.9280 C.3       6 GLP5        0.0000 
@<TRIPOS>BOND
@<TRIPOS>SUBSTRUCTURE
     1 ALC1        1 GROUP        1 X    ALC  0     ROOT ALC X 1
     2 SEC2       21 GROUP        1 X    SEC  0     **** SEC X 2
     3 GLC5        6 GROUP        1 X    GLC  0     **** GLC X 6
     4 ALP1        3 GROUP        1 Y    ALP  0     ROOT ALP Y 8
     5 SEP2       23 GROUP        1 Y    SEP  0     **** SEP Y 9
     6 GLP5        8 GROUP        1 Y    GLP  0     **** GLP Y 13
     7 ALL1        2 GROUP        1 Z    ALL  0     ROOT ALL Z 15
     8 SEL2       22 GROUP        1 Z    SEL  0     **** SEL Z 16
     9 GLL5        7 GROUP        1 Z    GLL  0     **** GLL Z 20
@<TRIPOS>SET

