#    Name: 3lcc_SAH_1_ligand
#    Modification time : Mon Mar 24 21:27:46 2014

@<TRIPOS>MOLECULE
3lcc_SAH_1_ligand
   46    48     1     0     0
SMALL
NO_CHARGES


@<TRIPOS>ATOM
      1 N          -5.9160   23.7520    9.7850 N.4       1 SAH300      0.0000 
      2 CA         -6.4640   24.7180    8.7940 C.3       1 SAH300      0.0000 
      3 CB         -5.6190   26.0040    8.7470 C.3       1 SAH300      0.0000 
      4 CG         -4.1230   25.7350    8.6580 C.3       1 SAH300      0.0000 
      5 SD         -3.1480   27.2290    8.6530 S.3       1 SAH300      0.0000 
      6 C          -6.5130   24.0380    7.4550 C.2       1 SAH300      0.0000 
      7 O          -6.1320   22.8570    7.3100 O.co2     1 SAH300      0.0000 
      8 OXT        -6.9640   24.6480    6.4830 O.co2     1 SAH300      0.0000 
      9 C5'        -2.7770   27.4600   10.3740 C.3       1 SAH300      0.0000 
     10 C4'        -3.8170   28.2240   11.1970 C.3       1 SAH300      0.0000 
     11 O4'        -3.3820   28.2110   12.5740 O.3       1 SAH300      0.0000 
     12 C3'        -4.0050   29.6930   10.8110 C.3       1 SAH300      0.0000 
     13 O3'        -5.3820   29.9190   10.4550 O.3       1 SAH300      0.0000 
     14 C2'        -3.5430   30.4740   12.0360 C.3       1 SAH300      0.0000 
     15 O2'        -4.2710   31.6680   12.3280 O.3       1 SAH300      0.0000 
     16 C1'        -3.7750   29.4670   13.1470 C.3       1 SAH300      0.0000 
     17 N9         -2.9750   29.6130   14.3640 N.pl3     1 SAH300      0.0000 
     18 C8         -1.6420   29.8520   14.4530 C.2       1 SAH300      0.0000 
     19 N7         -1.2540   29.8430   15.7570 N.2       1 SAH300      0.0000 
     20 C5         -2.3590   29.5670   16.4940 C.ar      1 SAH300      0.0000 
     21 C6         -2.6890   29.3870   17.9260 C.ar      1 SAH300      0.0000 
     22 N6         -1.7350   29.5240   18.8700 N.pl3     1 SAH300      0.0000 
     23 N1         -3.9580   29.1040   18.2650 N.ar      1 SAH300      0.0000 
     24 C2         -4.9310   28.9640   17.3590 C.ar      1 SAH300      0.0000 
     25 N3         -4.7080   29.1140   16.0400 N.ar      1 SAH300      0.0000 
     26 C4         -3.4740   29.3990   15.5640 C.ar      1 SAH300      0.0000 
     27 H          -7.4745   24.9850    9.0844 H         1 SAH300      0.0000 
     28 H          -5.8289   26.5953    9.6483 H         1 SAH300      0.0000 
     29 H          -5.9334   26.5994    7.8794 H         1 SAH300      0.0000 
     30 H          -3.8329   25.2548    7.7394 H         1 SAH300      0.0000 
     31 H          -3.7378   25.1987    9.5080 H         1 SAH300      0.0000 
     32 H          -1.8094   27.9647   10.3516 H         1 SAH300      0.0000 
     33 H          -2.6279   26.4399   10.7327 H         1 SAH300      0.0000 
     34 H          -4.7677   27.7202   11.1174 H         1 SAH300      0.0000 
     35 H          -3.3298   29.8956   10.0038 H         1 SAH300      0.0000 
     36 H          -2.4868   30.6180   11.9643 H         1 SAH300      0.0000 
     37 H          -4.8241   29.4280   13.3723 H         1 SAH300      0.0000 
     38 H          -1.0501   30.0070   13.6976 H         1 SAH300      0.0000 
     39 H          -2.0327   29.4041   19.8171 H         1 SAH300      0.0000 
     40 H          -0.8150   29.7333   18.5387 H         1 SAH300      0.0000 
     41 H          -5.9103   28.7274   17.6855 H         1 SAH300      0.0000 
     42 H          -6.6337   23.1801   10.1823 H         1 SAH300      0.0000 
     43 H          -5.2456   23.1358    9.3715 H         1 SAH300      0.0000 
     44 H          -5.4585   24.2169   10.5430 H         1 SAH300      0.0000 
     45 H          -5.9006   29.7162   11.2856 H         1 SAH300      0.0000 
     46 H          -5.1723   31.3548   12.6273 H         1 SAH300      0.0000 
@<TRIPOS>BOND
     1    2    1 1    
     2   42    1 1    
     3   43    1 1    
     4   44    1 1    
     5    3    2 1    
     6    6    2 1    
     7   27    2 1    
     8    4    3 1    
     9   28    3 1    
    10   29    3 1    
    11    5    4 1    
    12   30    4 1    
    13   31    4 1    
    14    9    5 1    
    15    7    6 ar   
    16    8    6 ar   
    17   10    9 1    
    18   32    9 1    
    19   33    9 1    
    20   11   10 1    
    21   12   10 1    
    22   34   10 1    
    23   16   11 1    
    24   13   12 1    
    25   14   12 1    
    26   35   12 1    
    27   45   13 1    
    28   15   14 1    
    29   16   14 1    
    30   36   14 1    
    31   46   15 1    
    32   17   16 1    
    33   37   16 1    
    34   18   17 1    
    35   26   17 1    
    36   19   18 2    
    37   38   18 1    
    38   20   19 1    
    39   21   20 ar   
    40   26   20 ar   
    41   22   21 1    
    42   23   21 ar   
    43   39   22 1    
    44   40   22 1    
    45   24   23 ar   
    46   25   24 ar   
    47   41   24 1    
    48   26   25 ar   
@<TRIPOS>SUBSTRUCTURE
     1 SAH300      1 GROUP   
@<TRIPOS>SET

