#    Name: 4bbf_O19_4_INTS_M
#    Modification time : Tue Mar 25 07:14:50 2014

@<TRIPOS>MOLECULE
4bbf_O19_4_INTS_M
   77     0     9     0     0
SMALL
NO_CHARGES


@<TRIPOS>ATOM
      1 CA        -37.6130  -12.2740   -9.9120 C.3       3 GLC5        0.0000 
      2 CA        -36.0600  -11.7030   -8.8210 C.3       9 GLL5        0.0000 
      3 CA        -39.1660  -12.8450  -11.0030 C.3       6 GLP5        0.0000 
      4 CA        -35.5900  -10.2045  -11.0900 C.3       3 GLC5        0.0000 
      5 CA        -35.1490  -10.5020   -9.0460 C.3       9 GLL5        0.0000 
      6 CA        -36.0310   -9.9070  -13.1340 C.3       6 GLP5        0.0000 
      7 CA        -36.1975   -8.8065   -9.9780 C.3       3 GLC5        0.0000 
      8 CA        -37.2460   -7.1110  -10.9100 C.3       6 GLP5        0.0000 
      9 CA        -32.5090   -9.9210   -9.5310 C.3       3 GLC5        0.0000 
     10 CA        -33.8370  -10.9430   -8.4130 C.3       9 GLL5        0.0000 
     11 CA        -31.1810   -8.8990  -10.6490 C.3       6 GLP5        0.0000 
     12 O         -37.8850  -13.1125   -6.8830 O.2       1 ALC1        0.0000 
     13 O         -37.5770  -11.8470   -6.1960 O.2       7 ALL1        0.0000 
     14 O         -38.1930  -14.3780   -7.5700 O.2       4 ALP1        0.0000 
     15 CA        -39.0090  -14.0545   -5.5315 C.3       3 GLC5        0.0000 
     16 CA        -39.7120  -12.1760   -5.2350 C.3       9 GLL5        0.0000 
     17 CA        -38.3060  -15.9330   -5.8280 C.3       6 GLP5        0.0000 
     18 CA        -42.7145  -12.1310   -5.1720 C.3       3 GLC5        0.0000 
     19 CA        -40.7780  -11.7580   -4.4340 C.3       9 GLL5        0.0000 
     20 CA        -44.6510  -12.5040   -5.9100 C.3       6 GLP5        0.0000 
     21 CA        -39.4075   -7.5985   -3.6650 C.3       3 GLC5        0.0000 
     22 CA        -39.4560   -9.7920   -3.7810 C.3       9 GLL5        0.0000 
     23 CA        -39.3590   -5.4050   -3.5490 C.3       6 GLP5        0.0000 
     24 CA        -41.7430   -7.8915   -2.9600 C.3       3 GLC5        0.0000 
     25 CA        -41.7020  -10.1190   -2.7780 C.3       9 GLL5        0.0000 
     26 CA        -41.7840   -5.6640   -3.1420 C.3       6 GLP5        0.0000 
     27 CA        -42.0150   -7.2145   -2.0260 C.3       3 GLC5        0.0000 
     28 CA        -42.2460   -8.7650   -0.9100 C.3       9 GLL5        0.0000 
     29 CA        -43.4160   -9.6165    0.7035 C.3       3 GLC5        0.0000 
     30 CA        -44.5860  -10.4680    2.3170 C.3       6 GLP5        0.0000 
     31 CA        -41.0580  -10.1740   -0.3250 C.3       3 GLC5        0.0000 
     32 CA        -39.8700  -11.5830    0.2600 C.3       6 GLP5        0.0000 
     33 N         -44.5790   -8.9100    0.0145 N.am      2 SEC2        0.0000 
     34 N         -43.4970   -9.1980   -1.0190 N.am      8 SEL2        0.0000 
     35 N         -45.6610   -8.6220    1.0480 N.am      5 SEP2        0.0000 
     36 CA        -45.5125   -8.9270   -1.3125 C.3       3 GLC5        0.0000 
     37 CA        -43.9260  -10.0860   -1.9270 C.3       9 GLL5        0.0000 
     38 CA        -47.0990   -7.7680   -0.6980 C.3       6 GLP5        0.0000 
     39 CA        -44.2560  -10.2770    0.1950 C.3       3 GLC5        0.0000 
     40 CA        -43.8385  -11.5480   -4.3930 C.3       3 GLC5        0.0000 
     41 CA        -43.0260  -10.5920   -2.8760 C.3       9 GLL5        0.0000 
     42 O         -42.5565   -7.8555    1.2760 O.2       1 ALC1        0.0000 
     43 O         -41.9170   -7.9120    0.1050 O.2       7 ALL1        0.0000 
     44 O         -43.1960   -7.7990    2.4470 O.2       4 ALP1        0.0000 
     45 CA        -41.2495   -6.4490   -1.3785 C.3       3 GLC5        0.0000 
     46 CA        -40.7150   -7.2340    0.3850 C.3       9 GLL5        0.0000 
     47 CA        -37.2285   -4.5970   -1.8290 C.3       3 GLC5        0.0000 
     48 CA        -36.4230   -4.5640    0.0740 C.3       9 GLL5        0.0000 
     49 CA        -38.0340   -4.6300   -3.7320 C.3       6 GLP5        0.0000 
     50 CA        -37.9750   -6.3575    2.9455 C.3       3 GLC5        0.0000 
     51 CA        -37.1640   -4.4070    2.5990 C.3       9 GLL5        0.0000 
     52 CA        -38.7860   -8.3080    3.2920 C.3       6 GLP5        0.0000 
     53 CA        -34.0435   -8.6442   -8.8187 C.3       3 GLC5        0.0000 
     54 CA        -33.5940   -6.5660   -8.9080 C.3       6 GLP5        0.0000 
     55 CA        -39.1347  -10.0527   -6.3558 C.3       3 GLC5        0.0000 
     56 CA        -38.4090  -10.1990   -4.5880 C.3       9 GLL5        0.0000 
     57 CA        -39.7840   -9.3180   -7.7620 C.3       6 GLP5        0.0000 
     58 CA        -40.0145  -10.6425   -6.2982 C.3       3 GLC5        0.0000 
     59 CA        -41.0793   -9.0464   -4.8249 C.3       3 GLC5        0.0000 
     60 CA        -40.6180  -10.5650   -3.6940 C.3       9 GLL5        0.0000 
     61 CA        -41.2890   -7.9440   -6.3920 C.3       6 GLP5        0.0000 
     62 CA        -40.3697  -10.8659   -1.4989 C.3       3 GLC5        0.0000 
     63 CA        -44.0625   -9.0969   -3.4750 C.3       3 GLC5        0.0000 
     64 CA        -44.9800   -7.9730   -4.5730 C.3       6 GLP5        0.0000 
     65 CA        -44.6455  -12.0850   -2.2967 C.3       3 GLC5        0.0000 
     66 CA        -45.8150  -13.8310   -2.1920 C.3       6 GLP5        0.0000 
     67 CA        -39.4488   -7.8370    1.6727 C.3       3 GLC5        0.0000 
     68 CA        -39.9908   -9.4745    0.1568 C.3       3 GLC5        0.0000 
     69 CA        -39.1445   -6.2695   -1.8428 C.3       3 GLC5        0.0000 
     70 CA        -39.5080   -7.4980   -0.2780 C.3       9 GLL5        0.0000 
     71 CA        -38.5850   -7.2797    1.8800 C.3       3 GLC5        0.0000 
     72 CA        -38.3520   -6.7700    0.0050 C.3       9 GLL5        0.0000 
     73 CA        -39.4813   -7.0572    2.3647 C.3       3 GLC5        0.0000 
     74 CA        -39.6160   -5.4360    1.5700 C.3       9 GLL5        0.0000 
     75 CA        -40.2138   -4.8594   -0.3136 C.3       3 GLC5        0.0000 
     76 CA        -40.7370   -6.1770    1.3050 C.3       9 GLL5        0.0000 
     77 CA        -40.5510   -3.8380   -1.9050 C.3       6 GLP5        0.0000 
@<TRIPOS>BOND
@<TRIPOS>SUBSTRUCTURE
     1 ALC1       12 GROUP        1 X    ALC  0     ROOT ALC X 1
     2 SEC2       33 GROUP        1 X    SEC  0     **** SEC X 2
     3 GLC5        1 GROUP        1 X    GLC  0     **** GLC X 6
     4 ALP1       14 GROUP        1 Y    ALP  0     ROOT ALP Y 8
     5 SEP2       35 GROUP        1 Y    SEP  0     **** SEP Y 9
     6 GLP5        3 GROUP        1 Y    GLP  0     **** GLP Y 13
     7 ALL1       13 GROUP        1 Z    ALL  0     ROOT ALL Z 15
     8 SEL2       34 GROUP        1 Z    SEL  0     **** SEL Z 16
     9 GLL5        2 GROUP        1 Z    GLL  0     **** GLL Z 20
@<TRIPOS>SET

