#    Name: 4bbf_O19_4_ligand
#    Modification time : Tue Mar 25 07:14:51 2014

@<TRIPOS>MOLECULE
4bbf_O19_4_ligand
   60    64     1     0     0
SMALL
NO_CHARGES


@<TRIPOS>ATOM
      1 O10       -35.7940  -10.4430   -5.8950 O.2       1 O192229     0.0000 
      2 C9        -36.3400  -11.4220   -6.4100 C.2       1 O192229     0.0000 
      3 C11       -35.6330  -12.2460   -7.4550 C.3       1 O192229     0.0000 
      4 C15       -36.0600  -11.7030   -8.8210 C.3       1 O192229     0.0000 
      5 C14       -35.1490  -10.5020   -9.0460 C.3       1 O192229     0.0000 
      6 C13       -33.8370  -10.9430   -8.4130 C.3       1 O192229     0.0000 
      7 N12       -34.2370  -11.9460   -7.4140 N.4       1 O192229     0.0000 
      8 N8        -37.5770  -11.8470   -6.1960 N.am      1 O192229     0.0000 
      9 C6        -38.5620  -11.3760   -5.3110 C.ar      1 O192229     0.0000 
     10 C1        -38.4090  -10.1990   -4.5880 C.ar      1 O192229     0.0000 
     11 C5        -39.7120  -12.1760   -5.2350 C.ar      1 O192229     0.0000 
     12 C4        -40.7780  -11.7580   -4.4340 C.ar      1 O192229     0.0000 
     13 C3        -40.6180  -10.5650   -3.6940 C.ar      1 O192229     0.0000 
     14 C2        -39.4560   -9.7920   -3.7810 C.ar      1 O192229     0.0000 
     15 C7        -41.7020  -10.1190   -2.7780 C.ar      1 O192229     0.0000 
     16 N20       -41.3530   -9.2370   -1.8090 N.ar      1 O192229     0.0000 
     17 C19       -42.2460   -8.7650   -0.9100 C.ar      1 O192229     0.0000 
     18 N18       -43.4970   -9.1980   -1.0190 N.ar      1 O192229     0.0000 
     19 C17       -43.9260  -10.0860   -1.9270 C.ar      1 O192229     0.0000 
     20 C16       -43.0260  -10.5920   -2.8760 C.ar      1 O192229     0.0000 
     21 N21       -41.9170   -7.9120    0.1050 N.pl3     1 O192229     0.0000 
     22 C22       -40.7150   -7.2340    0.3850 C.ar      1 O192229     0.0000 
     23 C27       -39.5080   -7.4980   -0.2780 C.ar      1 O192229     0.0000 
     24 C26       -38.3520   -6.7700    0.0050 C.ar      1 O192229     0.0000 
     25 C25       -38.4160   -5.7330    0.9310 C.ar      1 O192229     0.0000 
     26 C24       -39.6160   -5.4360    1.5700 C.ar      1 O192229     0.0000 
     27 C23       -40.7370   -6.1770    1.3050 C.ar      1 O192229     0.0000 
     28 N28       -37.3050   -4.9290    1.2110 N.3       1 O192229     0.0000 
     29 C33       -36.4230   -4.5640    0.0740 C.3       1 O192229     0.0000 
     30 C32       -35.1080   -3.9650    0.5640 C.3       1 O192229     0.0000 
     31 O31       -35.3880   -2.9920    1.5860 O.3       1 O192229     0.0000 
     32 C30       -35.8470   -3.6320    2.7860 C.3       1 O192229     0.0000 
     33 C29       -37.1640   -4.4070    2.5990 C.3       1 O192229     0.0000 
     34 H         -35.8523  -13.2407   -7.3876 H         1 O192229     0.0000 
     35 H         -37.0726  -11.3864   -8.7789 H         1 O192229     0.0000 
     36 H         -35.8832  -12.4364   -9.5681 H         1 O192229     0.0000 
     37 H         -35.5320   -9.6590   -8.5331 H         1 O192229     0.0000 
     38 H         -35.0137  -10.3427  -10.0836 H         1 O192229     0.0000 
     39 H         -33.3728  -10.0994   -7.9480 H         1 O192229     0.0000 
     40 H         -33.2142  -11.3762   -9.1665 H         1 O192229     0.0000 
     41 H         -37.9163  -12.7147   -6.8005 H         1 O192229     0.0000 
     42 H         -37.5529   -9.6562   -4.6524 H         1 O192229     0.0000 
     43 H         -39.7667  -13.0487   -5.7572 H         1 O192229     0.0000 
     44 H         -41.6356  -12.2849   -4.3809 H         1 O192229     0.0000 
     45 H         -39.3862   -8.9187   -3.2403 H         1 O192229     0.0000 
     46 H         -44.9042  -10.4120   -1.9509 H         1 O192229     0.0000 
     47 H         -43.3010  -11.2428   -3.5745 H         1 O192229     0.0000 
     48 H         -42.7215   -7.7106    0.8387 H         1 O192229     0.0000 
     49 H         -39.4772   -8.2477   -0.9903 H         1 O192229     0.0000 
     50 H         -37.4726   -6.9959   -0.4613 H         1 O192229     0.0000 
     51 H         -39.6513   -4.6541    2.2431 H         1 O192229     0.0000 
     52 H         -41.6316   -5.9612    1.7904 H         1 O192229     0.0000 
     53 H         -36.9208   -3.8318   -0.5716 H         1 O192229     0.0000 
     54 H         -36.1990   -5.4497   -0.5310 H         1 O192229     0.0000 
     55 H         -34.6020   -3.5138   -0.2921 H         1 O192229     0.0000 
     56 H         -34.4864   -4.7785    0.9437 H         1 O192229     0.0000 
     57 H         -36.0124   -2.8951    3.5986 H         1 O192229     0.0000 
     58 H         -35.0956   -4.3505    3.1730 H         1 O192229     0.0000 
     59 H         -37.1817   -5.2331    3.3188 H         1 O192229     0.0000 
     60 H         -37.9954   -3.7343    2.8377 H         1 O192229     0.0000 
@<TRIPOS>BOND
     1    2    1 2    
     2    3    2 1    
     3    8    2 am   
     4    4    3 1    
     5    7    3 1    
     6   34    3 1    
     7    5    4 1    
     8   35    4 1    
     9   36    4 1    
    10    6    5 1    
    11   37    5 1    
    12   38    5 1    
    13    7    6 1    
    14   39    6 1    
    15   40    6 1    
    16    9    8 1    
    17   41    8 1    
    18   10    9 ar   
    19   11    9 ar   
    20   14   10 ar   
    21   42   10 1    
    22   12   11 ar   
    23   43   11 1    
    24   13   12 ar   
    25   44   12 1    
    26   14   13 ar   
    27   15   13 1    
    28   45   14 1    
    29   16   15 ar   
    30   20   15 ar   
    31   17   16 ar   
    32   18   17 ar   
    33   21   17 1    
    34   19   18 ar   
    35   20   19 ar   
    36   46   19 1    
    37   47   20 1    
    38   22   21 1    
    39   48   21 1    
    40   23   22 ar   
    41   27   22 ar   
    42   24   23 ar   
    43   49   23 1    
    44   25   24 ar   
    45   50   24 1    
    46   26   25 ar   
    47   28   25 1    
    48   27   26 ar   
    49   51   26 1    
    50   52   27 1    
    51   29   28 1    
    52   33   28 1    
    53   30   29 1    
    54   53   29 1    
    55   54   29 1    
    56   31   30 1    
    57   55   30 1    
    58   56   30 1    
    59   32   31 1    
    60   33   32 1    
    61   57   32 1    
    62   58   32 1    
    63   59   33 1    
    64   60   33 1    
@<TRIPOS>SUBSTRUCTURE
     1 O192229     1 GROUP   
@<TRIPOS>SET

