#    Name: 4jvi_QZN_1_INTS_M
#    Modification time : Tue Mar 25 06:35:53 2014

@<TRIPOS>MOLECULE
4jvi_QZN_1_INTS_M
   49     0     3     0     0
SMALL
NO_CHARGES


@<TRIPOS>ATOM
      1 CA        -42.6365   52.6780    7.5405 C.3       1 GLC5        0.0000 
      2 CA        -40.7710   53.4920    7.1100 C.3       3 GLL5        0.0000 
      3 CA        -44.5020   51.8640    7.9710 C.3       2 GLP5        0.0000 
      4 CA        -40.6340   52.7930    5.2560 C.3       1 GLC5        0.0000 
      5 CA        -40.4970   52.0940    3.4020 C.3       2 GLP5        0.0000 
      6 CA        -42.0025   54.5605    8.5565 C.3       1 GLC5        0.0000 
      7 CA        -43.2340   55.6290   10.0030 C.3       2 GLP5        0.0000 
      8 CA        -39.2250   55.7165    6.5215 C.3       1 GLC5        0.0000 
      9 CA        -39.7020   54.3530    7.7590 C.3       3 GLL5        0.0000 
     10 CA        -38.7480   57.0800    5.2840 C.3       2 GLP5        0.0000 
     11 CA        -40.8990   54.8945    9.3545 C.3       1 GLC5        0.0000 
     12 CA        -42.0960   55.4360   10.9500 C.3       2 GLP5        0.0000 
     13 CA        -38.1090   55.7640    6.9630 C.3       1 GLC5        0.0000 
     14 CA        -37.4700   54.4480    8.6420 C.3       3 GLL5        0.0000 
     15 CA        -38.6700   54.7710   11.4075 C.3       1 GLC5        0.0000 
     16 CA        -37.3420   54.4680   10.1410 C.3       3 GLL5        0.0000 
     17 CA        -39.9980   55.0740   12.6740 C.3       2 GLP5        0.0000 
     18 CA        -36.1260   57.2760    9.9420 C.3       1 GLC5        0.0000 
     19 CA        -34.4650   56.1820   10.7400 C.3       3 GLL5        0.0000 
     20 CA        -37.7870   58.3700    9.1440 C.3       2 GLP5        0.0000 
     21 CA        -32.0640   56.0040   12.7305 C.3       1 GLC5        0.0000 
     22 CA        -33.0150   56.0090   11.2250 C.3       3 GLL5        0.0000 
     23 CA        -31.1130   55.9990   14.2360 C.3       2 GLP5        0.0000 
     24 CA        -28.9175   63.2360    8.5230 C.3       1 GLC5        0.0000 
     25 CA        -30.8830   62.7460    8.8870 C.3       3 GLL5        0.0000 
     26 CA        -26.9520   63.7260    8.1590 C.3       2 GLP5        0.0000 
     27 CA        -31.3185   63.7505    7.2160 C.3       1 GLC5        0.0000 
     28 CA        -31.7540   64.7550    5.5450 C.3       2 GLP5        0.0000 
     29 CA        -37.5965   56.4140    9.2677 C.3       1 GLC5        0.0000 
     30 CA        -32.9102   60.5680    8.8708 C.3       1 GLC5        0.0000 
     31 CA        -31.5170   60.1700    9.5980 C.3       3 GLL5        0.0000 
     32 CA        -34.3090   61.6530    8.2200 C.3       2 GLP5        0.0000 
     33 CA        -32.6183   58.9790    7.9683 C.3       1 GLC5        0.0000 
     34 CA        -31.5060   58.7960    9.4450 C.3       3 GLL5        0.0000 
     35 CA        -33.7250   58.4750    6.4150 C.3       2 GLP5        0.0000 
     36 CA        -32.5277   60.5485   10.8773 C.3       1 GLC5        0.0000 
     37 CA        -33.5440   61.6140   12.2330 C.3       2 GLP5        0.0000 
     38 CA        -29.4753   61.3478    9.6528 C.3       1 GLC5        0.0000 
     39 CA        -30.8300   60.9930    8.7000 C.3       3 GLL5        0.0000 
     40 CA        -28.0940   60.8260   10.5120 C.3       2 GLP5        0.0000 
     41 CA        -32.1005   59.5863    7.2977 C.3       1 GLC5        0.0000 
     42 CA        -32.2002   61.7417   10.5132 C.3       1 GLC5        0.0000 
     43 CA        -32.3991   61.3944    8.2236 C.3       1 GLC5        0.0000 
     44 CA        -30.1220   60.4020    7.6610 C.3       3 GLL5        0.0000 
     45 CA        -29.1595   57.7124    9.1581 C.3       1 GLC5        0.0000 
     46 CA        -27.6910   56.6590   10.1170 C.3       2 GLP5        0.0000 
     47 CA        -32.0877   58.5487    7.1743 C.3       1 GLC5        0.0000 
     48 CA        -30.7960   58.2230    8.3820 C.3       3 GLL5        0.0000 
     49 CA        -29.3638   60.0543    9.3872 C.3       1 GLC5        0.0000 
@<TRIPOS>BOND
@<TRIPOS>SUBSTRUCTURE
     1 GLC5        1 GROUP        1 X    GLC  0     ROOT GLC X 6
     2 GLP5        3 GROUP        1 Y    GLP  0     ROOT GLP Y 13
     3 GLL5        2 GROUP        1 Z    GLL  0     ROOT GLL Z 20
@<TRIPOS>SET

