#    Name: 4jvi_QZN_1_ligand
#    Modification time : Tue Mar 25 06:35:53 2014

@<TRIPOS>MOLECULE
4jvi_QZN_1_ligand
   44    45     1     0     0
SMALL
NO_CHARGES


@<TRIPOS>ATOM
      1 CAA       -40.7710   53.4920    7.1100 C.3       1 QZN401      0.0000 
      2 CAH       -39.7020   54.3530    7.7590 C.3       1 QZN401      0.0000 
      3 CAI       -38.5730   53.4950    8.3000 C.3       1 QZN401      0.0000 
      4 CAJ       -37.4700   54.4480    8.6420 C.3       1 QZN401      0.0000 
      5 CAK       -37.3420   54.4680   10.1410 C.3       1 QZN401      0.0000 
      6 CAL       -35.9100   54.1830   10.4840 C.3       1 QZN401      0.0000 
      7 CAM       -35.4240   55.2270   11.4640 C.3       1 QZN401      0.0000 
      8 CAN       -34.4650   56.1820   10.7400 C.3       1 QZN401      0.0000 
      9 CAO       -33.0150   56.0090   11.2250 C.3       1 QZN401      0.0000 
     10 CAR       -32.1900   56.7270   10.2020 C.2       1 QZN401      0.0000 
     11 NAP       -32.1870   58.0450   10.3220 N.2       1 QZN401      0.0000 
     12 CAT       -31.5060   58.7960    9.4450 C.ar      1 QZN401      0.0000 
     13 CAG       -31.5170   60.1700    9.5980 C.ar      1 QZN401      0.0000 
     14 CAQ       -30.8300   60.9930    8.7000 C.ar      1 QZN401      0.0000 
     15 CL        -30.8830   62.7460    8.8870 Cl        1 QZN401      0.0000 
     16 CAE       -30.1220   60.4020    7.6610 C.ar      1 QZN401      0.0000 
     17 CAF       -30.1050   59.0220    7.4850 C.ar      1 QZN401      0.0000 
     18 CAU       -30.7960   58.2230    8.3820 C.ar      1 QZN401      0.0000 
     19 CAS       -30.8050   56.8460    8.2270 C.2       1 QZN401      0.0000 
     20 OAC       -30.2020   56.3030    7.3150 O.2       1 QZN401      0.0000 
     21 NAV       -31.4920   56.0680    9.1380 N.am      1 QZN401      0.0000 
     22 NAB       -31.4500   54.8410    8.9770 N.3       1 QZN401      0.0000 
     23 H         -40.1452   54.9243    8.5759 H         1 QZN401      0.0000 
     24 H         -39.3039   55.0513    7.0215 H         1 QZN401      0.0000 
     25 H         -38.2504   52.8092    7.5418 H         1 QZN401      0.0000 
     26 H         -38.9055   52.9797    9.1794 H         1 QZN401      0.0000 
     27 H         -37.7140   55.4381    8.2847 H         1 QZN401      0.0000 
     28 H         -36.5422   54.1114    8.2024 H         1 QZN401      0.0000 
     29 H         -37.9812   53.7082   10.5712 H         1 QZN401      0.0000 
     30 H         -37.6231   55.4428   10.5174 H         1 QZN401      0.0000 
     31 H         -35.3009   54.2205    9.5862 H         1 QZN401      0.0000 
     32 H         -35.8273   53.1992   10.9353 H         1 QZN401      0.0000 
     33 H         -34.8974   54.7502   12.2799 H         1 QZN401      0.0000 
     34 H         -36.2630   55.7929   11.8464 H         1 QZN401      0.0000 
     35 H         -34.7798   57.2105   10.9202 H         1 QZN401      0.0000 
     36 H         -34.5069   55.9870    9.6678 H         1 QZN401      0.0000 
     37 H         -32.7756   54.9711   11.2410 H         1 QZN401      0.0000 
     38 H         -32.9117   56.4670   12.1812 H         1 QZN401      0.0000 
     39 H         -32.0357   60.5997   10.3811 H         1 QZN401      0.0000 
     40 H         -29.5927   61.0037    6.9996 H         1 QZN401      0.0000 
     41 H         -29.5906   58.6067    6.7062 H         1 QZN401      0.0000 
     42 H         -40.4047   52.9553    6.3499 H         1 QZN401      0.0000 
     43 H         -41.1717   52.8454    7.7591 H         1 QZN401      0.0000 
     44 H         -41.5210   54.0435    6.7448 H         1 QZN401      0.0000 
@<TRIPOS>BOND
     1    2    1 1    
     2   42    1 1    
     3   43    1 1    
     4   44    1 1    
     5    3    2 1    
     6   23    2 1    
     7   24    2 1    
     8    4    3 1    
     9   25    3 1    
    10   26    3 1    
    11    5    4 1    
    12   27    4 1    
    13   28    4 1    
    14    6    5 1    
    15   29    5 1    
    16   30    5 1    
    17    7    6 1    
    18   31    6 1    
    19   32    6 1    
    20    8    7 1    
    21   33    7 1    
    22   34    7 1    
    23    9    8 1    
    24   35    8 1    
    25   36    8 1    
    26   10    9 1    
    27   37    9 1    
    28   38    9 1    
    29   11   10 2    
    30   21   10 1    
    31   12   11 1    
    32   13   12 ar   
    33   18   12 ar   
    34   14   13 ar   
    35   39   13 1    
    36   15   14 1    
    37   16   14 ar   
    38   17   16 ar   
    39   40   16 1    
    40   18   17 ar   
    41   41   17 1    
    42   19   18 1    
    43   20   19 2    
    44   21   19 am   
    45   22   21 1    
@<TRIPOS>SUBSTRUCTURE
     1 QZN401      1 GROUP   
@<TRIPOS>SET

