#    Name: 4hys_1BJ_1_INTS_M
#    Modification time : Tue Mar 25 02:00:56 2014

@<TRIPOS>MOLECULE
4hys_1BJ_1_INTS_M
   50     0     9     0     0
SMALL
NO_CHARGES


@<TRIPOS>ATOM
      1 N          -2.7515   -2.8325    9.1250 N.am      2 SEC2        0.0000 
      2 N          -2.1330   -2.2240   10.3770 N.am      8 SEL2        0.0000 
      3 N          -3.3700   -3.4410    7.8730 N.am      5 SEP2        0.0000 
      4 CA         -2.2505    0.9770   10.5640 C.3       3 GLC5        0.0000 
      5 CA         -2.8040   -1.1460   10.7660 C.3       9 GLL5        0.0000 
      6 CA         -1.6970    3.1000   10.3620 C.3       6 GLP5        0.0000 
      7 CA         -0.6910   -0.8315   10.4210 C.3       3 GLC5        0.0000 
      8 CA          1.4220   -0.5170   10.0760 C.3       6 GLP5        0.0000 
      9 CA         -2.0815   -0.4135    9.0965 C.3       3 GLC5        0.0000 
     10 CA         -1.3590    0.3190    7.4270 C.3       6 GLP5        0.0000 
     11 CA         -0.7600   -4.7785   11.8885 C.3       3 GLC5        0.0000 
     12 CA         -1.1550   -2.7350   11.1330 C.3       9 GLL5        0.0000 
     13 CA         -0.3650   -6.8220   12.6440 C.3       6 GLP5        0.0000 
     14 CA         -1.1495   -2.7990    9.0930 C.3       3 GLC5        0.0000 
     15 CA         -1.1440   -2.8630    7.0530 C.3       6 GLP5        0.0000 
     16 CA          0.8585   -2.9640   13.0665 C.3       3 GLC5        0.0000 
     17 CA         -0.8190   -2.1630   12.3390 C.3       9 GLL5        0.0000 
     18 CA          2.5360   -3.7650   13.7940 C.3       6 GLP5        0.0000 
     19 O          -4.5785   -1.1080    8.8035 O.2       1 ALC1        0.0000 
     20 O          -3.8280   -0.6430    9.9570 O.2       7 ALL1        0.0000 
     21 O          -5.3290   -1.5730    7.6500 O.2       4 ALP1        0.0000 
     22 CA         -8.4570   -0.4790   13.1345 C.3       3 GLC5        0.0000 
     23 CA         -6.8740    0.4370   12.0280 C.3       9 GLL5        0.0000 
     24 CA        -10.0400   -1.3950   14.2410 C.3       6 GLP5        0.0000 
     25 CA         -0.1175    1.5760   13.5875 C.3       3 GLC5        0.0000 
     26 CA         -1.8210    0.7030   14.4610 C.3       9 GLL5        0.0000 
     27 CA          1.5860    2.4490   12.7140 C.3       6 GLP5        0.0000 
     28 CA         -2.2395    2.3525   12.1800 C.3       3 GLC5        0.0000 
     29 CA         -2.7820    1.6050   13.9980 C.3       9 GLL5        0.0000 
     30 CA         -2.2830    3.5270   12.9420 C.3       3 GLC5        0.0000 
     31 CA         -3.1470    2.6660   14.7970 C.3       9 GLL5        0.0000 
     32 CA         -1.4190    4.3880   11.0870 C.3       6 GLP5        0.0000 
     33 CA          0.0822   -1.1275   11.1515 C.3       3 GLC5        0.0000 
     34 CA         -1.6987   -2.8565   13.7230 C.3       3 GLC5        0.0000 
     35 CA         -2.1400   -3.9750   15.2190 C.3       6 GLP5        0.0000 
     36 CA         -3.4407    1.8933   10.1683 C.3       3 GLC5        0.0000 
     37 CA         -4.8260    0.2840   10.5240 C.3       9 GLL5        0.0000 
     38 CA         -6.4328   -1.9173   12.4880 C.3       3 GLC5        0.0000 
     39 CA         -5.8390   -0.4900   11.3800 C.3       9 GLL5        0.0000 
     40 CA         -6.5090   -3.8080   13.2720 C.3       6 GLP5        0.0000 
     41 CA         -8.5392   -0.2755   10.4530 C.3       3 GLC5        0.0000 
     42 CA         -9.8610   -1.4190    9.4120 C.3       6 GLP5        0.0000 
     43 CA         -2.6190   -0.8197   15.7460 C.3       3 GLC5        0.0000 
     44 CA         -1.2390    0.8980   15.7250 C.3       9 GLL5        0.0000 
     45 CA         -3.7080   -2.4400   16.3990 C.3       6 GLP5        0.0000 
     46 CA         -2.1455    4.5337   15.3155 C.3       3 GLC5        0.0000 
     47 CA         -1.4340    6.3080   15.2100 C.3       6 GLP5        0.0000 
     48 CA         -0.1399    2.5463   15.6431 C.3       3 GLC5        0.0000 
     49 CA         -2.5670    2.8530   16.0450 C.3       9 GLL5        0.0000 
     50 CA          1.7190    2.9440   15.2030 C.3       6 GLP5        0.0000 
@<TRIPOS>BOND
@<TRIPOS>SUBSTRUCTURE
     1 ALC1       19 GROUP        1 X    ALC  0     ROOT ALC X 1
     2 SEC2        1 GROUP        1 X    SEC  0     **** SEC X 2
     3 GLC5        4 GROUP        1 X    GLC  0     **** GLC X 6
     4 ALP1       21 GROUP        1 Y    ALP  0     ROOT ALP Y 8
     5 SEP2        3 GROUP        1 Y    SEP  0     **** SEP Y 9
     6 GLP5        6 GROUP        1 Y    GLP  0     **** GLP Y 13
     7 ALL1       20 GROUP        1 Z    ALL  0     ROOT ALL Z 15
     8 SEL2        2 GROUP        1 Z    SEL  0     **** SEL Z 16
     9 GLL5        5 GROUP        1 Z    GLL  0     **** GLL Z 20
@<TRIPOS>SET

