#    Name: 4hys_1BJ_1_ligand
#    Modification time : Tue Mar 25 02:00:56 2014

@<TRIPOS>MOLECULE
4hys_1BJ_1_ligand
   42    45     1     0     0
SMALL
NO_CHARGES


@<TRIPOS>ATOM
      1 N1         -2.1330   -2.2240   10.3770 N.ar      1 1BJ401      0.0000 
      2 C2         -2.8040   -1.1460   10.7660 C.ar      1 1BJ401      0.0000 
      3 N3         -2.5090   -0.5690   11.9330 N.ar      1 1BJ401      0.0000 
      4 C4         -1.1550   -2.7350   11.1330 C.ar      1 1BJ401      0.0000 
      5 C5         -0.8190   -2.1630   12.3390 C.ar      1 1BJ401      0.0000 
      6 C6         -1.5280   -1.0270   12.7180 C.ar      1 1BJ401      0.0000 
      7 N7         -1.2380   -0.4240   13.9400 N.pl3     1 1BJ401      0.0000 
      8 N8         -3.8280   -0.6430    9.9570 N.pl3     1 1BJ401      0.0000 
      9 C9         -4.8260    0.2840   10.5240 C.3       1 1BJ401      0.0000 
     10 C10        -5.8390   -0.4900   11.3800 C.3       1 1BJ401      0.0000 
     11 C11        -6.8740    0.4370   12.0280 C.3       1 1BJ401      0.0000 
     12 C12        -7.5610    1.2990   10.9600 C.3       1 1BJ401      0.0000 
     13 C13        -6.5400    2.0580   10.0820 C.3       1 1BJ401      0.0000 
     14 C14        -5.5430    1.0890    9.4250 C.3       1 1BJ401      0.0000 
     15 O15        -8.3840    2.2490   11.6370 O.3       1 1BJ401      0.0000 
     16 C16        -0.2820   -0.1860   15.9160 C.2       1 1BJ401      0.0000 
     17 N17        -0.3190   -0.9390   14.8590 N.2       1 1BJ401      0.0000 
     18 C18        -1.2390    0.8980   15.7250 C.ar      1 1BJ401      0.0000 
     19 C19        -1.8210    0.7030   14.4610 C.ar      1 1BJ401      0.0000 
     20 C20        -2.7820    1.6050   13.9980 C.ar      1 1BJ401      0.0000 
     21 C21        -3.1470    2.6660   14.7970 C.ar      1 1BJ401      0.0000 
     22 C22        -2.5670    2.8530   16.0450 C.ar      1 1BJ401      0.0000 
     23 C23        -1.6220    1.9900   16.5180 C.ar      1 1BJ401      0.0000 
     24 H          -0.6273   -3.5819   10.8179 H         1 1BJ401      0.0000 
     25 H          -0.0926   -2.5445   12.9271 H         1 1BJ401      0.0000 
     26 H          -3.9137   -0.8941    8.9795 H         1 1BJ401      0.0000 
     27 H          -4.3238    0.9989   11.1823 H         1 1BJ401      0.0000 
     28 H          -5.3033   -1.0317   12.1634 H         1 1BJ401      0.0000 
     29 H          -6.3554   -1.2182   10.7498 H         1 1BJ401      0.0000 
     30 H          -6.3775    1.0838   12.7443 H         1 1BJ401      0.0000 
     31 H          -7.6213   -0.1615   12.5392 H         1 1BJ401      0.0000 
     32 H          -8.1460    0.6600   10.3293 H         1 1BJ401      0.0000 
     33 H          -5.9965    2.7653   10.7036 H         1 1BJ401      0.0000 
     34 H          -7.0755    2.6017    9.3076 H         1 1BJ401      0.0000 
     35 H          -6.0767    0.4112    8.7771 H         1 1BJ401      0.0000 
     36 H          -4.8145    1.6520    8.8625 H         1 1BJ401      0.0000 
     37 H           0.2372   -0.2488   16.7133 H         1 1BJ401      0.0000 
     38 H          -3.2044    1.4714   13.0752 H         1 1BJ401      0.0000 
     39 H          -3.8650    3.3378   14.4663 H         1 1BJ401      0.0000 
     40 H          -2.8650    3.6670   16.6200 H         1 1BJ401      0.0000 
     41 H          -1.1881    2.1222   17.4362 H         1 1BJ401      0.0000 
     42 H          -7.8066    2.8264   12.2144 H         1 1BJ401      0.0000 
@<TRIPOS>BOND
     1    2    1 ar   
     2    4    1 ar   
     3    3    2 ar   
     4    8    2 1    
     5    6    3 ar   
     6    5    4 ar   
     7   24    4 1    
     8    6    5 ar   
     9   25    5 1    
    10    7    6 1    
    11   17    7 1    
    12   19    7 1    
    13    9    8 1    
    14   26    8 1    
    15   10    9 1    
    16   14    9 1    
    17   27    9 1    
    18   11   10 1    
    19   28   10 1    
    20   29   10 1    
    21   12   11 1    
    22   30   11 1    
    23   31   11 1    
    24   13   12 1    
    25   15   12 1    
    26   32   12 1    
    27   14   13 1    
    28   33   13 1    
    29   34   13 1    
    30   35   14 1    
    31   36   14 1    
    32   42   15 1    
    33   17   16 2    
    34   18   16 1    
    35   37   16 1    
    36   19   18 ar   
    37   23   18 ar   
    38   20   19 ar   
    39   21   20 ar   
    40   38   20 1    
    41   22   21 ar   
    42   39   21 1    
    43   23   22 ar   
    44   40   22 1    
    45   41   23 1    
@<TRIPOS>SUBSTRUCTURE
     1 1BJ401      1 GROUP   
@<TRIPOS>SET

