#    Name: 2c0t_L3G_2_INTS_M
#    Modification time : Mon Mar 24 22:06:17 2014

@<TRIPOS>MOLECULE
2c0t_L3G_2_INTS_M
   91     0     9     0     0
SMALL
NO_CHARGES


@<TRIPOS>ATOM
      1 CA         16.3575   73.8295   78.6295 C.3       3 GLC5        0.0000 
      2 CA         15.6970   73.3850   76.6070 C.3       9 GLL5        0.0000 
      3 CA         17.0180   74.2740   80.6520 C.3       6 GLP5        0.0000 
      4 CA         15.4145   73.5235   74.6215 C.3       3 GLC5        0.0000 
      5 CA         15.1320   73.6620   72.6360 C.3       6 GLP5        0.0000 
      6 CA         16.5920   70.3800   75.1185 C.3       3 GLC5        0.0000 
      7 CA         15.0760   71.1110   76.4770 C.3       9 GLL5        0.0000 
      8 CA         18.1080   69.6490   73.7600 C.3       6 GLP5        0.0000 
      9 CA         12.8020   70.7725   78.2385 C.3       3 GLC5        0.0000 
     10 CA         11.4850   71.8290   76.9190 C.3       9 GLL5        0.0000 
     11 CA         14.1190   69.7160   79.5580 C.3       6 GLP5        0.0000 
     12 N          17.2835   69.7655   76.3670 N.am      2 SEC2        0.0000 
     13 N          16.3680   70.8150   76.7070 N.am      8 SEL2        0.0000 
     14 N          18.1990   68.7160   76.0270 N.am      5 SEP2        0.0000 
     15 O          14.4690   68.6300   76.4755 O.2       1 ALC1        0.0000 
     16 O          14.2190   70.0760   76.2610 O.2       7 ALL1        0.0000 
     17 O          14.7190   67.1840   76.6900 O.2       4 ALP1        0.0000 
     18 CA          8.9925   72.1555   78.2375 C.3       3 GLC5        0.0000 
     19 CA         10.1550   71.3970   76.7700 C.3       9 GLL5        0.0000 
     20 CA          7.8300   72.9140   79.7050 C.3       6 GLP5        0.0000 
     21 CA         17.3170   69.5405   77.3660 C.3       3 GLC5        0.0000 
     22 CA         17.3070   71.7380   76.9100 C.3       9 GLL5        0.0000 
     23 CA         17.3270   67.3430   77.8220 C.3       6 GLP5        0.0000 
     24 CA         18.1530   70.4020   75.8820 C.3       3 GLC5        0.0000 
     25 CA         18.9990   69.0660   74.8540 C.3       6 GLP5        0.0000 
     26 CA         12.1845   69.9495   79.2200 C.3       3 GLC5        0.0000 
     27 CA         10.2500   70.1830   78.8820 C.3       9 GLL5        0.0000 
     28 CA         10.4380   70.1935   80.7055 C.3       3 GLC5        0.0000 
     29 CA         10.6260   70.2040   82.5290 C.3       6 GLP5        0.0000 
     30 CA          9.0400   71.5485   79.2935 C.3       3 GLC5        0.0000 
     31 CA          9.9720   68.9040   77.6355 C.3       3 GLC5        0.0000 
     32 CA          9.6940   67.6250   76.3890 C.3       6 GLP5        0.0000 
     33 CA         14.2980   80.5390   78.9760 C.3       3 GLC5        0.0000 
     34 CA         14.8740   80.9130   76.8530 C.3       9 GLL5        0.0000 
     35 CA         13.7220   80.1650   81.0990 C.3       6 GLP5        0.0000 
     36 CA          6.4200   71.6925   72.7385 C.3       3 GLC5        0.0000 
     37 CA          6.1010   70.5510   74.4330 C.3       9 GLL5        0.0000 
     38 CA          6.7390   72.8340   71.0440 C.3       6 GLP5        0.0000 
     39 N           8.1490   71.4210   72.1745 N.am      2 SEC2        0.0000 
     40 N           8.2370   70.6190   73.3990 N.am      8 SEL2        0.0000 
     41 N           8.0610   72.2230   70.9500 N.am      5 SEP2        0.0000 
     42 CA          4.9410   73.1345   75.2270 C.3       3 GLC5        0.0000 
     43 CA          5.2190   71.1200   75.3470 C.3       9 GLL5        0.0000 
     44 CA          4.6630   75.1490   75.1070 C.3       6 GLP5        0.0000 
     45 CA         14.8385   79.0790   79.5310 C.3       3 GLC5        0.0000 
     46 CA         15.9550   77.9930   77.9630 C.3       9 GLL5        0.0000 
     47 CA          8.2085   68.5465   72.1345 C.3       3 GLC5        0.0000 
     48 CA          6.0420   68.9140   72.4820 C.3       9 GLL5        0.0000 
     49 CA         10.3750   68.1790   71.7870 C.3       6 GLP5        0.0000 
     50 CA          6.3905   70.8740   71.7630 C.3       3 GLC5        0.0000 
     51 CA         15.4400   75.1465   73.9785 C.3       3 GLC5        0.0000 
     52 CA         15.7480   76.6310   75.3210 C.3       9 GLL5        0.0000 
     53 CA          3.3655   70.2495   77.4550 C.3       3 GLC5        0.0000 
     54 CA          2.7110   70.7380   75.5500 C.3       9 GLL5        0.0000 
     55 CA          4.0200   69.7610   79.3600 C.3       6 GLP5        0.0000 
     56 CA         16.3755   75.0890   78.6570 C.3       3 GLC5        0.0000 
     57 CA         15.7330   75.9040   76.6620 C.3       9 GLL5        0.0000 
     58 CA          0.5475   67.4845   74.4905 C.3       3 GLC5        0.0000 
     59 CA          1.7460   69.1900   73.9580 C.3       9 GLL5        0.0000 
     60 CA         -0.6510   65.7790   75.0230 C.3       6 GLP5        0.0000 
     61 CA         14.0430   73.7030   78.1495 C.3       3 GLC5        0.0000 
     62 CA         14.6870   72.4430   76.4210 C.3       9 GLL5        0.0000 
     63 CA         12.8940   74.4920   79.7850 C.3       6 GLP5        0.0000 
     64 CA         14.5002   70.7465   78.0035 C.3       3 GLC5        0.0000 
     65 CA         14.5602   71.5835   74.7805 C.3       3 GLC5        0.0000 
     66 CA         14.2390   71.3900   73.1120 C.3       6 GLP5        0.0000 
     67 CA         12.3382   73.3650   78.1100 C.3       3 GLC5        0.0000 
     68 CA         12.0800   72.6470   75.9510 C.3       9 GLL5        0.0000 
     69 CA         12.9700   72.1245   74.2572 C.3       3 GLC5        0.0000 
     70 CA         10.8975   72.7283   72.8992 C.3       3 GLC5        0.0000 
     71 CA         10.0080   72.6280   74.6950 C.3       9 GLL5        0.0000 
     72 CA         11.1300   72.6070   71.0240 C.3       6 GLP5        0.0000 
     73 CA          9.7417   69.6040   76.2975 C.3       3 GLC5        0.0000 
     74 CA          9.4240   71.7690   75.6420 C.3       9 GLL5        0.0000 
     75 CA          9.1172   73.6826   76.2051 C.3       3 GLC5        0.0000 
     76 CA          8.1900   75.0560   77.2020 C.3       6 GLP5        0.0000 
     77 CA         16.0825   77.0168   79.5925 C.3       3 GLC5        0.0000 
     78 CA         15.1210   76.7400   77.7830 C.3       9 GLL5        0.0000 
     79 CA         16.6270   76.6670   81.3120 C.3       6 GLP5        0.0000 
     80 CA         16.5393   77.4370   73.5457 C.3       3 GLC5        0.0000 
     81 CA         16.4310   78.0030   75.4720 C.3       9 GLL5        0.0000 
     82 CA         16.9890   77.5570   71.6950 C.3       6 GLP5        0.0000 
     83 CA          5.1662   69.4084   76.5420 C.3       3 GLC5        0.0000 
     84 CA          5.5170   68.1300   78.1520 C.3       6 GLP5        0.0000 
     85 CA         14.1605   75.4070   78.5037 C.3       3 GLC5        0.0000 
     86 CA          1.8285   68.0065   72.2920 C.3       3 GLC5        0.0000 
     87 CA          3.0080   69.0000   73.3900 C.3       9 GLL5        0.0000 
     88 CA          1.2800   66.9180   70.9100 C.3       6 GLP5        0.0000 
     89 CA          2.4245   72.2625   75.1460 C.3       3 GLC5        0.0000 
     90 CA          1.5970   70.0620   75.0360 C.3       9 GLL5        0.0000 
     91 CA          2.3800   74.1750   75.1430 C.3       6 GLP5        0.0000 
@<TRIPOS>BOND
@<TRIPOS>SUBSTRUCTURE
     1 ALC1       15 GROUP        1 X    ALC  0     ROOT ALC X 1
     2 SEC2       12 GROUP        1 X    SEC  0     **** SEC X 2
     3 GLC5        1 GROUP        1 X    GLC  0     **** GLC X 6
     4 ALP1       17 GROUP        1 Y    ALP  0     ROOT ALP Y 8
     5 SEP2       14 GROUP        1 Y    SEP  0     **** SEP Y 9
     6 GLP5        3 GROUP        1 Y    GLP  0     **** GLP Y 13
     7 ALL1       16 GROUP        1 Z    ALL  0     ROOT ALL Z 15
     8 SEL2       13 GROUP        1 Z    SEL  0     **** SEL Z 16
     9 GLL5        2 GROUP        1 Z    GLL  0     **** GLL Z 20
@<TRIPOS>SET

