#    Name: 2c0t_L3G_2_ligand
#    Modification time : Mon Mar 24 22:06:17 2014

@<TRIPOS>MOLECULE
2c0t_L3G_2_ligand
   80    86     1     0     0
SMALL
NO_CHARGES


@<TRIPOS>ATOM
      1 C1         13.4860   73.1350   76.1850 C.2       1 L3G1506     0.0000 
      2 C2         14.6870   72.4430   76.4210 C.ar      1 L3G1506     0.0000 
      3 C3         12.0800   72.6470   75.9510 C.ar      1 L3G1506     0.0000 
      4 N1         13.7770   74.4570   76.2510 N.2       1 L3G1506     0.0000 
      5 C4         15.6970   73.3850   76.6070 C.ar      1 L3G1506     0.0000 
      6 C5         15.0760   71.1110   76.4770 C.ar      1 L3G1506     0.0000 
      7 C6         11.4850   71.8290   76.9190 C.ar      1 L3G1506     0.0000 
      8 C7         11.3220   73.0710   74.8540 C.ar      1 L3G1506     0.0000 
      9 N2         15.1400   74.5620   76.5400 N.pl3     1 L3G1506     0.0000 
     10 N3         16.9850   73.0360   76.8640 N.ar      1 L3G1506     0.0000 
     11 N4         16.3680   70.8150   76.7070 N.ar      1 L3G1506     0.0000 
     12 N5         14.2190   70.0760   76.2610 N.pl3     1 L3G1506     0.0000 
     13 C8         10.1550   71.3970   76.7700 C.ar      1 L3G1506     0.0000 
     14 C9         10.0080   72.6280   74.6950 C.ar      1 L3G1506     0.0000 
     15 C11        17.3070   71.7380   76.9100 C.ar      1 L3G1506     0.0000 
     16 C12         9.4240   71.7690   75.6420 C.ar      1 L3G1506     0.0000 
     17 O1          9.5610   70.5740   77.7030 O.3       1 L3G1506     0.0000 
     18 C13        17.4670   82.0640   77.3300 C.3       1 L3G1506     0.0000 
     19 C14        15.1950   82.4040   76.6170 C.3       1 L3G1506     0.0000 
     20 N6          8.0820   71.3710   75.5000 N.am      1 L3G1506     0.0000 
     21 C15        10.2500   70.1830   78.8820 C.3       1 L3G1506     0.0000 
     22 C16        17.2230   80.5670   77.5700 C.3       1 L3G1506     0.0000 
     23 C17        14.8740   80.9130   76.8530 C.3       1 L3G1506     0.0000 
     24 C18         7.5630   70.8620   74.4010 C.2       1 L3G1506     0.0000 
     25 C19        16.1360   80.1010   76.6070 C.3       1 L3G1506     0.0000 
     26 C20         6.1010   70.5510   74.4330 C.2       1 L3G1506     0.0000 
     27 O2          8.2370   70.6190   73.3990 O.2       1 L3G1506     0.0000 
     28 N7         15.8610   78.6590   76.6560 N.4       1 L3G1506     0.0000 
     29 N8          5.4360   69.7030   73.5940 N.pl3     1 L3G1506     0.0000 
     30 C21         5.2190   71.1200   75.3470 C.2       1 L3G1506     0.0000 
     31 C22        15.9550   77.9930   77.9630 C.3       1 L3G1506     0.0000 
     32 C23        16.4310   78.0030   75.4720 C.3       1 L3G1506     0.0000 
     33 C24         4.1190   69.6770   73.9050 C.ar      1 L3G1506     0.0000 
     34 C25         6.0420   68.9140   72.4820 C.3       1 L3G1506     0.0000 
     35 C26         3.9710   70.5380   74.9740 C.ar      1 L3G1506     0.0000 
     36 C27        15.1210   76.7400   77.7830 C.3       1 L3G1506     0.0000 
     37 C28        15.7480   76.6310   75.3210 C.3       1 L3G1506     0.0000 
     38 C29         3.0080   69.0000   73.3900 C.ar      1 L3G1506     0.0000 
     39 C30         2.7110   70.7380   75.5500 C.ar      1 L3G1506     0.0000 
     40 C10        15.7330   75.9040   76.6620 C.3       1 L3G1506     0.0000 
     41 C31         1.7460   69.1900   73.9580 C.ar      1 L3G1506     0.0000 
     42 C32         1.5970   70.0620   75.0360 C.ar      1 L3G1506     0.0000 
     43 O3         16.2530   82.8210   77.4950 O.3       1 L3G1506     0.0000 
     44 H          12.0223   71.5403   77.7463 H         1 L3G1506     0.0000 
     45 H          11.7353   73.7105   74.1642 H         1 L3G1506     0.0000 
     46 H          13.2730   70.3242   76.0526 H         1 L3G1506     0.0000 
     47 H          14.6109   69.1586   76.3297 H         1 L3G1506     0.0000 
     48 H           9.4587   72.9303   73.8793 H         1 L3G1506     0.0000 
     49 H          18.2935   71.4517   77.1049 H         1 L3G1506     0.0000 
     50 H          17.8760   82.1762   76.3155 H         1 L3G1506     0.0000 
     51 H          18.2443   82.3919   78.0353 H         1 L3G1506     0.0000 
     52 H          14.2753   82.9704   76.7915 H         1 L3G1506     0.0000 
     53 H          15.4714   82.5186   75.5646 H         1 L3G1506     0.0000 
     54 H           7.4677   71.5057   76.3669 H         1 L3G1506     0.0000 
     55 H          16.8962   80.4184   78.5856 H         1 L3G1506     0.0000 
     56 H          18.1335   80.0235   77.3802 H         1 L3G1506     0.0000 
     57 H          14.1013   80.6075   76.1656 H         1 L3G1506     0.0000 
     58 H          14.5461   80.7818   77.8719 H         1 L3G1506     0.0000 
     59 H          16.4795   80.3693   75.5842 H         1 L3G1506     0.0000 
     60 H          14.6753   78.6319   76.4081 H         1 L3G1506     0.0000 
     61 H           5.3747   71.7093   76.0142 H         1 L3G1506     0.0000 
     62 H          15.5248   78.5942   78.7330 H         1 L3G1506     0.0000 
     63 H          16.9623   77.7164   78.1823 H         1 L3G1506     0.0000 
     64 H          17.4943   77.8421   75.5881 H         1 L3G1506     0.0000 
     65 H          16.2395   78.5781   74.5762 H         1 L3G1506     0.0000 
     66 H          14.1090   77.0103   77.5158 H         1 L3G1506     0.0000 
     67 H          15.1225   76.1658   78.6988 H         1 L3G1506     0.0000 
     68 H          16.2960   76.0418   74.5941 H         1 L3G1506     0.0000 
     69 H          14.7306   76.7790   74.9763 H         1 L3G1506     0.0000 
     70 H           3.1216   68.3627   72.5932 H         1 L3G1506     0.0000 
     71 H           2.6037   71.3752   76.3432 H         1 L3G1506     0.0000 
     72 H          16.8216   75.7622   76.9397 H         1 L3G1506     0.0000 
     73 H           0.9338   68.6902   73.5833 H         1 L3G1506     0.0000 
     74 H           0.6721   70.2104   75.4548 H         1 L3G1506     0.0000 
     75 H          11.0906   69.6835   78.6725 H         1 L3G1506     0.0000 
     76 H          10.5089   70.9716   79.4397 H         1 L3G1506     0.0000 
     77 H           9.6909   69.5872   79.4586 H         1 L3G1506     0.0000 
     78 H           6.4758   69.5043   71.8013 H         1 L3G1506     0.0000 
     79 H           6.7441   68.2837   72.8135 H         1 L3G1506     0.0000 
     80 H           5.3586   68.3648   72.0009 H         1 L3G1506     0.0000 
@<TRIPOS>BOND
     1    2    1 1    
     2    3    1 1    
     3    4    1 2    
     4    5    2 ar   
     5    6    2 ar   
     6    7    3 ar   
     7    8    3 ar   
     8    9    4 1    
     9    9    5 1    
    10   10    5 ar   
    11   11    6 ar   
    12   12    6 1    
    13   13    7 ar   
    14   44    7 1    
    15   14    8 ar   
    16   45    8 1    
    17   40    9 1    
    18   15   10 ar   
    19   15   11 ar   
    20   46   12 1    
    21   47   12 1    
    22   16   13 ar   
    23   17   13 1    
    24   16   14 ar   
    25   48   14 1    
    26   49   15 1    
    27   20   16 1    
    28   21   17 1    
    29   22   18 1    
    30   43   18 1    
    31   50   18 1    
    32   51   18 1    
    33   23   19 1    
    34   43   19 1    
    35   52   19 1    
    36   53   19 1    
    37   24   20 am   
    38   54   20 1    
    39   75   21 1    
    40   76   21 1    
    41   77   21 1    
    42   25   22 1    
    43   55   22 1    
    44   56   22 1    
    45   25   23 1    
    46   57   23 1    
    47   58   23 1    
    48   26   24 1    
    49   27   24 2    
    50   28   25 1    
    51   59   25 1    
    52   29   26 1    
    53   30   26 2    
    54   31   28 1    
    55   32   28 1    
    56   60   28 1    
    57   33   29 1    
    58   34   29 1    
    59   35   30 1    
    60   61   30 1    
    61   36   31 1    
    62   62   31 1    
    63   63   31 1    
    64   37   32 1    
    65   64   32 1    
    66   65   32 1    
    67   35   33 ar   
    68   38   33 ar   
    69   78   34 1    
    70   79   34 1    
    71   80   34 1    
    72   39   35 ar   
    73   40   36 1    
    74   66   36 1    
    75   67   36 1    
    76   40   37 1    
    77   68   37 1    
    78   69   37 1    
    79   41   38 ar   
    80   70   38 1    
    81   42   39 ar   
    82   71   39 1    
    83   72   40 1    
    84   42   41 ar   
    85   73   41 1    
    86   74   42 1    
@<TRIPOS>SUBSTRUCTURE
     1 L3G1506     1 GROUP   
@<TRIPOS>SET

