#    Name: 2axn_ADP_1_INTS_M
#    Modification time : Mon Mar 24 19:42:42 2014

@<TRIPOS>MOLECULE
2axn_ADP_1_INTS_M
   78     0    12     0     0
SMALL
NO_CHARGES


@<TRIPOS>ATOM
      1 NZ         -5.0275   49.0765    4.8530 N.4       3 LYC4        0.0000 
      2 NZ         -6.1950   48.6250    5.4210 N.4      11 LYL4        0.0000 
      3 NZ         -3.8600   49.5280    4.2850 N.4       7 LYP4        0.0000 
      4 N          -5.9805   47.6545    6.4765 N.am      2 SEC2        0.0000 
      5 N          -6.1950   48.6250    5.4210 N.am     10 SEL2        0.0000 
      6 N          -5.7660   46.6840    7.5320 N.am      6 SEP2        0.0000 
      7 N          -6.8685   49.7820    6.2345 N.am      2 SEC2        0.0000 
      8 N          -7.5420   50.9390    7.0480 N.am      6 SEP2        0.0000 
      9 N          -5.0275   49.0765    4.8530 N.am      2 SEC2        0.0000 
     10 N          -3.8600   49.5280    4.2850 N.am      6 SEP2        0.0000 
     11 NZ         -8.4710   47.6610    3.0325 N.4       3 LYC4        0.0000 
     12 NZ         -7.9610   49.4200    3.7960 N.4      11 LYL4        0.0000 
     13 NZ         -8.9810   45.9020    2.2690 N.4       7 LYP4        0.0000 
     14 N          -8.5805   50.6465    4.3485 N.am      2 SEC2        0.0000 
     15 N          -7.9610   49.4200    3.7960 N.am     10 SEL2        0.0000 
     16 N          -9.2000   51.8730    4.9010 N.am      6 SEP2        0.0000 
     17 NZ         -5.3300   48.3810    3.8775 N.4       3 LYC4        0.0000 
     18 NZ         -6.8000   47.2340    3.4700 N.4      11 LYL4        0.0000 
     19 NZ         -7.8905   46.5680    2.8695 N.4       3 LYC4        0.0000 
     20 N          -6.1525   46.3050    4.2915 N.am      2 SEC2        0.0000 
     21 N          -6.8000   47.2340    3.4700 N.am     10 SEL2        0.0000 
     22 N          -5.5050   45.3760    5.1130 N.am      6 SEP2        0.0000 
     23 N          -7.8905   46.5680    2.8695 N.am      2 SEC2        0.0000 
     24 N          -8.9810   45.9020    2.2690 N.am      6 SEP2        0.0000 
     25 N         -11.0095   50.5410    5.9395 N.am      2 SEC2        0.0000 
     26 N         -10.3600   49.3440    5.8240 N.am     10 SEL2        0.0000 
     27 N         -11.6590   51.7380    6.0550 N.am      6 SEP2        0.0000 
     28 NZ         -9.7275   46.6475    3.1990 N.4       3 LYC4        0.0000 
     29 NZ        -10.4740   47.3930    4.1290 N.4      11 LYL4        0.0000 
     30 N          -9.7275   46.6475    3.1990 N.am      2 SEC2        0.0000 
     31 N         -10.4740   47.3930    4.1290 N.am     10 SEL2        0.0000 
     32 N          -8.0160   48.0830    6.9235 N.am      2 SEC2        0.0000 
     33 N          -8.3790   47.7090    5.4940 N.am     10 SEL2        0.0000 
     34 N          -7.6530   48.4570    8.3530 N.am      6 SEP2        0.0000 
     35 CA        -12.6715   48.1725    5.8100 C.3       4 GLC5        0.0000 
     36 CA        -11.7580   47.2810    7.2170 C.3      12 GLL5        0.0000 
     37 CA        -13.5850   49.0640    4.4030 C.3       8 GLP5        0.0000 
     38 CA        -10.7495   44.7390    8.6095 C.3       4 GLC5        0.0000 
     39 CA        -11.7850   46.4330    8.4440 C.3      12 GLL5        0.0000 
     40 CA         -9.7140   43.0450    8.7750 C.3       8 GLP5        0.0000 
     41 CA        -12.9070   48.0165   12.6065 C.3       4 GLC5        0.0000 
     42 CA        -12.7850   47.0610   10.5930 C.3      12 GLL5        0.0000 
     43 CA        -13.0290   48.9720   14.6200 C.3       8 GLP5        0.0000 
     44 CA         -9.9840   48.1890    9.6315 C.3       4 GLC5        0.0000 
     45 CA        -11.2650   46.9460   10.6670 C.3      12 GLL5        0.0000 
     46 CA         -8.7030   49.4320    8.5960 C.3       8 GLP5        0.0000 
     47 CA        -11.1100   49.1395   13.5980 C.3       4 GLC5        0.0000 
     48 CA         -9.1910   49.3070   12.5760 C.3      12 GLL5        0.0000 
     49 CA         -7.6810   49.1535   15.1820 C.3       4 GLC5        0.0000 
     50 CA         -7.9400   49.4450   13.2530 C.3      12 GLL5        0.0000 
     51 CA         -7.4220   48.8620   17.1110 C.3       8 GLP5        0.0000 
     52 O          -6.1270   50.2915   14.3125 O.2       1 ALC1        0.0000 
     53 O          -7.5700   50.6870   13.8870 O.2       9 ALL1        0.0000 
     54 O          -4.6840   49.8960   14.7380 O.2       5 ALP1        0.0000 
     55 CA         -6.4515   47.2685   10.7480 C.3       4 GLC5        0.0000 
     56 CA         -7.3910   47.1860   12.6890 C.3      12 GLL5        0.0000 
     57 CA         -5.5120   47.3510    8.8070 C.3       8 GLP5        0.0000 
     58 CA         -5.4915   46.4800   13.0385 C.3       4 GLC5        0.0000 
     59 CA         -3.5920   45.7740   13.3880 C.3       8 GLP5        0.0000 
     60 CA         -7.6625   45.3490   13.2555 C.3       4 GLC5        0.0000 
     61 CA         -7.9340   43.5120   13.8220 C.3       8 GLP5        0.0000 
     62 CA         -7.5515   46.7890   14.6810 C.3       4 GLC5        0.0000 
     63 CA         -7.7120   46.3920   16.6730 C.3       8 GLP5        0.0000 
     64 N          -8.5700   45.7440   11.1500 N.am      2 SEC2        0.0000 
     65 N          -8.5440   46.9250   12.0200 N.am     10 SEL2        0.0000 
     66 N          -8.5960   44.5630   10.2800 N.am      6 SEP2        0.0000 
     67 CA        -10.2372   48.1445    8.2132 C.3       4 GLC5        0.0000 
     68 CA        -12.1892   48.7980    7.9447 C.3       4 GLC5        0.0000 
     69 CA        -12.6070   50.7390    8.0590 C.3       8 GLP5        0.0000 
     70 CA        -12.1997   45.7550    6.1813 C.3       4 GLC5        0.0000 
     71 CA        -12.6280   44.6530    4.5320 C.3       8 GLP5        0.0000 
     72 CA        -13.8635   48.3918    9.5442 C.3       4 GLC5        0.0000 
     73 CA        -13.1110   46.3720    9.2520 C.3      12 GLL5        0.0000 
     74 CA        -14.7790   50.0670    9.1660 C.3       8 GLP5        0.0000 
     75 CA         -9.0000   49.0475   10.4413 C.3       4 GLC5        0.0000 
     76 CA         -9.4030   48.0190   11.9970 C.3      12 GLL5        0.0000 
     77 CA         -9.4810   48.2890   14.3748 C.3       4 GLC5        0.0000 
     78 CA         -9.6650   47.9150   16.4630 C.3       8 GLP5        0.0000 
@<TRIPOS>BOND
@<TRIPOS>SUBSTRUCTURE
     1 ALC1       52 GROUP        1 X    ALC  0     ROOT ALC X 1
     2 SEC2        4 GROUP        1 X    SEC  0     **** SEC X 2
     3 LYC4        1 GROUP        1 X    LYC  0     **** LYC X 4
     4 GLC5       35 GROUP        1 X    GLC  0     **** GLC X 6
     5 ALP1       54 GROUP        1 Y    ALP  0     ROOT ALP Y 8
     6 SEP2        6 GROUP        1 Y    SEP  0     **** SEP Y 9
     7 LYP4        3 GROUP        1 Y    LYP  0     **** LYP Y 11
     8 GLP5       37 GROUP        1 Y    GLP  0     **** GLP Y 13
     9 ALL1       53 GROUP        1 Z    ALL  0     ROOT ALL Z 15
    10 SEL2        5 GROUP        1 Z    SEL  0     **** SEL Z 16
    11 LYL4        2 GROUP        1 Z    LYL  0     **** LYL Z 18
    12 GLL5       36 GROUP        1 Z    GLL  0     **** GLL Z 20
@<TRIPOS>SET

