#    Name: 2axn_ADP_1_ligand
#    Modification time : Mon Mar 24 19:42:42 2014

@<TRIPOS>MOLECULE
2axn_ADP_1_ligand
   39    41     1     0     0
SMALL
NO_CHARGES


@<TRIPOS>ATOM
      1 PB         -7.3300   48.2780    4.5150 P.3       1 ADP738      0.0000 
      2 O1B        -6.1950   48.6250    5.4210 O.co2     1 ADP738      0.0000 
      3 O2B        -7.9610   49.4200    3.7960 O.co2     1 ADP738      0.0000 
      4 O3B        -6.8000   47.2340    3.4700 O.co2     1 ADP738      0.0000 
      5 PA        -10.0280   47.9480    5.4170 P.3       1 ADP738      0.0000 
      6 O1A       -10.3600   49.3440    5.8240 O.co2     1 ADP738      0.0000 
      7 O2A       -10.4740   47.3930    4.1290 O.co2     1 ADP738      0.0000 
      8 O3A        -8.3790   47.7090    5.4940 O.3       1 ADP738      0.0000 
      9 O5'       -10.4460   47.1080    6.6840 O.3       1 ADP738      0.0000 
     10 C5'       -11.7580   47.2810    7.2170 C.3       1 ADP738      0.0000 
     11 C4'       -11.7850   46.4330    8.4440 C.3       1 ADP738      0.0000 
     12 O4'       -10.7800   46.8630    9.3610 O.3       1 ADP738      0.0000 
     13 C3'       -13.1110   46.3720    9.2520 C.3       1 ADP738      0.0000 
     14 O3'       -13.4530   45.0260    9.4820 O.3       1 ADP738      0.0000 
     15 C2'       -12.7850   47.0610   10.5930 C.3       1 ADP738      0.0000 
     16 O2'       -13.4340   46.4880   11.7320 O.3       1 ADP738      0.0000 
     17 C1'       -11.2650   46.9460   10.6670 C.3       1 ADP738      0.0000 
     18 N9        -10.6380   48.0720   11.4040 N.pl3     1 ADP738      0.0000 
     19 C8        -11.0540   49.3670   11.6780 C.2       1 ADP738      0.0000 
     20 N7        -10.2500   50.1550   12.3730 N.2       1 ADP738      0.0000 
     21 C5         -9.1910   49.3070   12.5760 C.ar      1 ADP738      0.0000 
     22 C6         -7.9400   49.4450   13.2530 C.ar      1 ADP738      0.0000 
     23 N6         -7.5700   50.6870   13.8870 N.pl3     1 ADP738      0.0000 
     24 N1         -7.0640   48.3790   13.2870 N.ar      1 ADP738      0.0000 
     25 C2         -7.3910   47.1860   12.6890 C.ar      1 ADP738      0.0000 
     26 N3         -8.5440   46.9250   12.0200 N.ar      1 ADP738      0.0000 
     27 C4         -9.4030   48.0190   11.9970 C.ar      1 ADP738      0.0000 
     28 H         -12.5175   46.9344    6.5316 H         1 ADP738      0.0000 
     29 H         -11.9455   48.3082    7.4936 H         1 ADP738      0.0000 
     30 H         -11.5539   45.3838    8.1592 H         1 ADP738      0.0000 
     31 H         -13.8335   46.9343    8.7473 H         1 ADP738      0.0000 
     32 H         -13.0085   48.1142   10.4619 H         1 ADP738      0.0000 
     33 H         -11.0501   46.0110   11.2079 H         1 ADP738      0.0000 
     34 H         -11.9739   49.6794   11.3346 H         1 ADP738      0.0000 
     35 H          -6.6803   50.7001   14.3434 H         1 ADP738      0.0000 
     36 H          -8.2340   51.4315   13.8173 H         1 ADP738      0.0000 
     37 H          -6.6668   46.3933   12.7602 H         1 ADP738      0.0000 
     38 H         -13.5978   44.9610   10.4693 H         1 ADP738      0.0000 
     39 H         -12.6959   46.0919   12.2782 H         1 ADP738      0.0000 
@<TRIPOS>BOND
     1    2    1 ar   
     2    3    1 ar   
     3    4    1 ar   
     4    8    1 1    
     5    6    5 ar   
     6    7    5 ar   
     7    8    5 1    
     8    9    5 1    
     9   10    9 1    
    10   11   10 1    
    11   28   10 1    
    12   29   10 1    
    13   12   11 1    
    14   13   11 1    
    15   30   11 1    
    16   17   12 1    
    17   14   13 1    
    18   15   13 1    
    19   31   13 1    
    20   38   14 1    
    21   16   15 1    
    22   17   15 1    
    23   32   15 1    
    24   39   16 1    
    25   18   17 1    
    26   33   17 1    
    27   19   18 1    
    28   27   18 1    
    29   20   19 2    
    30   34   19 1    
    31   21   20 1    
    32   22   21 ar   
    33   27   21 ar   
    34   23   22 1    
    35   24   22 ar   
    36   35   23 1    
    37   36   23 1    
    38   25   24 ar   
    39   26   25 ar   
    40   37   25 1    
    41   27   26 ar   
@<TRIPOS>SUBSTRUCTURE
     1 ADP738      1 GROUP   
@<TRIPOS>SET

