#    Name: 3ex8_AIF_1_INTS_M
#    Modification time : Tue Mar 25 02:43:40 2014

@<TRIPOS>MOLECULE
3ex8_AIF_1_INTS_M
   48     0    12     0     0
SMALL
NO_CHARGES


@<TRIPOS>ATOM
      1 O          46.3200   50.8515   74.8045 O.2       1 ALC1        0.0000 
      2 O          45.9930   51.7750   75.2410 O.2       9 ALL1        0.0000 
      3 O          46.6470   49.9280   74.3680 O.2       5 ALP1        0.0000 
      4 N          43.2570   49.4160   74.1410 N.am      2 SEC2        0.0000 
      5 N          44.1160   50.6510   74.6110 N.am     10 SEL2        0.0000 
      6 N          42.3980   48.1810   73.6710 N.am      6 SEP2        0.0000 
      7 N          44.6445   49.2850   74.0715 N.am      2 SEC2        0.0000 
      8 N          45.1730   47.9190   73.5320 N.am      6 SEP2        0.0000 
      9 N          45.3815   50.2895   74.4895 N.am      2 SEC2        0.0000 
     10 N          46.6470   49.9280   74.3680 N.am      6 SEP2        0.0000 
     11 NZ         46.2665   56.6425   84.2740 N.4       3 LYC4        0.0000 
     12 NZ         45.2130   56.7870   82.7200 N.4      11 LYL4        0.0000 
     13 NZ         47.3200   56.4980   85.8280 N.4       7 LYP4        0.0000 
     14 N          46.3840   57.9245   82.5145 N.am      2 SEC2        0.0000 
     15 N          45.2130   56.7870   82.7200 N.am     10 SEL2        0.0000 
     16 N          47.5550   59.0620   82.3090 N.am      6 SEP2        0.0000 
     17 NZ         46.2865   59.1910   82.6750 N.4       3 LYC4        0.0000 
     18 NZ         45.0180   59.3200   83.0410 N.4      11 LYL4        0.0000 
     19 NZ         47.9160   59.2190   81.0390 N.4       7 LYP4        0.0000 
     20 N          46.2865   59.1910   82.6750 N.am      2 SEC2        0.0000 
     21 N          45.0180   59.3200   83.0410 N.am     10 SEL2        0.0000 
     22 N          43.7275   60.3660   83.4925 N.am      2 SEC2        0.0000 
     23 N          42.4370   61.4120   83.9440 N.am      6 SEP2        0.0000 
     24 N          44.9710   60.6580   83.2320 N.am      2 SEC2        0.0000 
     25 N          44.9240   61.9960   83.4230 N.am      6 SEP2        0.0000 
     26 N          45.7890   58.6630   80.3765 N.am      2 SEC2        0.0000 
     27 N          44.5560   58.2330   80.6840 N.am     10 SEL2        0.0000 
     28 N          47.0220   59.0930   80.0690 N.am      6 SEP2        0.0000 
     29 O          45.8935   58.1830   77.6490 O.2       1 ALC1        0.0000 
     30 O          45.1540   57.1500   78.1080 O.2       9 ALL1        0.0000 
     31 O          46.6330   59.2160   77.1900 O.2       5 ALP1        0.0000 
     32 CA         40.8255   58.0465   77.7625 C.3       4 GLC5        0.0000 
     33 CA         42.9150   57.6660   77.2720 C.3      12 GLL5        0.0000 
     34 CA         38.7360   58.4270   78.2530 C.3       8 GLP5        0.0000 
     35 O          40.8425   57.9230   76.8965 O.2       1 ALC1        0.0000 
     36 O          41.9210   58.6960   77.2670 O.2       9 ALL1        0.0000 
     37 O          39.7640   57.1500   76.5260 O.2       5 ALP1        0.0000 
     38 O          41.0810   57.3130   75.7125 O.2       1 ALC1        0.0000 
     39 O          42.3980   57.4760   74.8990 O.2       9 ALL1        0.0000 
     40 CA         45.5930   52.9505   73.6240 C.3       4 GLC5        0.0000 
     41 CA         44.5030   54.1120   75.1500 C.3      12 GLL5        0.0000 
     42 CA         46.9860   52.3930   72.2630 C.3       8 GLP5        0.0000 
     43 CA         43.3550   52.7830   76.3995 C.3       4 GLC5        0.0000 
     44 CA         43.8970   52.9040   74.8200 C.3      12 GLL5        0.0000 
     45 CA         42.5100   52.0580   77.8140 C.3       8 GLP5        0.0000 
     46 CA         42.8105   59.3455   80.0128 C.3       4 GLC5        0.0000 
     47 CA         44.0110   57.9890   78.2990 C.3      12 GLL5        0.0000 
     48 CA         41.8460   60.7740   81.0010 C.3       8 GLP5        0.0000 
@<TRIPOS>BOND
@<TRIPOS>SUBSTRUCTURE
     1 ALC1        1 GROUP        1 X    ALC  0     ROOT ALC X 1
     2 SEC2        4 GROUP        1 X    SEC  0     **** SEC X 2
     3 LYC4       11 GROUP        1 X    LYC  0     **** LYC X 4
     4 GLC5       32 GROUP        1 X    GLC  0     **** GLC X 6
     5 ALP1        3 GROUP        1 Y    ALP  0     ROOT ALP Y 8
     6 SEP2        6 GROUP        1 Y    SEP  0     **** SEP Y 9
     7 LYP4       13 GROUP        1 Y    LYP  0     **** LYP Y 11
     8 GLP5       34 GROUP        1 Y    GLP  0     **** GLP Y 13
     9 ALL1        2 GROUP        1 Z    ALL  0     ROOT ALL Z 15
    10 SEL2        5 GROUP        1 Z    SEL  0     **** SEL Z 16
    11 LYL4       12 GROUP        1 Z    LYL  0     **** LYL Z 18
    12 GLL5       33 GROUP        1 Z    GLL  0     **** GLL Z 20
@<TRIPOS>SET

