#    Name: 3ex8_AIF_1_ligand
#    Modification time : Tue Mar 25 02:43:40 2014

@<TRIPOS>MOLECULE
3ex8_AIF_1_ligand
   36    36     1     0     0
SMALL
NO_CHARGES


@<TRIPOS>ATOM
      1 C4         44.6430   51.7400   74.8720 C.2       1 AIF381      0.0000 
      2 C5         43.8970   52.9040   74.8200 C.2       1 AIF381      0.0000 
      3 C6         44.5030   54.1120   75.1500 C.2       1 AIF381      0.0000 
      4 N1         45.8500   54.1860   75.5100 N.am      1 AIF381      0.0000 
      5 N3         45.9930   51.7750   75.2410 N.am      1 AIF381      0.0000 
      6 N5         42.5970   52.8410   74.5160 N.pl3     1 AIF381      0.0000 
      7 O2         47.7490   53.0270   75.9590 O.2       1 AIF381      0.0000 
      8 O4         44.1160   50.6510   74.6110 O.2       1 AIF381      0.0000 
      9 O1P        45.2130   56.7870   82.7200 O.co2     1 AIF381      0.0000 
     10 P          44.3470   58.0690   82.2770 P.3       1 AIF381      0.0000 
     11 O3P        45.0180   59.3200   83.0410 O.co2     1 AIF381      0.0000 
     12 O2P        42.9170   57.9260   82.6300 O.co2     1 AIF381      0.0000 
     13 O5'        44.5560   58.2330   80.6840 O.3       1 AIF381      0.0000 
     14 C5'        43.5390   57.8450   79.7500 C.3       1 AIF381      0.0000 
     15 C4'        44.0110   57.9890   78.2990 C.3       1 AIF381      0.0000 
     16 O4'        45.1540   57.1500   78.1080 O.3       1 AIF381      0.0000 
     17 C3'        42.9150   57.6660   77.2720 C.3       1 AIF381      0.0000 
     18 O3'        41.9210   58.6960   77.2670 O.3       1 AIF381      0.0000 
     19 C2'        43.4640   57.5850   75.8440 C.3       1 AIF381      0.0000 
     20 O2'        42.3980   57.4760   74.8990 O.3       1 AIF381      0.0000 
     21 C1'        44.3490   56.3480   75.6520 C.2       1 AIF381      0.0000 
     22 N1'        43.7720   55.2170   75.3130 N.2       1 AIF381      0.0000 
     23 C2         46.5990   53.0000   75.5610 C.2       1 AIF381      0.0000 
     24 H          46.2822   55.0781   75.7311 H         1 AIF381      0.0000 
     25 H          46.5387   50.9096   75.2779 H         1 AIF381      0.0000 
     26 H          42.1107   53.7141   74.4799 H         1 AIF381      0.0000 
     27 H          42.2273   51.9265   74.3519 H         1 AIF381      0.0000 
     28 H          42.6291   58.4591   79.8659 H         1 AIF381      0.0000 
     29 H          43.2350   56.7942   79.8978 H         1 AIF381      0.0000 
     30 H          44.2989   59.0397   78.1569 H         1 AIF381      0.0000 
     31 H          42.4766   56.7146   77.5159 H         1 AIF381      0.0000 
     32 H          44.0646   58.4551   75.6494 H         1 AIF381      0.0000 
     33 H          45.3349   56.5019   75.8051 H         1 AIF381      0.0000 
     34 H          45.8495   57.7473   77.7087 H         1 AIF381      0.0000 
     35 H          41.0799   58.2424   76.9723 H         1 AIF381      0.0000 
     36 H          41.5763   57.3347   75.4511 H         1 AIF381      0.0000 
@<TRIPOS>BOND
     1    2    1 1    
     2    5    1 am   
     3    8    1 2    
     4    3    2 2    
     5    6    2 1    
     6    4    3 1    
     7   22    3 1    
     8   23    4 am   
     9   24    4 1    
    10   23    5 am   
    11   25    5 1    
    12   26    6 1    
    13   27    6 1    
    14   23    7 2    
    15   10    9 ar   
    16   11   10 ar   
    17   12   10 ar   
    18   13   10 1    
    19   14   13 1    
    20   15   14 1    
    21   28   14 1    
    22   29   14 1    
    23   16   15 1    
    24   17   15 1    
    25   30   15 1    
    26   34   16 1    
    27   18   17 1    
    28   19   17 1    
    29   31   17 1    
    30   35   18 1    
    31   20   19 1    
    32   21   19 1    
    33   32   19 1    
    34   36   20 1    
    35   22   21 2    
    36   33   21 1    
@<TRIPOS>SUBSTRUCTURE
     1 AIF381      1 GROUP   
@<TRIPOS>SET

