#    Name: 3vwe_COA_1_INTS_M
#    Modification time : Tue Mar 25 01:46:42 2014

@<TRIPOS>MOLECULE
3vwe_COA_1_INTS_M
  108     0    12     0     0
SMALL
NO_CHARGES


@<TRIPOS>ATOM
      1 CA         -0.5470    7.5150   33.5565 C.3       4 GLC5        0.0000 
      2 CA          0.7090    6.1310   33.4400 C.3      12 GLL5        0.0000 
      3 CA         -1.8030    8.8990   33.6730 C.3       8 GLP5        0.0000 
      4 CA         -0.0560    5.5420   30.6215 C.3       4 GLC5        0.0000 
      5 CA          1.8410    6.3280   31.3760 C.3      12 GLL5        0.0000 
      6 CA         -1.9530    4.7560   29.8670 C.3       8 GLP5        0.0000 
      7 N           5.3415   11.8235   30.5245 N.am      2 SEC2        0.0000 
      8 N           4.2500   10.5670   30.8760 N.am     10 SEL2        0.0000 
      9 N           6.4330   13.0800   30.1730 N.am      6 SEP2        0.0000 
     10 NZ          5.9840   12.5635   31.2500 N.4       3 LYC4        0.0000 
     11 NZ          5.5350   12.0470   32.3270 N.4      11 LYL4        0.0000 
     12 NZ          6.4330   13.0800   30.1730 N.4       7 LYP4        0.0000 
     13 N           5.9840   12.5635   31.2500 N.am      2 SEC2        0.0000 
     14 N           5.5350   12.0470   32.3270 N.am     10 SEL2        0.0000 
     15 NZ          5.6090    8.0775   32.6980 N.4       3 LYC4        0.0000 
     16 NZ          5.9840    9.5410   32.3070 N.4      11 LYL4        0.0000 
     17 NZ          4.5010    6.6710   34.1990 N.4       7 LYP4        0.0000 
     18 N           5.6090    8.0775   32.6980 N.am      2 SEC2        0.0000 
     19 N           5.9840    9.5410   32.3070 N.am     10 SEL2        0.0000 
     20 N           5.2340    6.6140   33.0890 N.am      6 SEP2        0.0000 
     21 NZ          3.7820    9.0615   33.8620 N.4       3 LYC4        0.0000 
     22 NZ          3.8310   10.3980   33.2830 N.4      11 LYL4        0.0000 
     23 NZ          1.8580   10.5915   33.4530 N.4       3 LYC4        0.0000 
     24 NZ         -0.1150   10.7850   33.6230 N.4       7 LYP4        0.0000 
     25 N           3.7820    9.0615   33.8620 N.am      2 SEC2        0.0000 
     26 N           3.8310   10.3980   33.2830 N.am     10 SEL2        0.0000 
     27 N           3.7330    7.7250   34.4410 N.am      6 SEP2        0.0000 
     28 CA          3.0880    8.9700   26.8780 C.3       4 GLC5        0.0000 
     29 CA          3.8970    9.2600   28.8410 C.3      12 GLL5        0.0000 
     30 CA          2.2790    8.6800   24.9150 C.3       8 GLP5        0.0000 
     31 CA          6.6945    7.2880   28.8760 C.3       4 GLC5        0.0000 
     32 CA          5.2690    8.8060   28.3560 C.3      12 GLL5        0.0000 
     33 CA          8.1200    5.7700   29.3960 C.3       8 GLP5        0.0000 
     34 N           5.0130   10.3475   26.4070 N.am      2 SEC2        0.0000 
     35 N           5.3330    8.9730   26.9410 N.am     10 SEL2        0.0000 
     36 N           4.6930   11.7220   25.8730 N.am      6 SEP2        0.0000 
     37 N           6.2360    8.6350   23.3510 N.am      2 SEC2        0.0000 
     38 N           6.4610    8.6620   24.7440 N.am     10 SEL2        0.0000 
     39 N           6.0110    8.6080   21.9580 N.am      6 SEP2        0.0000 
     40 N           8.7190    7.6365   26.4030 N.am      2 SEC2        0.0000 
     41 N           7.4280    7.5410   26.8770 N.am     10 SEL2        0.0000 
     42 N          10.0100    7.7320   25.9290 N.am      6 SEP2        0.0000 
     43 N           6.8900    5.4955   23.6740 N.am      2 SEC2        0.0000 
     44 N           6.7130    4.9540   24.9340 N.am     10 SEL2        0.0000 
     45 N           7.0670    6.0370   22.4140 N.am      6 SEP2        0.0000 
     46 N           6.5535    4.5795   27.9130 N.am      2 SEC2        0.0000 
     47 N           5.3550    4.6020   27.1620 N.am     10 SEL2        0.0000 
     48 N           7.7520    4.5570   28.6640 N.am      6 SEP2        0.0000 
     49 CA          2.5775    6.7400   25.2435 C.3       4 GLC5        0.0000 
     50 CA          2.8760    4.8000   25.5720 C.3      12 GLL5        0.0000 
     51 CA         -0.2155    3.6975   27.5920 C.3       4 GLC5        0.0000 
     52 CA          0.6110    3.8310   25.6120 C.3      12 GLL5        0.0000 
     53 CA         -1.0420    3.5640   29.5720 C.3       8 GLP5        0.0000 
     54 CA         -1.1085    4.9570   26.0125 C.3       4 GLC5        0.0000 
     55 CA         -2.8280    6.0830   26.4130 C.3       8 GLP5        0.0000 
     56 CA          2.0165    4.3995   22.2055 C.3       4 GLC5        0.0000 
     57 CA          2.0890    3.2580   23.7060 C.3      12 GLL5        0.0000 
     58 CA          1.9440    5.5410   20.7050 C.3       8 GLP5        0.0000 
     59 CA          2.1290    1.2870   22.6900 C.3       4 GLC5        0.0000 
     60 CA          2.1690   -0.6840   21.6740 C.3       8 GLP5        0.0000 
     61 CA          3.9155    2.8535   23.1270 C.3       4 GLC5        0.0000 
     62 CA          5.7420    2.4490   22.5480 C.3       8 GLP5        0.0000 
     63 CA          4.3285    1.8810   24.7890 C.3       4 GLC5        0.0000 
     64 CA          2.6230    2.4250   26.0150 C.3      12 GLL5        0.0000 
     65 CA          6.0340    1.3370   23.5630 C.3       8 GLP5        0.0000 
     66 CA          4.3020    1.5485   26.8095 C.3       4 GLC5        0.0000 
     67 CA          5.9810    0.6720   27.6040 C.3       8 GLP5        0.0000 
     68 N           3.3110    0.0805   23.8600 N.am      2 SEC2        0.0000 
     69 N           2.4010    0.3420   24.8930 N.am     10 SEL2        0.0000 
     70 N           4.2210   -0.1810   22.8270 N.am      6 SEP2        0.0000 
     71 CA         -2.3300   -2.0665   25.0380 C.3       4 GLC5        0.0000 
     72 CA         -0.5960   -0.7010   25.2050 C.3      12 GLL5        0.0000 
     73 CA         -4.0640   -3.4320   24.8710 C.3       8 GLP5        0.0000 
     74 CA          0.9840   -2.0150   24.4235 C.3       4 GLC5        0.0000 
     75 CA          2.5640   -3.3290   23.6420 C.3       8 GLP5        0.0000 
     76 N          -2.9085    1.5795   26.9260 N.am      2 SEC2        0.0000 
     77 N          -2.0720    0.7840   26.3340 N.am     10 SEL2        0.0000 
     78 N          -3.7450    2.3750   27.5180 N.am      6 SEP2        0.0000 
     79 O          -1.3350    0.4000   22.9700 O.2       1 ALC1        0.0000 
     80 O          -2.2240    0.7080   24.0910 O.2       9 ALL1        0.0000 
     81 O          -0.4460    0.0920   21.8490 O.2       5 ALP1        0.0000 
     82 CA         -6.2375    2.2295   24.1390 C.3       4 GLC5        0.0000 
     83 CA         -4.6500    1.0230   23.6260 C.3      12 GLL5        0.0000 
     84 CA         -7.8250    3.4360   24.6520 C.3       8 GLP5        0.0000 
     85 CA         -4.0790    0.1700   19.8810 C.3       4 GLC5        0.0000 
     86 CA         -4.6220    0.7750   21.8290 C.3      12 GLL5        0.0000 
     87 CA         -3.5360   -0.4350   17.9330 C.3       8 GLP5        0.0000 
     88 CA         -2.8320    1.6205   20.9725 C.3       4 GLC5        0.0000 
     89 CA         -1.0420    2.4660   20.1160 C.3       8 GLP5        0.0000 
     90 CA         -4.4455    2.9455   22.3710 C.3       4 GLC5        0.0000 
     91 CA         -4.2690    5.1160   22.9130 C.3       8 GLP5        0.0000 
     92 CA          4.1775    5.0710   32.4810 C.3       4 GLC5        0.0000 
     93 CA          2.4310    5.0000   31.5970 C.3      12 GLL5        0.0000 
     94 CA          6.1080    5.4950   32.7370 C.3       8 GLP5        0.0000 
     95 CA          0.8115    3.6935   31.4950 C.3       4 GLC5        0.0000 
     96 CA         -0.6240    2.7400   30.7650 C.3       8 GLP5        0.0000 
     97 CA          0.1850    8.9200   30.6405 C.3       4 GLC5        0.0000 
     98 CA          1.9980    8.0620   29.5690 C.3      12 GLL5        0.0000 
     99 CA         -1.8060    9.2580   31.1920 C.3       8 GLP5        0.0000 
    100 CA          1.0445    9.2650   28.5845 C.3       4 GLC5        0.0000 
    101 CA          2.3540    9.1020   30.6090 C.3      12 GLL5        0.0000 
    102 CA         -0.0870    9.9480   27.0800 C.3       8 GLP5        0.0000 
    103 CA          3.9440   11.3643   29.5670 C.3       4 GLC5        0.0000 
    104 CA          4.0260   13.4390   29.5340 C.3       8 GLP5        0.0000 
    105 CA         -4.4155    1.4537   25.8820 C.3       4 GLC5        0.0000 
    106 CA         -3.3300    1.6520   24.0640 C.3      12 GLL5        0.0000 
    107 CA         -4.8410    1.5700   27.9190 C.3       8 GLP5        0.0000 
    108 CA         -4.1295    3.2268   23.3790 C.3       4 GLC5        0.0000 
@<TRIPOS>BOND
@<TRIPOS>SUBSTRUCTURE
     1 ALC1       79 GROUP        1 X    ALC  0     ROOT ALC X 1
     2 SEC2        7 GROUP        1 X    SEC  0     **** SEC X 2
     3 LYC4       10 GROUP        1 X    LYC  0     **** LYC X 4
     4 GLC5        1 GROUP        1 X    GLC  0     **** GLC X 6
     5 ALP1       81 GROUP        1 Y    ALP  0     ROOT ALP Y 8
     6 SEP2        9 GROUP        1 Y    SEP  0     **** SEP Y 9
     7 LYP4       12 GROUP        1 Y    LYP  0     **** LYP Y 11
     8 GLP5        3 GROUP        1 Y    GLP  0     **** GLP Y 13
     9 ALL1       80 GROUP        1 Z    ALL  0     ROOT ALL Z 15
    10 SEL2        8 GROUP        1 Z    SEL  0     **** SEL Z 16
    11 LYL4       11 GROUP        1 Z    LYL  0     **** LYL Z 18
    12 GLL5        2 GROUP        1 Z    GLL  0     **** GLL Z 20
@<TRIPOS>SET

