#    Name: 3vwe_COA_1_ligand
#    Modification time : Tue Mar 25 01:46:42 2014

@<TRIPOS>MOLECULE
3vwe_COA_1_ligand
   79    81     1     0     0
SMALL
NO_CHARGES


@<TRIPOS>ATOM
      1 N1A         1.2130    4.9110   33.7040 N.ar      1 COA201      0.0000 
      2 C2A         0.7090    6.1310   33.4400 C.ar      1 COA201      0.0000 
      3 N3A         0.9970    6.8260   32.3220 N.ar      1 COA201      0.0000 
      4 C4A         1.8410    6.3280   31.3760 C.ar      1 COA201      0.0000 
      5 C5A         2.4310    5.0000   31.5970 C.ar      1 COA201      0.0000 
      6 C6A         2.0630    4.2940   32.8530 C.ar      1 COA201      0.0000 
      7 N6A         2.5670    3.0700   33.1330 N.pl3     1 COA201      0.0000 
      8 N7A         3.2160    4.7400   30.5280 N.2       1 COA201      0.0000 
      9 C8A         3.1350    5.8110   29.6970 C.2       1 COA201      0.0000 
     10 N9A         2.3040    6.7520   30.1880 N.pl3     1 COA201      0.0000 
     11 C1B         1.9980    8.0620   29.5690 C.3       1 COA201      0.0000 
     12 C2B         2.3540    9.1020   30.6090 C.3       1 COA201      0.0000 
     13 O2B         1.6260   10.2980   30.3230 O.3       1 COA201      0.0000 
     14 C3B         3.8270    9.3190   30.3590 C.3       1 COA201      0.0000 
     15 O3B         4.2500   10.5670   30.8760 O.3       1 COA201      0.0000 
     16 P3B         4.9610   10.6530   32.3220 P.3       1 COA201      0.0000 
     17 O7A         5.5350   12.0470   32.3270 O.co2     1 COA201      0.0000 
     18 O8A         5.9840    9.5410   32.3070 O.co2     1 COA201      0.0000 
     19 O9A         3.8310   10.3980   33.2830 O.co2     1 COA201      0.0000 
     20 C4B         3.8970    9.2600   28.8410 C.3       1 COA201      0.0000 
     21 O4B         2.8800    8.3110   28.4610 O.3       1 COA201      0.0000 
     22 C5B         5.2690    8.8060   28.3560 C.3       1 COA201      0.0000 
     23 O5B         5.3330    8.9730   26.9410 O.3       1 COA201      0.0000 
     24 P1A         6.2330    7.9820   26.0690 P.3       1 COA201      0.0000 
     25 O1A         6.4610    8.6620   24.7440 O.co2     1 COA201      0.0000 
     26 O2A         7.4280    7.5410   26.8770 O.co2     1 COA201      0.0000 
     27 O3A         5.1900    6.7780   25.8650 O.3       1 COA201      0.0000 
     28 P2A         5.4830    5.2050   25.7820 P.3       1 COA201      0.0000 
     29 O4A         6.7130    4.9540   24.9340 O.co2     1 COA201      0.0000 
     30 O5A         5.3550    4.6020   27.1620 O.co2     1 COA201      0.0000 
     31 O6A         4.1650    4.7770   24.9560 O.3       1 COA201      0.0000 
     32 CBP         2.0510    3.5730   25.1930 C.3       1 COA201      0.0000 
     33 CCP         2.8760    4.8000   25.5720 C.3       1 COA201      0.0000 
     34 CDP         0.6110    3.8310   25.6120 C.3       1 COA201      0.0000 
     35 CEP         2.0890    3.2580   23.7060 C.3       1 COA201      0.0000 
     36 CAP         2.6230    2.4250   26.0150 C.3       1 COA201      0.0000 
     37 OAP         2.4520    2.7940   27.3860 O.3       1 COA201      0.0000 
     38 C9P         1.9640    1.0910   25.7570 C.2       1 COA201      0.0000 
     39 O9P         2.4010    0.3420   24.8930 O.2       1 COA201      0.0000 
     40 N8P         0.9290    0.7510   26.5250 N.am      1 COA201      0.0000 
     41 C7P         0.2990   -0.5590   26.4350 C.3       1 COA201      0.0000 
     42 C6P        -0.5960   -0.7010   25.2050 C.3       1 COA201      0.0000 
     43 C5P        -1.6990    0.3290   25.2580 C.2       1 COA201      0.0000 
     44 O5P        -2.0720    0.7840   26.3340 O.2       1 COA201      0.0000 
     45 N4P        -2.2240    0.7080   24.0910 N.am      1 COA201      0.0000 
     46 C3P        -3.3300    1.6520   24.0640 C.3       1 COA201      0.0000 
     47 C2P        -4.6500    1.0230   23.6260 C.3       1 COA201      0.0000 
     48 S1P        -4.6220    0.7750   21.8290 S.3       1 COA201      0.0000 
     49 H           0.0480    6.5704   34.1515 H         1 COA201      0.0000 
     50 H           2.2546    2.6499   33.9850 H         1 COA201      0.0000 
     51 H           3.2072    2.6940   32.4631 H         1 COA201      0.0000 
     52 H           3.6227    5.8854   28.8464 H         1 COA201      0.0000 
     53 H           0.9925    8.1492   29.3232 H         1 COA201      0.0000 
     54 H           2.2049    8.7135   31.5564 H         1 COA201      0.0000 
     55 H           4.3529    8.4817   30.7464 H         1 COA201      0.0000 
     56 H           3.6746   10.2288   28.4535 H         1 COA201      0.0000 
     57 H           5.4003    7.7617   28.6491 H         1 COA201      0.0000 
     58 H           6.0229    9.4058   28.8713 H         1 COA201      0.0000 
     59 H           2.3010    5.6940   25.2744 H         1 COA201      0.0000 
     60 H           2.9537    4.8231   26.6728 H         1 COA201      0.0000 
     61 H           3.6824    2.3500   25.7885 H         1 COA201      0.0000 
     62 H           0.5201    1.4045   27.2266 H         1 COA201      0.0000 
     63 H          -0.3189   -0.7584   27.3295 H         1 COA201      0.0000 
     64 H           1.0616   -1.3580   26.3942 H         1 COA201      0.0000 
     65 H          -1.0245   -1.6985   25.1908 H         1 COA201      0.0000 
     66 H           0.0026   -0.5534   24.3112 H         1 COA201      0.0000 
     67 H          -1.8850    0.3638   23.1833 H         1 COA201      0.0000 
     68 H          -3.1103    2.4929   23.3767 H         1 COA201      0.0000 
     69 H          -3.4844    2.1028   25.0643 H         1 COA201      0.0000 
     70 H          -5.4879    1.6551   23.7554 H         1 COA201      0.0000 
     71 H          -4.7961    0.0405   23.9890 H         1 COA201      0.0000 
     72 H           0.5336    3.9915   26.5960 H         1 COA201      0.0000 
     73 H           0.2288    4.6331   25.1532 H         1 COA201      0.0000 
     74 H           0.0163    3.0573   25.3935 H         1 COA201      0.0000 
     75 H           3.0199    3.0778   23.3882 H         1 COA201      0.0000 
     76 H           1.5419    2.4511   23.4832 H         1 COA201      0.0000 
     77 H           1.7331    4.0142   23.1570 H         1 COA201      0.0000 
     78 H           2.2520   11.0431   30.5531 H         1 COA201      0.0000 
     79 H           3.2489    3.3576   27.6035 H         1 COA201      0.0000 
@<TRIPOS>BOND
     1    2    1 ar   
     2    6    1 ar   
     3    3    2 ar   
     4   49    2 1    
     5    4    3 ar   
     6    5    4 ar   
     7   10    4 1    
     8    6    5 ar   
     9    8    5 1    
    10    7    6 1    
    11   50    7 1    
    12   51    7 1    
    13    9    8 2    
    14   10    9 1    
    15   52    9 1    
    16   11   10 1    
    17   12   11 1    
    18   21   11 1    
    19   53   11 1    
    20   13   12 1    
    21   14   12 1    
    22   54   12 1    
    23   78   13 1    
    24   15   14 1    
    25   20   14 1    
    26   55   14 1    
    27   16   15 1    
    28   17   16 ar   
    29   18   16 ar   
    30   19   16 ar   
    31   21   20 1    
    32   22   20 1    
    33   56   20 1    
    34   23   22 1    
    35   57   22 1    
    36   58   22 1    
    37   24   23 1    
    38   25   24 ar   
    39   26   24 ar   
    40   27   24 1    
    41   28   27 1    
    42   29   28 ar   
    43   30   28 ar   
    44   31   28 1    
    45   33   31 1    
    46   33   32 1    
    47   34   32 1    
    48   35   32 1    
    49   36   32 1    
    50   59   33 1    
    51   60   33 1    
    52   72   34 1    
    53   73   34 1    
    54   74   34 1    
    55   75   35 1    
    56   76   35 1    
    57   77   35 1    
    58   37   36 1    
    59   38   36 1    
    60   61   36 1    
    61   79   37 1    
    62   39   38 2    
    63   40   38 am   
    64   41   40 1    
    65   62   40 1    
    66   42   41 1    
    67   63   41 1    
    68   64   41 1    
    69   43   42 1    
    70   65   42 1    
    71   66   42 1    
    72   44   43 2    
    73   45   43 am   
    74   46   45 1    
    75   67   45 1    
    76   47   46 1    
    77   68   46 1    
    78   69   46 1    
    79   48   47 1    
    80   70   47 1    
    81   71   47 1    
@<TRIPOS>SUBSTRUCTURE
     1 COA201      1 GROUP   
@<TRIPOS>SET

