#    Name: 2c31_TZD_1_INTS_M
#    Modification time : Mon Mar 24 22:22:35 2014

@<TRIPOS>MOLECULE
2c31_TZD_1_INTS_M
   82     0    12     0     0
SMALL
NO_CHARGES


@<TRIPOS>ATOM
      1 CA         68.4680    4.6000   27.3370 C.3       4 GLC5        0.0000 
      2 CA         68.6450    3.3990   29.0450 C.3      12 GLL5        0.0000 
      3 CA         68.2910    5.8010   25.6290 C.3       8 GLP5        0.0000 
      4 CA         70.1010    2.3900   30.3800 C.3       4 GLC5        0.0000 
      5 CA         71.5570    1.3810   31.7150 C.3       8 GLP5        0.0000 
      6 CA         68.4435    4.4530   30.9560 C.3       4 GLC5        0.0000 
      7 CA         68.2420    5.5070   32.8670 C.3       8 GLP5        0.0000 
      8 CA         67.1190    2.4715   27.6385 C.3       4 GLC5        0.0000 
      9 CA         67.1660    3.3830   29.3580 C.3      12 GLL5        0.0000 
     10 CA         67.0720    1.5600   25.9190 C.3       8 GLP5        0.0000 
     11 CA         66.9785    4.3150   31.1025 C.3       4 GLC5        0.0000 
     12 CA         66.7910    5.2470   32.8470 C.3       8 GLP5        0.0000 
     13 N          68.5960    5.8685   28.3980 N.am      2 SEC2        0.0000 
     14 N          69.3490    4.5720   29.1750 N.am     10 SEL2        0.0000 
     15 N          67.8430    7.1650   27.6210 N.am      6 SEP2        0.0000 
     16 O          70.8625    7.1235   29.2745 O.2       1 ALC1        0.0000 
     17 O          71.3170    5.8370   29.0490 O.2       9 ALL1        0.0000 
     18 O          70.4080    8.4100   29.5000 O.2       5 ALP1        0.0000 
     19 CA         70.5945    0.5275   27.0375 C.3       4 GLC5        0.0000 
     20 CA         70.6240    2.2430   28.3350 C.3      12 GLL5        0.0000 
     21 CA         70.5650   -1.1880   25.7400 C.3       8 GLP5        0.0000 
     22 CA         74.5780    2.2930   28.0890 C.3       4 GLC5        0.0000 
     23 CA         72.9490    3.3670   28.0770 C.3      12 GLL5        0.0000 
     24 CA         76.2070    1.2190   28.1010 C.3       8 GLP5        0.0000 
     25 CA         73.3230    1.8805   29.4575 C.3       4 GLC5        0.0000 
     26 CA         73.6970    0.3940   30.8380 C.3       8 GLP5        0.0000 
     27 CA         75.2775    7.3035   24.2585 C.3       4 GLC5        0.0000 
     28 CA         74.0140    6.2580   25.4570 C.3      12 GLL5        0.0000 
     29 CA         76.5410    8.3490   23.0600 C.3       8 GLP5        0.0000 
     30 CA         72.1615    6.8885   25.1400 C.3       4 GLC5        0.0000 
     31 CA         70.3090    7.5190   24.8230 C.3       8 GLP5        0.0000 
     32 CA         70.2705    2.1750   25.1275 C.3       4 GLC5        0.0000 
     33 CA         72.2920    2.5940   25.0470 C.3      12 GLL5        0.0000 
     34 CA         68.2490    1.7560   25.2080 C.3       8 GLP5        0.0000 
     35 CA         73.2135    1.1500   23.6560 C.3       4 GLC5        0.0000 
     36 CA         74.1350   -0.2940   22.2650 C.3       8 GLP5        0.0000 
     37 CA         71.4285    0.7030   25.3935 C.3       4 GLC5        0.0000 
     38 CA         71.7235    6.2075   23.9755 C.3       4 GLC5        0.0000 
     39 CA         73.1380    4.8960   23.1280 C.3      12 GLL5        0.0000 
     40 CA         75.4625    6.8730   22.7195 C.3       4 GLC5        0.0000 
     41 CA         74.3840    5.3970   22.3790 C.3      12 GLL5        0.0000 
     42 N          74.4275    8.3705   21.0495 N.am      2 SEC2        0.0000 
     43 N          74.4140    7.3170   19.7390 N.am     10 SEL2        0.0000 
     44 N          74.4410    9.4240   22.3600 N.am      6 SEP2        0.0000 
     45 Zn         73.8910    5.3325   17.8440 Zn        3 ZIC7        0.0000 
     46 Zn         73.1750    5.4340   18.7160 Zn       11 ZIL7        0.0000 
     47 Zn         74.6070    5.2310   16.9720 Zn        7 ZIP7        0.0000 
     48 N          71.9295    4.8090   18.4605 N.am      2 SEC2        0.0000 
     49 N          73.1750    5.4340   18.7160 N.am     10 SEL2        0.0000 
     50 N          70.6840    4.1840   18.2050 N.am      6 SEP2        0.0000 
     51 N          70.8295    5.9400   20.5960 N.am      2 SEC2        0.0000 
     52 N          72.1600    6.5780   20.6420 N.am     10 SEL2        0.0000 
     53 N          69.4990    5.3020   20.5500 N.am      6 SEP2        0.0000 
     54 N          76.9475    9.0705   20.6230 N.am      2 SEC2        0.0000 
     55 N          76.8030    7.8430   20.1270 N.am     10 SEL2        0.0000 
     56 N          77.0920   10.2980   21.1190 N.am      6 SEP2        0.0000 
     57 N          78.2970    8.1965   19.9290 N.am      2 SEC2        0.0000 
     58 N          79.7910    8.5500   19.7310 N.am      6 SEP2        0.0000 
     59 N          75.5725   10.1455   18.7555 N.am      2 SEC2        0.0000 
     60 N          75.5770    8.6220   18.1530 N.am     10 SEL2        0.0000 
     61 N          75.5680   11.6690   19.3580 N.am      6 SEP2        0.0000 
     62 N          74.7535    8.0480   17.3325 N.am      2 SEC2        0.0000 
     63 N          73.9300    7.4740   16.5120 N.am      6 SEP2        0.0000 
     64 Zn         75.3825    5.7500   17.6570 Zn        3 ZIC7        0.0000 
     65 Zn         76.1580    6.2690   18.3420 Zn       11 ZIL7        0.0000 
     66 N          76.8945    5.9935   17.0045 N.am      2 SEC2        0.0000 
     67 N          76.1580    6.2690   18.3420 N.am     10 SEL2        0.0000 
     68 N          77.6310    5.7180   15.6670 N.am      6 SEP2        0.0000 
     69 N          76.8700    5.2260   19.1555 N.am      2 SEC2        0.0000 
     70 N          77.5820    4.1830   19.9690 N.am      6 SEP2        0.0000 
     71 CA         67.8713    2.1025   30.7223 C.3       4 GLC5        0.0000 
     72 CA         67.8370    0.8140   32.2430 C.3       8 GLP5        0.0000 
     73 CA         70.4232    5.0553   27.2125 C.3       4 GLC5        0.0000 
     74 CA         70.7140    4.6440   28.8930 C.3      12 GLL5        0.0000 
     75 CA         69.7810    6.0700   25.7560 C.3       8 GLP5        0.0000 
     76 CA         71.2009    2.2614   30.1085 C.3       4 GLC5        0.0000 
     77 CA         71.2438    4.7821   25.4079 C.3       4 GLC5        0.0000 
     78 CA         72.9410    3.9000   25.5150 C.3      12 GLL5        0.0000 
     79 CA         72.7070    4.1478   21.4862 C.3       4 GLC5        0.0000 
     80 CA         71.6530    3.1490   20.2190 C.3       8 GLP5        0.0000 
     81 CA         74.9109    3.6654   22.8500 C.3       4 GLC5        0.0000 
     82 CA         76.0200    2.1860   22.5710 C.3       8 GLP5        0.0000 
@<TRIPOS>BOND
@<TRIPOS>SUBSTRUCTURE
     1 ALC1       16 GROUP        1 X    ALC  0     ROOT ALC X 1
     2 SEC2       13 GROUP        1 X    SEC  0     **** SEC X 2
     3 ZIC7       45 GROUP        1 X    ZIC  0     **** ZIC X 5
     4 GLC5        1 GROUP        1 X    GLC  0     **** GLC X 6
     5 ALP1       18 GROUP        1 Y    ALP  0     ROOT ALP Y 8
     6 SEP2       15 GROUP        1 Y    SEP  0     **** SEP Y 9
     7 ZIP7       47 GROUP        1 Y    ZIP  0     **** ZIP Y 12
     8 GLP5        3 GROUP        1 Y    GLP  0     **** GLP Y 13
     9 ALL1       17 GROUP        1 Z    ALL  0     ROOT ALL Z 15
    10 SEL2       14 GROUP        1 Z    SEL  0     **** SEL Z 16
    11 ZIL7       46 GROUP        1 Z    ZIL  0     **** ZIL Z 19
    12 GLL5        2 GROUP        1 Z    GLL  0     **** GLL Z 20
@<TRIPOS>SET

