#    Name: 2c31_TZD_1_ligand
#    Modification time : Mon Mar 24 22:22:36 2014

@<TRIPOS>MOLECULE
2c31_TZD_1_ligand
   42    43     1     0     0
SMALL
NO_CHARGES


@<TRIPOS>ATOM
      1 N1'        69.2740    2.2680   28.6380 N.ar      1 TZD1554     0.0000 
      2 C2'        68.6450    3.3990   29.0450 C.ar      1 TZD1554     0.0000 
      3 C2A        67.1660    3.3830   29.3580 C.3       1 TZD1554     0.0000 
      4 N3'        69.3490    4.5720   29.1750 N.ar      1 TZD1554     0.0000 
      5 C4'        70.7140    4.6440   28.8930 C.ar      1 TZD1554     0.0000 
      6 N4'        71.3170    5.8370   29.0490 N.pl3     1 TZD1554     0.0000 
      7 C5'        71.4170    3.4370   28.4450 C.ar      1 TZD1554     0.0000 
      8 C6'        70.6240    2.2430   28.3350 C.ar      1 TZD1554     0.0000 
      9 C35        72.9490    3.3670   28.0770 C.3       1 TZD1554     0.0000 
     10 N3         73.2180    4.2120   26.8360 N.am      1 TZD1554     0.0000 
     11 C2         73.7830    5.4020   26.9730 C.2       1 TZD1554     0.0000 
     12 OC2        74.1760    5.9260   28.1760 O.2       1 TZD1554     0.0000 
     13 S1         74.0140    6.2580   25.4570 S.3       1 TZD1554     0.0000 
     14 C5         73.3010    4.8890   24.6300 C.2       1 TZD1554     0.0000 
     15 C4         72.9410    3.9000   25.5150 C.2       1 TZD1554     0.0000 
     16 C4A        72.2920    2.5940   25.0470 C.3       1 TZD1554     0.0000 
     17 C5A        73.1380    4.8960   23.1280 C.3       1 TZD1554     0.0000 
     18 C5B        74.3840    5.3970   22.3790 C.3       1 TZD1554     0.0000 
     19 O5G        74.0710    5.0980   20.9360 O.3       1 TZD1554     0.0000 
     20 P1         73.3820    6.1090   19.9770 P.3       1 TZD1554     0.0000 
     21 O11        74.4140    7.3170   19.7390 O.3       1 TZD1554     0.0000 
     22 O12        73.1750    5.4340   18.7160 O.co2     1 TZD1554     0.0000 
     23 O13        72.1600    6.5780   20.6420 O.co2     1 TZD1554     0.0000 
     24 P2         75.8720    7.5310   19.0630 P.3       1 TZD1554     0.0000 
     25 O21        76.8030    7.8430   20.1270 O.co2     1 TZD1554     0.0000 
     26 O22        75.5770    8.6220   18.1530 O.co2     1 TZD1554     0.0000 
     27 O23        76.1580    6.2690   18.3420 O.co2     1 TZD1554     0.0000 
     28 H          72.2947    5.8119   29.2575 H         1 TZD1554     0.0000 
     29 H          70.7336    6.6422   28.9425 H         1 TZD1554     0.0000 
     30 H          71.0834    1.3798   28.0282 H         1 TZD1554     0.0000 
     31 H          73.2022    2.3354   27.8877 H         1 TZD1554     0.0000 
     32 H          73.5134    3.7452   28.9151 H         1 TZD1554     0.0000 
     33 H          72.2851    5.5358   22.8532 H         1 TZD1554     0.0000 
     34 H          72.9065    3.8780   22.7781 H         1 TZD1554     0.0000 
     35 H          75.2302    4.8432   22.6984 H         1 TZD1554     0.0000 
     36 H          74.4853    6.4420   22.5287 H         1 TZD1554     0.0000 
     37 H          66.9498    2.7457   30.0977 H         1 TZD1554     0.0000 
     38 H          66.8366    4.2836   29.6414 H         1 TZD1554     0.0000 
     39 H          66.6216    3.1079   28.5656 H         1 TZD1554     0.0000 
     40 H          72.1767    2.5716   24.0539 H         1 TZD1554     0.0000 
     41 H          72.8410    1.7963   25.2964 H         1 TZD1554     0.0000 
     42 H          71.3862    2.4641   25.4503 H         1 TZD1554     0.0000 
@<TRIPOS>BOND
     1    2    1 ar   
     2    8    1 ar   
     3    3    2 1    
     4    4    2 ar   
     5   37    3 1    
     6   38    3 1    
     7   39    3 1    
     8    5    4 ar   
     9    6    5 1    
    10    7    5 ar   
    11   28    6 1    
    12   29    6 1    
    13    8    7 ar   
    14    9    7 1    
    15   30    8 1    
    16   10    9 1    
    17   31    9 1    
    18   32    9 1    
    19   11   10 am   
    20   15   10 1    
    21   12   11 2    
    22   13   11 1    
    23   14   13 1    
    24   15   14 2    
    25   17   14 1    
    26   16   15 1    
    27   40   16 1    
    28   41   16 1    
    29   42   16 1    
    30   18   17 1    
    31   33   17 1    
    32   34   17 1    
    33   19   18 1    
    34   35   18 1    
    35   36   18 1    
    36   20   19 1    
    37   21   20 1    
    38   22   20 ar   
    39   23   20 ar   
    40   24   21 1    
    41   25   24 ar   
    42   26   24 ar   
    43   27   24 ar   
@<TRIPOS>SUBSTRUCTURE
     1 TZD1554     1 GROUP   
@<TRIPOS>SET

