#    Name: 4DKO_1_CAVITY_N1_ALL.mol2
#    Modification time : Mon Mar 10 14:09:45 2014

@<TRIPOS>MOLECULE
4DKO_1_CAVITY_N1_ALL.mol2
   67     0     6     0     0
SMALL
NO_CHARGES


@<TRIPOS>ATOM
      1 CA         30.1854  -16.7124   37.8511 C.3       5 GLY6        0.0000 
      2 N          30.5912  -15.3690   37.3214 N.2       2 ALA2        0.0000 
      3 N          30.9971  -14.0256   36.7917 N.2       2 ALA2        0.0000 
      4 NZ         29.3622  -18.4734   37.0019 N.2       3 LYS4        0.0000 
      5 NZ         29.7680  -17.1300   36.4722 N.2       3 LYS4        0.0000 
      6 DU         30.1739  -15.7867   35.9425 H         6 CUB7        0.0000 
      7 N          30.5798  -14.4433   35.4128 N.2       2 ALA2        0.0000 
      8 NZ         29.3507  -17.5477   35.0932 N.2       3 LYS4        0.0000 
      9 DU         29.7566  -16.2043   34.5635 H         6 CUB7        0.0000 
     10 NZ         28.5276  -19.3087   34.2440 N.2       3 LYS4        0.0000 
     11 CA         28.2666  -15.7620   43.0390 C.3       5 GLY6        0.0000 
     12 N          27.8378  -15.2538   39.7515 N.2       2 ALA2        0.0000 
     13 CA         27.4205  -15.6715   38.3726 C.3       5 GLY6        0.0000 
     14 CA         27.8264  -14.3281   37.8429 C.3       5 GLY6        0.0000 
     15 CA         28.2322  -12.9847   37.3132 C.3       5 GLY6        0.0000 
     16 CA         26.5973  -17.4325   37.5233 C.3       5 GLY6        0.0000 
     17 CA         27.0032  -16.0891   36.9937 C.3       5 GLY6        0.0000 
     18 N          27.4090  -14.7457   36.4640 N.2       2 ALA2        0.0000 
     19 N          27.8149  -13.4023   35.9343 N.2       2 ALA2        0.0000 
     20 N          28.2208  -12.0589   35.4046 N.2       2 ALA2        0.0000 
     21 CA         26.5859  -16.5067   35.6147 C.3       5 GLY6        0.0000 
     22 N          26.9917  -15.1633   35.0850 N.2       2 ALA2        0.0000 
     23 N          27.3976  -13.8199   34.5553 N.2       2 ALA2        0.0000 
     24 CA         26.1686  -16.9244   34.2358 C.3       5 GLY6        0.0000 
     25 CA         26.5744  -15.5810   33.7061 C.3       5 GLY6        0.0000 
     26 CA         33.3561  -16.4100   36.7999 C.3       5 GLY6        0.0000 
     27 NZ         32.5329  -18.1710   35.9507 N.2       3 LYS4        0.0000 
     28 CA         31.9737  -15.8895   37.0607 C.3       5 GLY6        0.0000 
     29 N          32.3795  -14.5461   36.5310 N.2       2 ALA2        0.0000 
     30 NZ         31.1505  -17.6505   36.2114 N.2       3 LYS4        0.0000 
     31 DU         31.5563  -16.3071   35.6817 H         6 CUB7        0.0000 
     32 CA         28.3971  -17.5353   38.6415 C.3       5 GLY6        0.0000 
     33 N          28.8029  -16.1919   38.1118 N.2       2 ALA2        0.0000 
     34 N          29.2088  -14.8486   37.5821 N.2       2 ALA2        0.0000 
     35 N          29.6147  -13.5052   37.0524 N.2       2 ALA2        0.0000 
     36 CA         27.9797  -17.9530   37.2626 C.3       5 GLY6        0.0000 
     37 DU         28.3856  -16.6096   36.7329 H         6 CUB7        0.0000 
     38 DU         28.7915  -15.2662   36.2032 H         6 CUB7        0.0000 
     39 DU         29.1973  -13.9228   35.6735 H         6 CUB7        0.0000 
     40 N          29.6032  -12.5794   35.1438 N.2       2 ALA2        0.0000 
     41 CA         27.5624  -18.3706   35.8837 C.3       5 GLY6        0.0000 
     42 CA         27.9683  -17.0272   35.3540 C.3       5 GLY6        0.0000 
     43 DU         28.3742  -15.6838   34.8243 H         6 CUB7        0.0000 
     44 DU         28.7800  -14.3404   34.2946 H         6 CUB7        0.0000 
     45 CA         27.5510  -17.4448   33.9751 C.3       5 GLY6        0.0000 
     46 CZ         27.3015  -14.8239   44.6787 C.ar      4 PHE5        0.0000 
     47 OG         26.4783  -16.5849   43.8295 O.2       1 SER1        0.0000 
     48 OG         26.8841  -15.2415   43.2998 O.2       1 SER1        0.0000 
     49 CA         27.2900  -13.8981   42.7701 C.3       5 GLY6        0.0000 
     50 CA         26.4668  -15.6591   41.9209 C.3       5 GLY6        0.0000 
     51 CA         26.8727  -14.3157   41.3912 C.3       5 GLY6        0.0000 
     52 CA         26.0495  -16.0768   40.5419 C.3       5 GLY6        0.0000 
     53 CA         26.4554  -14.7334   40.0122 C.3       5 GLY6        0.0000 
     54 CA         25.6322  -16.4944   39.1630 C.3       5 GLY6        0.0000 
     55 N          26.0381  -15.1510   38.6333 N.2       2 ALA2        0.0000 
     56 N          26.4439  -13.8076   38.1036 N.2       2 ALA2        0.0000 
     57 CA         25.6207  -15.5686   37.2544 C.3       5 GLY6        0.0000 
     58 N          26.8383  -11.5385   35.6653 N.2       2 ALA2        0.0000 
     59 CZ         25.5132  -15.6468   45.4692 C.ar      4 PHE5        0.0000 
     60 CZ         25.9190  -14.3034   44.9395 C.ar      4 PHE5        0.0000 
     61 CA         26.3249  -12.9600   44.4098 C.3       5 GLY6        0.0000 
     62 OG         25.5017  -14.7210   43.5605 O.2       1 SER1        0.0000 
     63 CA         25.9076  -13.3776   43.0308 C.3       5 GLY6        0.0000 
     64 OG         25.0844  -15.1387   42.1816 O.2       1 SER1        0.0000 
     65 CA         25.4903  -13.7953   41.6519 C.3       5 GLY6        0.0000 
     66 CA         25.0729  -14.2129   40.2730 C.3       5 GLY6        0.0000 
     67 N          24.1193  -14.2006   43.8213 N.2       2 ALA2        0.0000 
@<TRIPOS>BOND
@<TRIPOS>SUBSTRUCTURE
     1 SER1       47 GROUP   
     2 ALA2        2 GROUP   
     3 LYS4        4 GROUP   
     4 PHE5       46 GROUP   
     5 GLY6        1 GROUP   
     6 CUB7        6 GROUP   
@<TRIPOS>SET

