#    Name: 4dko_0LM_1_INTS_M
#    Modification time : Mon Apr  7 22:48:42 2014

@<TRIPOS>MOLECULE
4dko_0LM_1_INTS_M
   47     0     6     0     0
SMALL
NO_CHARGES


@<TRIPOS>ATOM
      1 CA         25.5295  -12.0915   34.0605 C.3       2 GLC5        0.0000 
      2 CA         27.3240  -12.3480   34.1470 C.3       6 GLL5        0.0000 
      3 CA         23.7350  -11.8350   33.9740 C.3       4 GLP5        0.0000 
      4 CA         24.7060  -13.3130   40.2405 C.3       2 GLC5        0.0000 
      5 CA         25.6730  -15.0430   41.2750 C.3       6 GLL5        0.0000 
      6 CA         23.7390  -11.5830   39.2060 C.3       4 GLP5        0.0000 
      7 O          29.2425  -15.6515   40.5240 O.2       1 ALC1        0.0000 
      8 O          27.7050  -15.5290   39.9590 O.2       5 ALL1        0.0000 
      9 O          30.7800  -15.7740   41.0890 O.2       3 ALP1        0.0000 
     10 O          26.2660  -14.1020   36.1400 O.2       1 ALC1        0.0000 
     11 O          27.7540  -14.9350   36.1830 O.2       5 ALL1        0.0000 
     12 O          24.7780  -13.2690   36.0970 O.2       3 ALP1        0.0000 
     13 CA         29.6855  -12.4980   37.7955 C.3       2 GLC5        0.0000 
     14 CA         30.2240  -12.9400   36.0450 C.3       6 GLL5        0.0000 
     15 CA         29.1470  -12.0560   39.5460 C.3       4 GLP5        0.0000 
     16 CA         31.6250  -11.2670   34.8585 C.3       2 GLC5        0.0000 
     17 CA         30.1050  -11.6550   33.3590 C.3       6 GLL5        0.0000 
     18 CA         33.1450  -10.8790   36.3580 C.3       4 GLP5        0.0000 
     19 CA         24.6420  -12.5515   43.9935 C.3       2 GLC5        0.0000 
     20 CA         25.0910  -14.1580   45.1260 C.3       6 GLL5        0.0000 
     21 CA         24.1930  -10.9450   42.8610 C.3       4 GLP5        0.0000 
     22 CA         23.4380  -14.8420   45.8575 C.3       2 GLC5        0.0000 
     23 CA         21.7850  -15.5260   46.5890 C.3       4 GLP5        0.0000 
     24 CA         24.6965  -13.3390   47.1635 C.3       2 GLC5        0.0000 
     25 CA         24.3020  -12.5200   49.2010 C.3       4 GLP5        0.0000 
     26 CA         26.4395  -14.5240   46.3265 C.3       2 GLC5        0.0000 
     27 CA         27.7880  -14.8900   47.5270 C.3       4 GLP5        0.0000 
     28 CA         22.1575  -14.0920   42.6570 C.3       2 GLC5        0.0000 
     29 CA         23.7520  -14.5770   42.5560 C.3       6 GLL5        0.0000 
     30 CA         20.5630  -13.6070   42.7580 C.3       4 GLP5        0.0000 
     31 CA         23.7455  -13.0800   40.8810 C.3       2 GLC5        0.0000 
     32 CA         29.0885  -15.7570   43.5607 C.3       2 GLC5        0.0000 
     33 CA         27.8230  -15.0280   42.3400 C.3       6 GLL5        0.0000 
     34 CA         30.6540  -16.6460   44.1760 C.3       4 GLP5        0.0000 
     35 CA         27.6525  -13.3455   41.5738 C.3       2 GLC5        0.0000 
     36 CA         27.7820  -11.8230   40.2020 C.3       4 GLP5        0.0000 
     37 CA         24.0510  -16.5935   43.1400 C.3       2 GLC5        0.0000 
     38 CA         23.6900  -18.5370   43.7600 C.3       4 GLP5        0.0000 
     39 CA         27.0727  -13.4695   40.7188 C.3       2 GLC5        0.0000 
     40 CA         27.0540  -15.1890   41.1960 C.3       6 GLL5        0.0000 
     41 CA         27.3961  -16.8285   41.4109 C.3       2 GLC5        0.0000 
     42 CA         27.6990  -18.5850   41.0340 C.3       4 GLP5        0.0000 
     43 CA         31.8939  -12.0945   35.8312 C.3       2 GLC5        0.0000 
     44 CA         24.3993  -12.7766   42.8329 C.3       2 GLC5        0.0000 
     45 CA         25.8460  -14.5560   43.6230 C.3       6 GLL5        0.0000 
     46 CA         23.6211  -15.5120   40.8984 C.3       2 GLC5        0.0000 
     47 CA         22.6800  -16.2940   39.5790 C.3       4 GLP5        0.0000 
@<TRIPOS>BOND
@<TRIPOS>SUBSTRUCTURE
     1 ALC1        7 GROUP        1 X    ALC  0     ROOT ALC X 1
     2 GLC5        1 GROUP        1 X    GLC  0     **** GLC X 6
     3 ALP1        9 GROUP        1 Y    ALP  0     ROOT ALP Y 8
     4 GLP5        3 GROUP        1 Y    GLP  0     **** GLP Y 13
     5 ALL1        8 GROUP        1 Z    ALL  0     ROOT ALL Z 15
     6 GLL5        2 GROUP        1 Z    GLL  0     **** GLL Z 20
@<TRIPOS>SET

