#    Name: 4dko_0LM_1_ligand
#    Modification time : Mon Apr  7 22:48:42 2014

@<TRIPOS>MOLECULE
4dko_0LM_1_ligand
   51    52     1     0     0
SMALL
NO_CHARGES


@<TRIPOS>ATOM
      1 C10        28.1020  -15.4540   37.4700 C.2       1 0LM513      0.0000 
      2 C13        28.4590  -15.3320   34.9130 C.3       1 0LM513      0.0000 
      3 C15        28.2240  -13.3160   33.4590 C.3       1 0LM513      0.0000 
      4 C17        30.3380  -13.6710   34.7480 C.3       1 0LM513      0.0000 
      5 C20        31.7850  -13.6890   34.3800 C.3       1 0LM513      0.0000 
      6 C21        27.3240  -12.3480   34.1470 C.3       1 0LM513      0.0000 
      7 C22        27.9760  -13.1160   31.9980 C.3       1 0LM513      0.0000 
      8 C01        27.2230  -14.7080   43.5510 C.ar      1 0LM513      0.0000 
      9 C02        25.8460  -14.5560   43.6230 C.ar      1 0LM513      0.0000 
     10 C03        25.0720  -14.7230   42.4840 C.ar      1 0LM513      0.0000 
     11 C04        25.6730  -15.0430   41.2750 C.ar      1 0LM513      0.0000 
     12 C05        27.0540  -15.1890   41.1960 C.ar      1 0LM513      0.0000 
     13 C06        27.8230  -15.0280   42.3400 C.ar      1 0LM513      0.0000 
     14 N07        27.7050  -15.5290   39.9590 N.am      1 0LM513      0.0000 
     15 C08        27.3400  -15.0090   38.6740 C.2       1 0LM513      0.0000 
     16 O09        26.4280  -14.2070   38.5420 O.2       1 0LM513      0.0000 
     17 N11        27.7540  -14.9350   36.1830 N.am      1 0LM513      0.0000 
     18 O12        29.0140  -16.2570   37.6060 O.2       1 0LM513      0.0000 
     19 C14        27.8110  -14.7220   33.7860 C.3       1 0LM513      0.0000 
     20 N16        29.6200  -12.9590   33.7090 N.4       1 0LM513      0.0000 
     21 C18        29.9160  -15.0810   34.9430 C.3       1 0LM513      0.0000 
     22 C19        30.2240  -12.9400   36.0450 C.3       1 0LM513      0.0000 
     23 C23        30.1050  -11.6550   33.3590 C.3       1 0LM513      0.0000 
     24 CL         25.0910  -14.1580   45.1260 Cl        1 0LM513      0.0000 
     25 F25        23.7520  -14.5770   42.5560 F         1 0LM513      0.0000 
     26 H          28.3155  -16.4477   34.8221 H         1 0LM513      0.0000 
     27 H          27.8000  -14.5839   44.3937 H         1 0LM513      0.0000 
     28 H          25.0954  -15.1733   40.4316 H         1 0LM513      0.0000 
     29 H          28.8468  -15.1467   42.2910 H         1 0LM513      0.0000 
     30 H          28.5036  -16.2059   40.0026 H         1 0LM513      0.0000 
     31 H          26.9889  -14.2556   36.0885 H         1 0LM513      0.0000 
     32 H          26.6938  -14.7262   33.9292 H         1 0LM513      0.0000 
     33 H          27.9647  -15.3476   32.8621 H         1 0LM513      0.0000 
     34 H          30.1379  -13.6087   32.6920 H         1 0LM513      0.0000 
     35 H          30.4138  -15.7187   34.1663 H         1 0LM513      0.0000 
     36 H          30.3318  -15.4522   35.9162 H         1 0LM513      0.0000 
     37 H          32.1586  -12.7651   34.2971 H         1 0LM513      0.0000 
     38 H          32.3361  -14.1678   35.0634 H         1 0LM513      0.0000 
     39 H          31.9400  -14.1475   33.5049 H         1 0LM513      0.0000 
     40 H          27.4149  -12.3987   35.1416 H         1 0LM513      0.0000 
     41 H          27.5219  -11.4042   33.8823 H         1 0LM513      0.0000 
     42 H          26.3623  -12.5173   33.9315 H         1 0LM513      0.0000 
     43 H          28.1850  -12.1813   31.7104 H         1 0LM513      0.0000 
     44 H          28.5366  -13.7270   31.4391 H         1 0LM513      0.0000 
     45 H          27.0216  -13.2907   31.7560 H         1 0LM513      0.0000 
     46 H          30.7485  -13.3862   36.7701 H         1 0LM513      0.0000 
     47 H          30.5623  -12.0017   35.9735 H         1 0LM513      0.0000 
     48 H          29.2761  -12.8867   36.3592 H         1 0LM513      0.0000 
     49 H          31.0725  -11.5452   33.5867 H         1 0LM513      0.0000 
     50 H          30.0120  -11.4746   32.3798 H         1 0LM513      0.0000 
     51 H          29.6071  -10.9325   33.8387 H         1 0LM513      0.0000 
@<TRIPOS>BOND
     1   15    1 1    
     2   17    1 am   
     3   18    1 2    
     4   17    2 1    
     5   19    2 1    
     6   21    2 1    
     7   26    2 1    
     8    6    3 1    
     9    7    3 1    
    10   19    3 1    
    11   20    3 1    
    12    5    4 1    
    13   20    4 1    
    14   21    4 1    
    15   22    4 1    
    16   37    5 1    
    17   38    5 1    
    18   39    5 1    
    19   40    6 1    
    20   41    6 1    
    21   42    6 1    
    22   43    7 1    
    23   44    7 1    
    24   45    7 1    
    25    9    8 ar   
    26   13    8 ar   
    27   27    8 1    
    28   10    9 ar   
    29   24    9 1    
    30   11   10 ar   
    31   25   10 1    
    32   12   11 ar   
    33   28   11 1    
    34   13   12 ar   
    35   14   12 1    
    36   29   13 1    
    37   15   14 am   
    38   30   14 1    
    39   16   15 2    
    40   31   17 1    
    41   32   19 1    
    42   33   19 1    
    43   23   20 1    
    44   34   20 1    
    45   35   21 1    
    46   36   21 1    
    47   46   22 1    
    48   47   22 1    
    49   48   22 1    
    50   49   23 1    
    51   50   23 1    
    52   51   23 1    
@<TRIPOS>SUBSTRUCTURE
     1 0LM513      1 GROUP   
@<TRIPOS>SET

