#    Name: 2aax_PDN_2_INTS_M
#    Modification time : Mon Mar 24 18:50:59 2014

@<TRIPOS>MOLECULE
2aax_PDN_2_INTS_M
   71     0     9     0     0
SMALL
NO_CHARGES


@<TRIPOS>ATOM
      1 CA          5.4065   -9.5670   15.7740 C.3       3 GLC5        0.0000 
      2 CA          4.5750   -7.8360   15.8460 C.3       9 GLL5        0.0000 
      3 CA          6.2380  -11.2980   15.7020 C.3       6 GLP5        0.0000 
      4 CA          2.7755   -8.8120   16.7650 C.3       3 GLC5        0.0000 
      5 CA          0.9760   -9.7880   17.6840 C.3       6 GLP5        0.0000 
      6 CA          6.8340   -4.6490   14.3015 C.3       3 GLC5        0.0000 
      7 CA          5.2360   -5.4060   15.2290 C.3       9 GLL5        0.0000 
      8 CA          8.4320   -3.8920   13.3740 C.3       6 GLP5        0.0000 
      9 CA          4.4175   -1.9655   14.7300 C.3       3 GLC5        0.0000 
     10 CA          3.8240   -3.8350   13.9670 C.3       9 GLL5        0.0000 
     11 CA          5.0110   -0.0960   15.4930 C.3       6 GLP5        0.0000 
     12 CA          2.6350   -8.2470   12.0855 C.3       3 GLC5        0.0000 
     13 CA          2.3580   -6.2410   13.0260 C.3       9 GLL5        0.0000 
     14 CA          2.9120  -10.2530   11.1450 C.3       6 GLP5        0.0000 
     15 CA          1.7370   -8.7640   11.2915 C.3       3 GLC5        0.0000 
     16 CA          0.5620   -7.2750   11.4380 C.3       9 GLL5        0.0000 
     17 CA         -0.1765   -2.9510   11.9625 C.3       3 GLC5        0.0000 
     18 CA          0.9980   -3.7020   10.2510 C.3       9 GLL5        0.0000 
     19 CA         -1.3510   -2.2000   13.6740 C.3       6 GLP5        0.0000 
     20 CA          1.9265   -1.9020   10.2145 C.3       3 GLC5        0.0000 
     21 CA          2.8550   -0.1020   10.1780 C.3       6 GLP5        0.0000 
     22 CA         -1.1025   -3.8925   12.7715 C.3       3 GLC5        0.0000 
     23 CA         -0.8540   -5.5850   11.8690 C.3       9 GLL5        0.0000 
     24 CA         -2.8675   -4.8745   12.0060 C.3       3 GLC5        0.0000 
     25 CA         -4.8810   -4.1640   12.1430 C.3       6 GLP5        0.0000 
     26 CA         -0.0990   -5.4120   16.1330 C.3       3 GLC5        0.0000 
     27 CA          1.9190   -5.9080   15.4500 C.3       9 GLL5        0.0000 
     28 CA         -2.1170   -4.9160   16.8160 C.3       6 GLP5        0.0000 
     29 CA          1.1145   -3.8785   14.9380 C.3       3 GLC5        0.0000 
     30 CA          0.3100   -1.8490   14.4260 C.3       6 GLP5        0.0000 
     31 CA          1.6920   -5.8555   17.2740 C.3       3 GLC5        0.0000 
     32 CA          1.4650   -5.8030   19.0980 C.3       6 GLP5        0.0000 
     33 CA         -3.1100   -4.7645    9.3505 C.3       3 GLC5        0.0000 
     34 CA         -1.6390   -6.2310    9.1810 C.3       9 GLL5        0.0000 
     35 CA         -4.5810   -3.2980    9.5200 C.3       6 GLP5        0.0000 
     36 CA         -0.9710   -9.1500    7.5610 C.3       3 GLC5        0.0000 
     37 CA         -1.7600   -7.6650    8.6310 C.3       9 GLL5        0.0000 
     38 CA         -0.1820  -10.6350    6.4910 C.3       6 GLP5        0.0000 
     39 CA         -1.4240   -6.3005    6.9480 C.3       3 GLC5        0.0000 
     40 CA         -1.0880   -4.9360    5.2650 C.3       6 GLP5        0.0000 
     41 CA         -3.5875   -7.2810    7.4485 C.3       3 GLC5        0.0000 
     42 CA         -5.4150   -6.8970    6.2660 C.3       6 GLP5        0.0000 
     43 CA         -3.0035   -9.3965    8.0170 C.3       3 GLC5        0.0000 
     44 CA         -4.2470  -11.1280    7.4030 C.3       6 GLP5        0.0000 
     45 N           6.4940   -7.9910   17.6350 N.am      2 SEC2        0.0000 
     46 N           6.6470   -6.8960   16.4250 N.am      8 SEL2        0.0000 
     47 N           6.3410   -9.0860   18.8450 N.am      5 SEP2        0.0000 
     48 N           7.8095   -7.0060   17.0955 N.am      2 SEC2        0.0000 
     49 N           8.9720   -7.1160   17.7660 N.am      5 SEP2        0.0000 
     50 O          -3.8670   -6.0430    8.5430 O.2       1 ALC1        0.0000 
     51 O          -2.6420   -5.5910    9.4790 O.2       7 ALL1        0.0000 
     52 O          -5.0920   -6.4950    7.6070 O.2       4 ALP1        0.0000 
     53 N          -3.1440   -9.3260    9.4865 N.am      2 SEC2        0.0000 
     54 N          -3.0700   -8.1550    8.5080 N.am      8 SEL2        0.0000 
     55 N          -3.2180  -10.4970   10.4650 N.am      5 SEP2        0.0000 
     56 O          -4.0810   -7.3250    8.0575 O.2       1 ALC1        0.0000 
     57 O          -3.0700   -8.1550    8.5080 O.2       7 ALL1        0.0000 
     58 CA          3.9207   -4.6685   16.8265 C.3       3 GLC5        0.0000 
     59 CA          4.0710   -5.2180   14.5530 C.3       9 GLL5        0.0000 
     60 CA          3.1880   -4.0250   18.7620 C.3       6 GLP5        0.0000 
     61 CA          4.8320   -2.7700   12.4937 C.3       3 GLC5        0.0000 
     62 CA          6.1150   -1.6590   11.7410 C.3       6 GLP5        0.0000 
     63 CA          1.5513   -3.1058   13.6409 C.3       3 GLC5        0.0000 
     64 CA          1.3435   -7.6751   15.8880 C.3       3 GLC5        0.0000 
     65 CA          2.9920   -6.2960   14.4320 C.3       9 GLL5        0.0000 
     66 CA          0.1290   -8.8980   16.7230 C.3       6 GLP5        0.0000 
     67 CA         -1.1643   -4.7116    7.6426 C.3       3 GLC5        0.0000 
     68 CA         -1.4430   -3.8280    6.0330 C.3       6 GLP5        0.0000 
     69 CA          1.8456   -4.6491    8.5755 C.3       3 GLC5        0.0000 
     70 CA          0.0070   -4.2140    9.1750 C.3       9 GLL5        0.0000 
     71 CA          3.1670   -4.6600    7.1560 C.3       6 GLP5        0.0000 
@<TRIPOS>BOND
@<TRIPOS>SUBSTRUCTURE
     1 ALC1       50 GROUP        1 X    ALC  0     ROOT ALC X 1
     2 SEC2       45 GROUP        1 X    SEC  0     **** SEC X 2
     3 GLC5        1 GROUP        1 X    GLC  0     **** GLC X 6
     4 ALP1       52 GROUP        1 Y    ALP  0     ROOT ALP Y 8
     5 SEP2       47 GROUP        1 Y    SEP  0     **** SEP Y 9
     6 GLP5        3 GROUP        1 Y    GLP  0     **** GLP Y 13
     7 ALL1       51 GROUP        1 Z    ALL  0     ROOT ALL Z 15
     8 SEL2       46 GROUP        1 Z    SEL  0     **** SEL Z 16
     9 GLL5        2 GROUP        1 Z    GLL  0     **** GLL Z 20
@<TRIPOS>SET

