#    Name: 2aax_PDN_2_ligand
#    Modification time : Mon Mar 24 18:50:59 2014

@<TRIPOS>MOLECULE
2aax_PDN_2_ligand
   52    55     1     0     0
SMALL
NO_CHARGES


@<TRIPOS>ATOM
      1 C1          3.4020   -7.6970   14.8800 C.2       1 PDN503      0.0000 
      2 C2          4.5750   -7.8360   15.8460 C.2       1 PDN503      0.0000 
      3 C3          5.5490   -6.6780   15.8960 C.2       1 PDN503      0.0000 
      4 C4          5.2360   -5.4060   15.2290 C.2       1 PDN503      0.0000 
      5 C5          4.0710   -5.2180   14.5530 C.2       1 PDN503      0.0000 
      6 C6          3.8240   -3.8350   13.9670 C.3       1 PDN503      0.0000 
      7 C7          3.2740   -3.9270   12.5260 C.3       1 PDN503      0.0000 
      8 C8          2.0360   -4.8440   12.4650 C.3       1 PDN503      0.0000 
      9 C9          2.3580   -6.2410   13.0260 C.3       1 PDN503      0.0000 
     10 C10         2.9920   -6.2960   14.4320 C.3       1 PDN503      0.0000 
     11 C11         1.2690   -7.2410   12.7470 C.2       1 PDN503      0.0000 
     12 C12         0.5620   -7.2750   11.4380 C.3       1 PDN503      0.0000 
     13 C13         0.2800   -5.9160   10.8660 C.3       1 PDN503      0.0000 
     14 C14         1.3630   -4.9320   11.0820 C.3       1 PDN503      0.0000 
     15 C15         0.9980   -3.7020   10.2510 C.3       1 PDN503      0.0000 
     16 C16         0.0070   -4.2140    9.1750 C.3       1 PDN503      0.0000 
     17 C17        -0.2710   -5.7050    9.4720 C.3       1 PDN503      0.0000 
     18 C18        -0.8540   -5.5850   11.8690 C.3       1 PDN503      0.0000 
     19 C19         1.9190   -5.9080   15.4500 C.3       1 PDN503      0.0000 
     20 C20        -1.6390   -6.2310    9.1810 C.2       1 PDN503      0.0000 
     21 C21        -1.7600   -7.6650    8.6310 C.2       1 PDN503      0.0000 
     22 O1          6.6470   -6.8960   16.4250 O.2       1 PDN503      0.0000 
     23 O2          1.0020   -8.1350   13.4450 O.2       1 PDN503      0.0000 
     24 O3          0.7060   -6.3080    8.5590 O.3       1 PDN503      0.0000 
     25 O4         -2.6420   -5.5910    9.4790 O.3       1 PDN503      0.0000 
     26 O5         -3.0700   -8.1550    8.5080 O.3       1 PDN503      0.0000 
     27 H           2.9275   -8.4802   14.5577 H         1 PDN503      0.0000 
     28 H           4.6845   -8.6174   16.3900 H         1 PDN503      0.0000 
     29 H           5.9515   -4.6625   15.3028 H         1 PDN503      0.0000 
     30 H           4.7570   -3.2729   13.9498 H         1 PDN503      0.0000 
     31 H           3.1022   -3.3000   14.5831 H         1 PDN503      0.0000 
     32 H           4.0468   -4.3270   11.8763 H         1 PDN503      0.0000 
     33 H           2.9986   -2.9326   12.1874 H         1 PDN503      0.0000 
     34 H           1.2780   -4.4032   13.1649 H         1 PDN503      0.0000 
     35 H           3.2438   -6.6026   12.3156 H         1 PDN503      0.0000 
     36 H          -0.3953   -7.8235   11.5499 H         1 PDN503      0.0000 
     37 H           1.1640   -7.8541   10.7086 H         1 PDN503      0.0000 
     38 H           2.2433   -5.4144   10.3798 H         1 PDN503      0.0000 
     39 H           1.8653   -3.3155    9.7716 H         1 PDN503      0.0000 
     40 H           0.5089   -2.9814   10.8618 H         1 PDN503      0.0000 
     41 H           0.4557   -4.1205    8.2077 H         1 PDN503      0.0000 
     42 H          -0.9065   -3.6602    9.2433 H         1 PDN503      0.0000 
     43 H          -0.9471   -8.1422    8.4043 H         1 PDN503      0.0000 
     44 H          -0.5001   -5.4276   12.7910 H         1 PDN503      0.0000 
     45 H          -1.3563   -4.7621   11.6034 H         1 PDN503      0.0000 
     46 H          -1.5209   -6.3273   11.9338 H         1 PDN503      0.0000 
     47 H           2.2773   -5.9029   16.3836 H         1 PDN503      0.0000 
     48 H           1.5512   -4.9952   15.2723 H         1 PDN503      0.0000 
     49 H           1.1467   -6.5431   15.4359 H         1 PDN503      0.0000 
     50 H           1.3425   -5.5694    8.3367 H         1 PDN503      0.0000 
     51 H          -3.3629   -5.9487    8.8854 H         1 PDN503      0.0000 
     52 H          -3.6006   -7.3874    8.1486 H         1 PDN503      0.0000 
@<TRIPOS>BOND
     1    2    1 2    
     2   10    1 1    
     3   27    1 1    
     4    3    2 1    
     5   28    2 1    
     6    4    3 1    
     7   22    3 2    
     8    5    4 2    
     9   29    4 1    
    10    6    5 1    
    11   10    5 1    
    12    7    6 1    
    13   30    6 1    
    14   31    6 1    
    15    8    7 1    
    16   32    7 1    
    17   33    7 1    
    18    9    8 1    
    19   14    8 1    
    20   34    8 1    
    21   10    9 1    
    22   11    9 1    
    23   35    9 1    
    24   19   10 1    
    25   12   11 1    
    26   23   11 2    
    27   13   12 1    
    28   36   12 1    
    29   37   12 1    
    30   14   13 1    
    31   17   13 1    
    32   18   13 1    
    33   15   14 1    
    34   38   14 1    
    35   16   15 1    
    36   39   15 1    
    37   40   15 1    
    38   17   16 1    
    39   41   16 1    
    40   42   16 1    
    41   20   17 1    
    42   24   17 1    
    43   44   18 1    
    44   45   18 1    
    45   46   18 1    
    46   47   19 1    
    47   48   19 1    
    48   49   19 1    
    49   21   20 2    
    50   25   20 1    
    51   26   21 1    
    52   43   21 1    
    53   50   24 1    
    54   51   25 1    
    55   52   26 1    
@<TRIPOS>SUBSTRUCTURE
     1 PDN503      1 GROUP   
@<TRIPOS>SET

