#    Name: 3mzt_TFX_1_INTS_M
#    Modification time : Tue Mar 25 00:22:44 2014

@<TRIPOS>MOLECULE
3mzt_TFX_1_INTS_M
   42     0     3     0     0
SMALL
NO_CHARGES


@<TRIPOS>ATOM
      1 CA        -29.3235  -10.5120   -8.0420 C.3       1 GLC5        0.0000 
      2 CA        -27.6810  -11.9860   -8.1410 C.3       3 GLL5        0.0000 
      3 CA        -30.9660   -9.0380   -7.9430 C.3       2 GLP5        0.0000 
      4 CA        -24.5455  -11.2880  -10.1415 C.3       1 GLC5        0.0000 
      5 CA        -26.3210  -10.2560   -9.7780 C.3       3 GLL5        0.0000 
      6 CA        -22.7700  -12.3200  -10.5050 C.3       2 GLP5        0.0000 
      7 CA        -27.4700  -11.8045  -10.7060 C.3       1 GLC5        0.0000 
      8 CA        -28.6190  -13.3530  -11.6340 C.3       2 GLP5        0.0000 
      9 CA        -25.4105   -6.0475   -8.2325 C.3       1 GLC5        0.0000 
     10 CA        -26.4790   -6.1270   -9.6540 C.3       3 GLL5        0.0000 
     11 CA        -24.3420   -5.9680   -6.8110 C.3       2 GLP5        0.0000 
     12 CA        -27.1595   -8.6315  -13.6030 C.3       1 GLC5        0.0000 
     13 CA        -26.0020   -7.2250  -12.3510 C.3       3 GLL5        0.0000 
     14 CA        -28.3170  -10.0380  -14.8550 C.3       2 GLP5        0.0000 
     15 CA        -25.1195  -18.0605   -6.5530 C.3       1 GLC5        0.0000 
     16 CA        -25.3080  -16.1720   -6.5430 C.3       3 GLL5        0.0000 
     17 CA        -24.9310  -19.9490   -6.5630 C.3       2 GLP5        0.0000 
     18 CA        -24.2795  -10.4535  -12.2020 C.3       1 GLC5        0.0000 
     19 CA        -25.8740  -10.5240  -12.3150 C.3       3 GLL5        0.0000 
     20 CA        -22.6850  -10.3830  -12.0890 C.3       2 GLP5        0.0000 
     21 CA        -26.7285  -12.1010  -12.5035 C.3       1 GLC5        0.0000 
     22 CA        -27.5830  -13.6780  -12.6920 C.3       2 GLP5        0.0000 
     23 CA        -25.9270  -10.6615  -13.7905 C.3       1 GLC5        0.0000 
     24 CA        -25.9800  -10.7990  -15.2660 C.3       2 GLP5        0.0000 
     25 CA        -26.3690   -3.3190   -9.1865 C.3       1 GLC5        0.0000 
     26 CA        -26.3890   -3.7490  -10.6800 C.3       3 GLL5        0.0000 
     27 CA        -26.3490   -2.8890   -7.6930 C.3       2 GLP5        0.0000 
     28 CA        -28.0920   -4.8645  -10.2830 C.3       1 GLC5        0.0000 
     29 CA        -29.7950   -5.9800   -9.8860 C.3       2 GLP5        0.0000 
     30 CA        -25.9983   -9.8797   -7.3213 C.3       1 GLC5        0.0000 
     31 CA        -26.5320   -8.8170   -8.7770 C.3       3 GLL5        0.0000 
     32 CA        -25.5700  -10.2230   -5.3650 C.3       2 GLP5        0.0000 
     33 CA        -25.4052   -7.0685   -8.0557 C.3       1 GLC5        0.0000 
     34 CA        -26.3385  -11.9452   -6.3600 C.3       1 GLC5        0.0000 
     35 CA        -27.6910  -13.2410   -7.3730 C.3       3 GLL5        0.0000 
     36 CA        -28.1525  -12.9832   -9.6955 C.3       1 GLC5        0.0000 
     37 CA        -26.3085  -10.9970   -6.9460 C.3       1 GLC5        0.0000 
     38 CA        -27.2175  -12.6815  -10.2610 C.3       1 GLC5        0.0000 
     39 CA        -25.2190  -12.4640   -8.8630 C.3       3 GLL5        0.0000 
     40 CA        -25.3940  -11.6438   -6.9322 C.3       1 GLC5        0.0000 
     41 CA        -24.1432  -12.5787   -9.5085 C.3       1 GLC5        0.0000 
     42 CA        -26.4130  -11.5560   -8.9130 C.3       3 GLL5        0.0000 
@<TRIPOS>BOND
@<TRIPOS>SUBSTRUCTURE
     1 GLC5        1 GROUP        1 X    GLC  0     ROOT GLC X 6
     2 GLP5        3 GROUP        1 Y    GLP  0     ROOT GLP Y 13
     3 GLL5        2 GROUP        1 Z    GLL  0     ROOT GLL Z 20
@<TRIPOS>SET

