#    Name: 3mzt_TFX_1_ligand
#    Modification time : Tue Mar 25 00:22:44 2014

@<TRIPOS>MOLECULE
3mzt_TFX_1_ligand
   39    41     1     0     0
SMALL
NO_CHARGES


@<TRIPOS>ATOM
      1 N1        -26.0980   -9.6810  -11.1910 N.pl3     1 TFX100      0.0000 
      2 S1        -26.5320   -8.8170   -8.7770 S.3       1 TFX100      0.0000 
      3 C2        -26.5230  -14.0940   -7.3370 C.ar      1 TFX100      0.0000 
      4 N2        -26.5060  -15.3580   -6.5730 N.pl3     1 TFX100      0.0000 
      5 C3        -27.6910  -13.2410   -7.3730 C.ar      1 TFX100      0.0000 
      6 C4        -27.6810  -11.9860   -8.1410 C.ar      1 TFX100      0.0000 
      7 C5        -26.4130  -11.5560   -8.9130 C.ar      1 TFX100      0.0000 
      8 C6        -25.2190  -12.4640   -8.8630 C.ar      1 TFX100      0.0000 
      9 C7        -25.2170  -13.6650   -8.1360 C.ar      1 TFX100      0.0000 
     10 C8        -26.3210  -10.2560   -9.7780 C.2       1 TFX100      0.0000 
     11 C9        -26.1540   -8.0900  -11.2480 C.ar      1 TFX100      0.0000 
     12 C10       -26.4050   -7.5210   -9.8240 C.ar      1 TFX100      0.0000 
     13 C11       -26.4790   -6.1270   -9.6540 C.ar      1 TFX100      0.0000 
     14 C12       -26.3150   -5.2030  -10.8340 C.ar      1 TFX100      0.0000 
     15 C13       -26.0810   -5.7360  -12.1590 C.ar      1 TFX100      0.0000 
     16 C14       -26.0020   -7.2250  -12.3510 C.ar      1 TFX100      0.0000 
     17 C15       -27.6770  -15.7960   -5.8430 C.3       1 TFX100      0.0000 
     18 C16       -25.3080  -16.1720   -6.5430 C.3       1 TFX100      0.0000 
     19 C17       -25.8740  -10.5240  -12.3150 C.3       1 TFX100      0.0000 
     20 C18       -26.3890   -3.7490  -10.6800 C.3       1 TFX100      0.0000 
     21 H         -28.5276  -13.5004   -6.8690 H         1 TFX100      0.0000 
     22 H         -28.4738  -11.3923   -8.1834 H         1 TFX100      0.0000 
     23 H         -24.3940  -12.1604   -9.3926 H         1 TFX100      0.0000 
     24 H         -24.4536  -14.2937   -8.0700 H         1 TFX100      0.0000 
     25 H         -26.6416   -5.6987   -8.7532 H         1 TFX100      0.0000 
     26 H         -25.9702   -5.1435  -12.9513 H         1 TFX100      0.0000 
     27 H         -25.8388   -7.5651  -13.2858 H         1 TFX100      0.0000 
     28 H         -27.5180  -16.6637   -5.3720 H         1 TFX100      0.0000 
     29 H         -27.9516  -15.1313   -5.1482 H         1 TFX100      0.0000 
     30 H         -28.4626  -15.9301   -6.4471 H         1 TFX100      0.0000 
     31 H         -24.5306  -15.6747   -6.1579 H         1 TFX100      0.0000 
     32 H         -25.4323  -16.9956   -5.9896 H         1 TFX100      0.0000 
     33 H         -25.0397  -16.4718   -7.4585 H         1 TFX100      0.0000 
     34 H         -25.7514   -9.9970  -13.1559 H         1 TFX100      0.0000 
     35 H         -25.0555  -11.0868  -12.1999 H         1 TFX100      0.0000 
     36 H         -26.6397  -11.1484  -12.4694 H         1 TFX100      0.0000 
     37 H         -25.6872   -3.4054  -10.0559 H         1 TFX100      0.0000 
     38 H         -26.2626   -3.2763  -11.5521 H         1 TFX100      0.0000 
     39 H         -27.2735   -3.4588  -10.3148 H         1 TFX100      0.0000 
@<TRIPOS>BOND
     1   10    1 2    
     2   11    1 1    
     3   19    1 1    
     4   10    2 1    
     5   12    2 1    
     6    4    3 1    
     7    5    3 ar   
     8    9    3 ar   
     9   17    4 1    
    10   18    4 1    
    11    6    5 ar   
    12   21    5 1    
    13    7    6 ar   
    14   22    6 1    
    15    8    7 ar   
    16   10    7 1    
    17    9    8 ar   
    18   23    8 1    
    19   24    9 1    
    20   12   11 ar   
    21   16   11 ar   
    22   13   12 ar   
    23   14   13 ar   
    24   25   13 1    
    25   15   14 ar   
    26   20   14 1    
    27   16   15 ar   
    28   26   15 1    
    29   27   16 1    
    30   28   17 1    
    31   29   17 1    
    32   30   17 1    
    33   31   18 1    
    34   32   18 1    
    35   33   18 1    
    36   34   19 1    
    37   35   19 1    
    38   36   19 1    
    39   37   20 1    
    40   38   20 1    
    41   39   20 1    
@<TRIPOS>SUBSTRUCTURE
     1 TFX100      1 GROUP   
@<TRIPOS>SET

