#    Name: 4c57_FEF_2_INTS_M
#    Modification time : Tue Mar 25 08:57:48 2014

@<TRIPOS>MOLECULE
4c57_FEF_2_INTS_M
   66     0     9     0     0
SMALL
NO_CHARGES


@<TRIPOS>ATOM
      1 N         -21.6075   -6.6165    5.0660 N.am      2 SEC2        0.0000 
      2 N         -21.6740   -5.2670    5.0180 N.am      8 SEL2        0.0000 
      3 N         -21.5410   -7.9660    5.1140 N.am      5 SEP2        0.0000 
      4 O         -20.8005   -6.5575    2.7070 O.2       1 ALC1        0.0000 
      5 O         -20.9610   -5.2470    2.8170 O.2       7 ALL1        0.0000 
      6 O         -20.6400   -7.8680    2.5970 O.2       4 ALP1        0.0000 
      7 CA        -21.8080   -3.1870    5.9840 C.3       3 GLC5        0.0000 
      8 CA        -23.2420   -2.9000    4.3070 C.3       9 GLL5        0.0000 
      9 CA        -20.3740   -3.4740    7.6610 C.3       6 GLP5        0.0000 
     10 CA        -25.5610    1.3360    7.7745 C.3       3 GLC5        0.0000 
     11 CA        -26.1700   -0.6880    7.1680 C.3       9 GLL5        0.0000 
     12 CA        -24.9520    3.3600    8.3810 C.3       6 GLP5        0.0000 
     13 CA        -26.8980   -1.8605    9.8845 C.3       3 GLC5        0.0000 
     14 CA        -25.6180   -1.6090    8.0530 C.3       9 GLL5        0.0000 
     15 CA        -28.1780   -2.1120   11.7160 C.3       6 GLP5        0.0000 
     16 CA        -26.7535   -3.2200    8.7045 C.3       3 GLC5        0.0000 
     17 CA        -27.8890   -4.8310    9.3560 C.3       6 GLP5        0.0000 
     18 CA        -25.4730   -0.3760    9.7640 C.3       3 GLC5        0.0000 
     19 CA        -25.3280    0.8570   11.4750 C.3       6 GLP5        0.0000 
     20 CA        -25.3470   -4.4110    8.0705 C.3       3 GLC5        0.0000 
     21 CA        -24.6430   -2.5020    7.6280 C.3       9 GLL5        0.0000 
     22 CA        -26.0510   -6.3200    8.5130 C.3       6 GLP5        0.0000 
     23 CA        -23.8860    0.8320    0.8540 C.3       3 GLC5        0.0000 
     24 CA        -25.5890   -0.2410    1.2680 C.3       9 GLL5        0.0000 
     25 CA        -22.1830    1.9050    0.4400 C.3       6 GLP5        0.0000 
     26 CA        -25.7555   -1.5065   -0.2285 C.3       3 GLC5        0.0000 
     27 CA        -25.9220   -2.7720   -1.7250 C.3       6 GLP5        0.0000 
     28 CA        -25.9975   -2.2955    1.4535 C.3       3 GLC5        0.0000 
     29 CA        -26.4060   -4.3500    1.6390 C.3       6 GLP5        0.0000 
     30 CA        -28.4255   -0.7535    3.0575 C.3       3 GLC5        0.0000 
     31 CA        -27.8580    0.8500    1.8190 C.3       9 GLL5        0.0000 
     32 CA        -28.9930   -2.3570    4.2960 C.3       6 GLP5        0.0000 
     33 O         -31.5610    1.0890    1.6415 O.2       1 ALC1        0.0000 
     34 O         -30.2330    1.3030    1.8140 O.2       7 ALL1        0.0000 
     35 O         -32.8890    0.8750    1.4690 O.2       4 ALP1        0.0000 
     36 CA        -20.2638   -3.2185    2.8730 C.3       3 GLC5        0.0000 
     37 CA        -22.4460   -3.6260    3.4020 C.3       9 GLL5        0.0000 
     38 CA        -18.2390   -2.8840    3.0500 C.3       6 GLP5        0.0000 
     39 CA        -21.9365   -1.6000    4.4603 C.3       3 GLC5        0.0000 
     40 CA        -21.0290    0.0630    5.0660 C.3       6 GLP5        0.0000 
     41 CA        -24.5090   -4.0800    3.9407 C.3       3 GLC5        0.0000 
     42 CA        -26.1740   -4.8970    4.0270 C.3       6 GLP5        0.0000 
     43 CA        -24.3660   -3.6942    1.5625 C.3       3 GLC5        0.0000 
     44 CA        -22.1310   -3.4800    1.9900 C.3       9 GLL5        0.0000 
     45 CA        -24.0828   -2.7115   -0.6890 C.3       3 GLC5        0.0000 
     46 CA        -21.9660   -2.7050   -0.2880 C.3       9 GLL5        0.0000 
     47 CA        -22.2075   -5.0420   -0.7732 C.3       3 GLC5        0.0000 
     48 CA        -22.9230   -6.8900   -1.1190 C.3       6 GLP5        0.0000 
     49 CA        -20.1244   -2.1785    0.5700 C.3       3 GLC5        0.0000 
     50 CA        -21.0180   -3.6830   -0.5670 C.3       9 GLL5        0.0000 
     51 CA        -18.6180   -1.1900    1.2500 C.3       6 GLP5        0.0000 
     52 CA        -19.5755   -3.7110    2.0475 C.3       3 GLC5        0.0000 
     53 CA        -20.6270   -4.5900    0.4110 C.3       9 GLL5        0.0000 
     54 CA        -21.9175   -5.7140   -0.0370 C.3       3 GLC5        0.0000 
     55 CA        -21.1970   -4.4860    1.6790 C.3       9 GLL5        0.0000 
     56 CA        -22.7720   -0.9688    5.4522 C.3       3 GLC5        0.0000 
     57 CA        -24.7950   -1.5430    5.3800 C.3       9 GLL5        0.0000 
     58 CA        -25.3445   -3.4488    4.9328 C.3       3 GLC5        0.0000 
     59 CA        -26.9325   -2.0620    5.7692 C.3       3 GLC5        0.0000 
     60 CA        -28.5850   -3.0280    5.9300 C.3       6 GLP5        0.0000 
     61 CA        -27.2395   -2.0883    6.7702 C.3       3 GLC5        0.0000 
     62 CA        -24.6602   -2.4457    9.7012 C.3       3 GLC5        0.0000 
     63 CA        -24.1900   -2.8360   11.5620 C.3       6 GLP5        0.0000 
     64 CA        -22.4065   -2.9770    7.3117 C.3       3 GLC5        0.0000 
     65 CA        -26.5120   -2.7540    6.4463 C.3       3 GLC5        0.0000 
     66 CA        -24.2350   -2.4580    6.2970 C.3       9 GLL5        0.0000 
@<TRIPOS>BOND
@<TRIPOS>SUBSTRUCTURE
     1 ALC1        4 GROUP        1 X    ALC  0     ROOT ALC X 1
     2 SEC2        1 GROUP        1 X    SEC  0     **** SEC X 2
     3 GLC5        7 GROUP        1 X    GLC  0     **** GLC X 6
     4 ALP1        6 GROUP        1 Y    ALP  0     ROOT ALP Y 8
     5 SEP2        3 GROUP        1 Y    SEP  0     **** SEP Y 9
     6 GLP5        9 GROUP        1 Y    GLP  0     **** GLP Y 13
     7 ALL1        5 GROUP        1 Z    ALL  0     ROOT ALL Z 15
     8 SEL2        2 GROUP        1 Z    SEL  0     **** SEL Z 16
     9 GLL5        8 GROUP        1 Z    GLL  0     **** GLL Z 20
@<TRIPOS>SET

