#    Name: 4c57_FEF_2_ligand
#    Modification time : Tue Mar 25 08:57:48 2014

@<TRIPOS>MOLECULE
4c57_FEF_2_ligand
   46    49     1     0     0
SMALL
NO_CHARGES


@<TRIPOS>ATOM
      1 OAV       -21.6740   -5.2670    5.0180 O.2       1 FEF1337     0.0000 
      2 CAT       -21.6730   -4.7890    3.8790 C.2       1 FEF1337     0.0000 
      3 CAR       -22.4460   -3.6260    3.4020 C.2       1 FEF1337     0.0000 
      4 CAS       -22.1310   -3.4800    1.9900 C.ar      1 FEF1337     0.0000 
      5 CAX       -22.5210   -2.5970    0.9820 C.ar      1 FEF1337     0.0000 
      6 CAY       -21.9660   -2.7050   -0.2880 C.ar      1 FEF1337     0.0000 
      7 CAZ       -21.0180   -3.6830   -0.5670 C.ar      1 FEF1337     0.0000 
      8 CBA       -20.6270   -4.5900    0.4110 C.ar      1 FEF1337     0.0000 
      9 CAW       -21.1970   -4.4860    1.6790 C.ar      1 FEF1337     0.0000 
     10 NAU       -20.9610   -5.2470    2.8170 N.am      1 FEF1337     0.0000 
     11 CAI       -23.2420   -2.9000    4.3070 C.2       1 FEF1337     0.0000 
     12 CAG       -24.1760   -1.8140    4.0760 C.2       1 FEF1337     0.0000 
     13 CAD       -24.7950   -1.5430    5.3800 C.ar      1 FEF1337     0.0000 
     14 CAC       -25.7650   -0.6490    5.8370 C.ar      1 FEF1337     0.0000 
     15 CAA       -26.1700   -0.6880    7.1680 C.ar      1 FEF1337     0.0000 
     16 CAB       -25.6180   -1.6090    8.0530 C.ar      1 FEF1337     0.0000 
     17 CAF       -24.6430   -2.5020    7.6280 C.ar      1 FEF1337     0.0000 
     18 CAE       -24.2350   -2.4580    6.2970 C.ar      1 FEF1337     0.0000 
     19 NAH       -23.3020   -3.2460    5.6400 N.pl3     1 FEF1337     0.0000 
     20 NAJ       -24.3970   -1.4000    2.8780 N.2       1 FEF1337     0.0000 
     21 OAK       -25.5150   -0.5530    2.6650 O.3       1 FEF1337     0.0000 
     22 CAL       -25.5890   -0.2410    1.2680 C.3       1 FEF1337     0.0000 
     23 CAM       -26.6030    0.8360    0.9570 C.3       1 FEF1337     0.0000 
     24 CAN       -27.8580    0.8500    1.8190 C.3       1 FEF1337     0.0000 
     25 OAQ       -27.6170    1.6250    3.0020 O.3       1 FEF1337     0.0000 
     26 CAO       -29.0330    1.4210    1.0600 C.3       1 FEF1337     0.0000 
     27 OAP       -30.2330    1.3030    1.8140 O.3       1 FEF1337     0.0000 
     28 H         -23.2176   -1.8689    1.1807 H         1 FEF1337     0.0000 
     29 H         -22.2609   -2.0519   -1.0322 H         1 FEF1337     0.0000 
     30 H         -20.6003   -3.7360   -1.5102 H         1 FEF1337     0.0000 
     31 H         -19.9414   -5.3132    0.2083 H         1 FEF1337     0.0000 
     32 H         -20.3553   -6.0129    2.8339 H         1 FEF1337     0.0000 
     33 H         -26.1770    0.0341    5.1920 H         1 FEF1337     0.0000 
     34 H         -26.8887   -0.0255    7.5026 H         1 FEF1337     0.0000 
     35 H         -25.9372   -1.6278    9.0351 H         1 FEF1337     0.0000 
     36 H         -24.2343   -3.1747    8.2736 H         1 FEF1337     0.0000 
     37 H         -22.7738   -3.9352    6.0592 H         1 FEF1337     0.0000 
     38 H         -25.8539   -1.1406    0.6730 H         1 FEF1337     0.0000 
     39 H         -24.6036    0.0973    0.8832 H         1 FEF1337     0.0000 
     40 H         -26.9092    0.7463   -0.1115 H         1 FEF1337     0.0000 
     41 H         -26.1082    1.8322    1.0371 H         1 FEF1337     0.0000 
     42 H         -28.0906   -0.1786    2.0840 H         1 FEF1337     0.0000 
     43 H         -29.1067    0.8877    0.0964 H         1 FEF1337     0.0000 
     44 H         -28.8055    2.4750    0.8242 H         1 FEF1337     0.0000 
     45 H         -26.9063    1.1259    3.4978 H         1 FEF1337     0.0000 
     46 H         -30.9532    1.1649    1.1341 H         1 FEF1337     0.0000 
@<TRIPOS>BOND
     1    2    1 2    
     2    3    2 1    
     3   10    2 am   
     4    4    3 1    
     5   11    3 2    
     6    5    4 ar   
     7    9    4 ar   
     8    6    5 ar   
     9   28    5 1    
    10    7    6 ar   
    11   29    6 1    
    12    8    7 ar   
    13   30    7 1    
    14    9    8 ar   
    15   31    8 1    
    16   10    9 1    
    17   32   10 1    
    18   12   11 1    
    19   19   11 1    
    20   13   12 1    
    21   20   12 2    
    22   14   13 ar   
    23   18   13 ar   
    24   15   14 ar   
    25   33   14 1    
    26   16   15 ar   
    27   34   15 1    
    28   17   16 ar   
    29   35   16 1    
    30   18   17 ar   
    31   36   17 1    
    32   19   18 1    
    33   37   19 1    
    34   21   20 1    
    35   22   21 1    
    36   23   22 1    
    37   38   22 1    
    38   39   22 1    
    39   24   23 1    
    40   40   23 1    
    41   41   23 1    
    42   25   24 1    
    43   26   24 1    
    44   42   24 1    
    45   45   25 1    
    46   27   26 1    
    47   43   26 1    
    48   44   26 1    
    49   46   27 1    
@<TRIPOS>SUBSTRUCTURE
     1 FEF1337     1 GROUP   
@<TRIPOS>SET

