#    Name: 2brn_DF1_1_INTS_M
#    Modification time : Mon Mar 24 21:33:34 2014

@<TRIPOS>MOLECULE
2brn_DF1_1_INTS_M
   70     0     9     0     0
SMALL
NO_CHARGES


@<TRIPOS>ATOM
      1 CA          2.1440   -4.2870   16.2730 C.3       3 GLC5        0.0000 
      2 CA          2.1430   -5.9780   17.5700 C.3       9 GLL5        0.0000 
      3 CA          2.1450   -2.5960   14.9760 C.3       6 GLP5        0.0000 
      4 CA          6.9705   -6.8945   18.2285 C.3       3 GLC5        0.0000 
      5 CA          6.6830   -5.3550   16.7670 C.3       9 GLL5        0.0000 
      6 CA          7.2580   -8.4340   19.6900 C.3       6 GLP5        0.0000 
      7 CA          5.5005   -3.6505   16.4165 C.3       3 GLC5        0.0000 
      8 CA          4.3180   -1.9460   16.0660 C.3       6 GLP5        0.0000 
      9 CA         10.2835   -7.0705   15.7465 C.3       3 GLC5        0.0000 
     10 CA          9.0490   -5.4490   15.8290 C.3       9 GLL5        0.0000 
     11 CA         11.5180   -8.6920   15.6640 C.3       6 GLP5        0.0000 
     12 CA          9.5610   -4.8405   13.8815 C.3       3 GLC5        0.0000 
     13 CA         10.0730   -4.2320   11.9340 C.3       6 GLP5        0.0000 
     14 O           7.4255   -3.0475   15.4310 O.2       1 ALC1        0.0000 
     15 O           8.0840   -3.3060   16.6280 O.2       7 ALL1        0.0000 
     16 O           6.7670   -2.7890   14.2340 O.2       4 ALP1        0.0000 
     17 CA          6.8985   -2.7345   20.9535 C.3       3 GLC5        0.0000 
     18 CA          6.4590   -1.9940   19.5310 C.3       9 GLL5        0.0000 
     19 CA          7.3380   -3.4750   22.3760 C.3       6 GLP5        0.0000 
     20 CA          7.8095   -0.7585   18.4590 C.3       3 GLC5        0.0000 
     21 CA          9.1600    0.4770   17.3870 C.3       6 GLP5        0.0000 
     22 CA          5.9040   -0.6885   21.1510 C.3       3 GLC5        0.0000 
     23 CA          5.3490    0.6170   22.7710 C.3       6 GLP5        0.0000 
     24 CA          5.3435   -0.1700   18.8940 C.3       3 GLC5        0.0000 
     25 CA          4.2280    1.6540   18.2570 C.3       6 GLP5        0.0000 
     26 CA          5.3885   -1.9700   17.7985 C.3       3 GLC5        0.0000 
     27 N           4.3735   -0.5310   20.5365 N.am      2 SEC2        0.0000 
     28 N           5.2080   -1.7340   19.9080 N.am      8 SEL2        0.0000 
     29 N           3.5390    0.6720   21.1650 N.am      5 SEP2        0.0000 
     30 CA          3.4590   -0.8290   19.3100 C.3       3 GLC5        0.0000 
     31 CA          4.2360   -2.6300   19.7290 C.3       9 GLL5        0.0000 
     32 CA          2.6820    0.9720   18.8910 C.3       6 GLP5        0.0000 
     33 O           1.8390   -1.5480   20.2125 O.2       1 ALC1        0.0000 
     34 O           2.9070   -2.6020   20.0530 O.2       7 ALL1        0.0000 
     35 O           0.7710   -0.4940   20.3720 O.2       4 ALP1        0.0000 
     36 CA          3.3140   -2.8495   17.8545 C.3       3 GLC5        0.0000 
     37 CA          2.3100   -3.7530   19.6430 C.3       9 GLL5        0.0000 
     38 CA          2.8998   -5.9657   20.6930 C.3       3 GLC5        0.0000 
     39 CA          3.1260   -5.8340   18.5540 C.3       9 GLL5        0.0000 
     40 CA          2.2910   -5.5470   22.6420 C.3       6 GLP5        0.0000 
     41 CA          5.0843   -8.1378   19.7675 C.3       3 GLC5        0.0000 
     42 CA          3.6840   -8.1800   18.3240 C.3       9 GLL5        0.0000 
     43 CA          6.3810   -8.7180   20.9060 C.3       6 GLP5        0.0000 
     44 CA          2.6371   -9.3341   19.0115 C.3       3 GLC5        0.0000 
     45 CA          3.8910   -6.9350   18.9340 C.3       9 GLL5        0.0000 
     46 CA          2.0290  -10.7280   20.0390 C.3       6 GLP5        0.0000 
     47 CA          3.1080   -4.8792   20.8942 C.3       3 GLC5        0.0000 
     48 CA          3.3290   -4.5810   19.1610 C.3       9 GLL5        0.0000 
     49 CA          9.9830   -4.5062   17.5872 C.3       3 GLC5        0.0000 
     50 CA          8.1110   -4.7500   16.8160 C.3       9 GLL5        0.0000 
     51 CA         11.3860   -3.9130   18.8520 C.3       6 GLP5        0.0000 
     52 CA          6.0214   -3.3883   20.8545 C.3       3 GLC5        0.0000 
     53 CA          4.5210   -3.8420   19.1320 C.3       9 GLL5        0.0000 
     54 CA          4.4369   -2.6699   17.7013 C.3       3 GLC5        0.0000 
     55 CA          5.8260   -4.1040   18.7420 C.3       9 GLL5        0.0000 
     56 CA         -0.4675   -3.3790   18.6800 C.3       3 GLC5        0.0000 
     57 CA          0.9660   -4.0820   19.8800 C.3       9 GLL5        0.0000 
     58 CA         -1.6440   -2.0450   17.6540 C.3       6 GLP5        0.0000 
     59 CA          1.6680   -5.0889   21.1444 C.3       3 GLC5        0.0000 
     60 CA          0.4520   -5.3440   19.5320 C.3       9 GLL5        0.0000 
     61 CA          0.0640   -5.9057   21.7188 C.3       3 GLC5        0.0000 
     62 CA         -0.8860   -5.6480   19.8170 C.3       9 GLL5        0.0000 
     63 CA          1.4040   -6.6120   23.2520 C.3       6 GLP5        0.0000 
     64 CA         -1.4600   -3.6223   18.9198 C.3       3 GLC5        0.0000 
     65 CA          0.9155   -4.4620   21.7250 C.3       3 GLC5        0.0000 
     66 CA         -1.1180   -3.5360   20.9730 C.3       9 GLL5        0.0000 
     67 CA         -0.6165   -1.3480   21.5880 C.3       3 GLC5        0.0000 
     68 CA          0.1980   -3.2180   20.6430 C.3       9 GLL5        0.0000 
     69 CA         -0.7730    0.6810   22.3680 C.3       6 GLP5        0.0000 
     70 CA         -1.0520   -2.7110   19.2310 C.3       3 GLC5        0.0000 
@<TRIPOS>BOND
@<TRIPOS>SUBSTRUCTURE
     1 ALC1       14 GROUP        1 X    ALC  0     ROOT ALC X 1
     2 SEC2       27 GROUP        1 X    SEC  0     **** SEC X 2
     3 GLC5        1 GROUP        1 X    GLC  0     **** GLC X 6
     4 ALP1       16 GROUP        1 Y    ALP  0     ROOT ALP Y 8
     5 SEP2       29 GROUP        1 Y    SEP  0     **** SEP Y 9
     6 GLP5        3 GROUP        1 Y    GLP  0     **** GLP Y 13
     7 ALL1       15 GROUP        1 Z    ALL  0     ROOT ALL Z 15
     8 SEL2       28 GROUP        1 Z    SEL  0     **** SEL Z 16
     9 GLL5        2 GROUP        1 Z    GLL  0     **** GLL Z 20
@<TRIPOS>SET

