#    Name: 2brn_DF1_1_ligand
#    Modification time : Mon Mar 24 21:33:34 2014

@<TRIPOS>MOLECULE
2brn_DF1_1_ligand
   46    49     1     0     0
SMALL
NO_CHARGES


@<TRIPOS>ATOM
      1 C17         3.8910   -6.9350   18.9340 C.ar      1 DF11277     0.0000 
      2 C18         3.6840   -8.1800   18.3240 C.ar      1 DF11277     0.0000 
      3 C19         2.7030   -8.3230   17.3390 C.ar      1 DF11277     0.0000 
      4 C20         1.9290   -7.2240   16.9650 C.ar      1 DF11277     0.0000 
      5 C21         2.1430   -5.9780   17.5700 C.ar      1 DF11277     0.0000 
      6 C15         3.1260   -5.8340   18.5540 C.ar      1 DF11277     0.0000 
      7 C7          3.3290   -4.5810   19.1610 C.2       1 DF11277     0.0000 
      8 C6          4.5210   -3.8420   19.1320 C.ar      1 DF11277     0.0000 
      9 C4          5.8260   -4.1040   18.7420 C.ar      1 DF11277     0.0000 
     10 N10         6.1610   -5.3000   18.1630 N.pl3     1 DF11277     0.0000 
     11 C11         6.6830   -5.3550   16.7670 C.3       1 DF11277     0.0000 
     12 C12         8.1110   -4.7500   16.8160 C.3       1 DF11277     0.0000 
     13 C14         9.0490   -5.4490   15.8290 C.3       1 DF11277     0.0000 
     14 O13         8.0840   -3.3060   16.6280 O.3       1 DF11277     0.0000 
     15 N3          6.7710   -3.1620   18.9380 N.ar      1 DF11277     0.0000 
     16 C2          6.4590   -1.9940   19.5310 C.ar      1 DF11277     0.0000 
     17 N1          5.2080   -1.7340   19.9080 N.ar      1 DF11277     0.0000 
     18 C5          4.2360   -2.6300   19.7290 C.ar      1 DF11277     0.0000 
     19 N9          2.9070   -2.6020   20.0530 N.pl3     1 DF11277     0.0000 
     20 C8          2.3100   -3.7530   19.6430 C.2       1 DF11277     0.0000 
     21 C16         0.9660   -4.0820   19.8800 C.ar      1 DF11277     0.0000 
     22 C22         0.4520   -5.3440   19.5320 C.ar      1 DF11277     0.0000 
     23 C23        -0.8860   -5.6480   19.8170 C.ar      1 DF11277     0.0000 
     24 C24        -1.6660   -4.7510   20.5540 C.ar      1 DF11277     0.0000 
     25 C25        -1.1180   -3.5360   20.9730 C.ar      1 DF11277     0.0000 
     26 C26         0.1980   -3.2180   20.6430 C.ar      1 DF11277     0.0000 
     27 H           4.6087   -6.8379   19.6620 H         1 DF11277     0.0000 
     28 H           4.2543   -8.9860   18.6023 H         1 DF11277     0.0000 
     29 H           2.5531   -9.2338   16.8928 H         1 DF11277     0.0000 
     30 H           1.2029   -7.3250   16.2478 H         1 DF11277     0.0000 
     31 H           1.5759   -5.1699   17.2890 H         1 DF11277     0.0000 
     32 H           6.0711   -6.1945   18.6503 H         1 DF11277     0.0000 
     33 H           6.0834   -4.7579   16.1102 H         1 DF11277     0.0000 
     34 H           6.7545   -6.3675   16.4245 H         1 DF11277     0.0000 
     35 H           8.4991   -4.9721   17.8360 H         1 DF11277     0.0000 
     36 H           7.2154   -1.2838   19.6954 H         1 DF11277     0.0000 
     37 H           2.4627   -1.8704   20.5061 H         1 DF11277     0.0000 
     38 H           1.0513   -6.0323   19.0750 H         1 DF11277     0.0000 
     39 H          -1.2922   -6.5288   19.4845 H         1 DF11277     0.0000 
     40 H          -2.6362   -4.9847   20.7856 H         1 DF11277     0.0000 
     41 H          -1.6844   -2.8806   21.5222 H         1 DF11277     0.0000 
     42 H           0.6026   -2.3255   20.9735 H         1 DF11277     0.0000 
     43 H           9.9705   -5.0615   15.8544 H         1 DF11277     0.0000 
     44 H           9.1360   -6.4253   16.0272 H         1 DF11277     0.0000 
     45 H           8.7233   -5.3691   14.8869 H         1 DF11277     0.0000 
     46 H           8.0402   -3.1748   15.6376 H         1 DF11277     0.0000 
@<TRIPOS>BOND
     1    2    1 ar   
     2    6    1 ar   
     3   27    1 1    
     4    3    2 ar   
     5   28    2 1    
     6    4    3 ar   
     7   29    3 1    
     8    5    4 ar   
     9   30    4 1    
    10    6    5 ar   
    11   31    5 1    
    12    7    6 1    
    13    8    7 1    
    14   20    7 2    
    15    9    8 ar   
    16   18    8 ar   
    17   10    9 1    
    18   15    9 ar   
    19   11   10 1    
    20   32   10 1    
    21   12   11 1    
    22   33   11 1    
    23   34   11 1    
    24   13   12 1    
    25   14   12 1    
    26   35   12 1    
    27   43   13 1    
    28   44   13 1    
    29   45   13 1    
    30   46   14 1    
    31   16   15 ar   
    32   17   16 ar   
    33   36   16 1    
    34   18   17 ar   
    35   19   18 1    
    36   20   19 1    
    37   37   19 1    
    38   21   20 1    
    39   22   21 ar   
    40   26   21 ar   
    41   23   22 ar   
    42   38   22 1    
    43   24   23 ar   
    44   39   23 1    
    45   25   24 ar   
    46   40   24 1    
    47   26   25 ar   
    48   41   25 1    
    49   42   26 1    
@<TRIPOS>SUBSTRUCTURE
     1 DF11277     1 GROUP   
@<TRIPOS>SET

