#    Name: 4BUU_1_CAVITY_N1_6.mol2
#    Modification time : Tue Mar 11 20:31:15 2014

@<TRIPOS>MOLECULE
4BUU_1_CAVITY_N1_6.mol2
   79     0     6     0     0
SMALL
NO_CHARGES


@<TRIPOS>ATOM
      1 CA        -42.0254  -12.8850    5.3090 C.3       5 GLY6        0.0000 
      2 N         -41.5664  -11.7672    4.4202 N.2       2 ALA2        0.0000 
      3 CA        -40.2003  -12.3829    4.3515 C.3       5 GLY6        0.0000 
      4 CA        -38.8342  -12.9985    4.2828 C.3       5 GLY6        0.0000 
      5 CA        -37.4681  -13.6141    4.2141 C.3       5 GLY6        0.0000 
      6 N         -42.4736  -10.0339    3.6000 N.2       2 ALA2        0.0000 
      7 N         -41.1074  -10.6495    3.5313 N.2       2 ALA2        0.0000 
      8 DU        -39.7413  -11.2652    3.4626 H         6 CUB7        0.0000 
      9 DU        -40.6484   -9.5318    2.6425 H         6 CUB7        0.0000 
     10 CA        -41.6095  -12.0965    6.5153 C.3       5 GLY6        0.0000 
     11 CA        -40.2433  -12.7121    6.4466 C.3       5 GLY6        0.0000 
     12 N         -41.1505  -10.9788    5.6265 N.2       2 ALA2        0.0000 
     13 CA        -39.7843  -11.5944    5.5578 C.3       5 GLY6        0.0000 
     14 CA        -38.4182  -12.2100    5.4891 C.3       5 GLY6        0.0000 
     15 O         -37.0521  -12.8257    5.4204 O.2       2 ALA2        0.0000 
     16 N         -40.6915   -9.8610    4.7377 N.2       2 ALA2        0.0000 
     17 CZ        -39.3253  -10.4767    4.6690 C.ar      4 PHE5        0.0000 
     18 CZ        -37.9592  -11.0923    4.6003 C.ar      4 PHE5        0.0000 
     19 CA        -36.5931  -11.7079    4.5316 C.3       5 GLY6        0.0000 
     20 CA        -35.2270  -12.3236    4.4629 C.3       5 GLY6        0.0000 
     21 N         -40.2325   -8.7433    3.8489 N.2       2 ALA2        0.0000 
     22 CZ        -37.5002   -9.9746    3.7115 C.ar      4 PHE5        0.0000 
     23 CZ        -40.2864  -13.0414    8.5418 C.ar      4 PHE5        0.0000 
     24 CA        -38.9203  -13.6570    8.4731 C.3       5 GLY6        0.0000 
     25 CA        -41.1935  -11.3080    7.7217 C.3       5 GLY6        0.0000 
     26 CA        -39.8274  -11.9237    7.6530 C.3       5 GLY6        0.0000 
     27 CA        -38.4613  -12.5393    7.5843 C.3       5 GLY6        0.0000 
     28 O         -37.0951  -13.1549    7.5156 O.2       2 ALA2        0.0000 
     29 N         -40.7345  -10.1903    6.8329 N.2       2 ALA2        0.0000 
     30 DU        -39.3684  -10.8059    6.7642 H         6 CUB7        0.0000 
     31 CA        -38.0022  -11.4216    6.6955 C.3       5 GLY6        0.0000 
     32 CA        -36.6361  -12.0372    6.6268 C.3       5 GLY6        0.0000 
     33 N         -40.2755   -9.0726    5.9440 N.2       2 ALA2        0.0000 
     34 CZ        -38.9094   -9.6882    5.8753 C.ar      4 PHE5        0.0000 
     35 CA        -37.5432  -10.3038    5.8066 C.3       5 GLY6        0.0000 
     36 N         -39.8165   -7.9549    5.0552 N.2       2 ALA2        0.0000 
     37 CZ        -43.0725  -16.1082   13.3721 C.ar      4 PHE5        0.0000 
     38 CZ        -40.3294  -13.3707   10.6370 C.ar      4 PHE5        0.0000 
     39 CA        -39.8704  -12.2529    9.7482 C.3       5 GLY6        0.0000 
     40 CA        -40.7775  -10.5196    8.9280 C.3       5 GLY6        0.0000 
     41 DU        -39.4114  -11.1352    8.8593 H         6 CUB7        0.0000 
     42 CZ        -38.0453  -11.7508    8.7906 C.ar      4 PHE5        0.0000 
     43 CA        -36.6792  -12.3665    8.7219 C.3       5 GLY6        0.0000 
     44 N         -40.3185   -9.4018    8.0392 N.2       2 ALA2        0.0000 
     45 OG        -38.9524  -10.0175    7.9705 O.2       1 SER1        0.0000 
     46 CA        -37.5863  -10.6331    7.9018 C.3       5 GLY6        0.0000 
     47 N         -39.8595   -8.2841    7.1504 N.2       2 ALA2        0.0000 
     48 OG        -38.4934   -8.8997    7.0817 O.2       1 SER1        0.0000 
     49 CA        -37.1273   -9.5154    7.0130 C.3       5 GLY6        0.0000 
     50 CZ        -42.6565  -15.3197   14.5785 C.ar      4 PHE5        0.0000 
     51 OG        -41.2904  -15.9354   14.5098 O.2       1 SER1        0.0000 
     52 CZ        -42.1975  -14.2020   13.6897 C.ar      4 PHE5        0.0000 
     53 OG        -40.8314  -14.8176   13.6210 O.2       1 SER1        0.0000 
     54 CZ        -40.3724  -13.6999   12.7321 C.ar      4 PHE5        0.0000 
     55 CA        -41.2795  -11.9666   11.9120 C.3       5 GLY6        0.0000 
     56 CZ        -39.9134  -12.5822   11.8433 C.ar      4 PHE5        0.0000 
     57 CA        -40.8205  -10.8488   11.0232 C.3       5 GLY6        0.0000 
     58 CZ        -39.4544  -11.4645   10.9545 C.ar      4 PHE5        0.0000 
     59 CZ        -38.0883  -12.0801   10.8858 C.ar      4 PHE5        0.0000 
     60 N         -40.3615   -9.7311   10.1344 N.2       2 ALA2        0.0000 
     61 N         -38.9954  -10.3467   10.0657 N.2       2 ALA2        0.0000 
     62 N         -37.6293  -10.9624    9.9970 N.2       2 ALA2        0.0000 
     63 OG        -38.5364   -9.2290    9.1769 O.2       1 SER1        0.0000 
     64 CA        -37.1703   -9.8446    9.1082 C.3       5 GLY6        0.0000 
     65 NZ        -42.2406  -14.5313   15.7848 N.2       3 LYS4        0.0000 
     66 NZ        -40.8744  -15.1469   15.7161 N.2       3 LYS4        0.0000 
     67 CZ        -40.4154  -14.0292   14.8273 C.ar      4 PHE5        0.0000 
     68 CA        -39.9564  -12.9114   13.9385 C.3       5 GLY6        0.0000 
     69 CA        -39.4974  -11.7937   13.0497 C.3       5 GLY6        0.0000 
     70 CZ        -38.1313  -12.4093   12.9810 C.ar      4 PHE5        0.0000 
     71 N         -40.4045  -10.0604   12.2295 N.2       2 ALA2        0.0000 
     72 N         -39.0384  -10.6760   12.1608 N.2       2 ALA2        0.0000 
     73 N         -38.5794   -9.5583   11.2720 N.2       2 ALA2        0.0000 
     74 CA        -39.9995  -13.2407   16.0337 C.3       5 GLY6        0.0000 
     75 CA        -38.6333  -13.8563   15.9650 C.3       5 GLY6        0.0000 
     76 N         -39.5405  -12.1230   15.1448 N.2       2 ALA2        0.0000 
     77 CZ        -38.1743  -12.7386   15.0761 C.ar      4 PHE5        0.0000 
     78 N         -39.0814  -11.0052   14.2560 N.2       2 ALA2        0.0000 
     79 CZ        -37.7153  -11.6209   14.1873 C.ar      4 PHE5        0.0000 
@<TRIPOS>BOND
@<TRIPOS>SUBSTRUCTURE
     1 SER1       45 GROUP   
     2 ALA2        2 GROUP   
     3 LYS4       65 GROUP   
     4 PHE5       17 GROUP   
     5 GLY6        1 GROUP   
     6 CUB7        8 GROUP   
@<TRIPOS>SET

