#    Name: 4buu_F38_1_INTS_M
#    Modification time : Tue Mar 25 08:25:39 2014

@<TRIPOS>MOLECULE
4buu_F38_1_INTS_M
   42     0     9     0     0
SMALL
NO_CHARGES


@<TRIPOS>ATOM
      1 CA        -36.4110  -10.0455    7.7965 C.3       3 GLC5        0.0000 
      2 CA        -38.3540  -10.2600    8.6100 C.3       9 GLL5        0.0000 
      3 CA        -34.4680   -9.8310    6.9830 C.3       6 GLP5        0.0000 
      4 CA        -42.0945  -14.3390   17.5745 C.3       3 GLC5        0.0000 
      5 CA        -41.0400  -14.1610   15.6440 C.3       9 GLL5        0.0000 
      6 CA        -43.1490  -14.5170   19.5050 C.3       6 GLP5        0.0000 
      7 CA        -41.1275  -14.4045   18.1800 C.3       3 GLC5        0.0000 
      8 CA        -40.2940  -13.3960   16.5420 C.3       9 GLL5        0.0000 
      9 CA        -41.9610  -15.4130   19.8180 C.3       6 GLP5        0.0000 
     10 O         -37.1975  -10.3680   12.3355 O.2       1 ALC1        0.0000 
     11 O         -38.3840  -11.0070   12.8200 O.2       7 ALL1        0.0000 
     12 O         -36.0110   -9.7290   11.8510 O.2       4 ALP1        0.0000 
     13 N         -36.5415   -9.6590   14.6195 N.am      2 SEC2        0.0000 
     14 N         -37.7130  -10.4130   14.8780 N.am      8 SEL2        0.0000 
     15 N         -35.3700   -8.9050   14.3610 N.am      5 SEP2        0.0000 
     16 N         -36.9745  -10.5925   16.1920 N.am      2 SEC2        0.0000 
     17 N         -36.2360  -10.7720   17.5060 N.am      5 SEP2        0.0000 
     18 CA        -39.4900  -13.0235    5.8320 C.3       3 GLC5        0.0000 
     19 CA        -39.0150  -10.9480    6.2600 C.3       9 GLL5        0.0000 
     20 CA        -39.9650  -15.0990    5.4040 C.3       6 GLP5        0.0000 
     21 CA        -37.0487   -8.9350    9.4567 C.3       3 GLC5        0.0000 
     22 CA        -35.7280   -7.5070    9.6130 C.3       6 GLP5        0.0000 
     23 CA        -37.1497  -12.0812   10.8610 C.3       3 GLC5        0.0000 
     24 CA        -38.3850  -10.4660    9.9910 C.3       9 GLL5        0.0000 
     25 CA        -35.5770  -13.1510   11.4630 C.3       6 GLP5        0.0000 
     26 CA        -41.5345  -12.3485    9.1135 C.3       3 GLC5        0.0000 
     27 CA        -39.7480  -12.4170    9.6780 C.3       9 GLL5        0.0000 
     28 CA        -43.3350  -12.3840    9.2360 C.3       6 GLP5        0.0000 
     29 CA        -41.6758  -12.4195   14.0400 C.3       3 GLC5        0.0000 
     30 CA        -40.0860  -12.9880   13.7780 C.3       9 GLL5        0.0000 
     31 CA        -42.8430  -11.3590   14.0530 C.3       6 GLP5        0.0000 
     32 CA        -41.7550  -12.5688   15.0730 C.3       3 GLC5        0.0000 
     33 CA        -40.4718  -11.0870   17.0360 C.3       3 GLC5        0.0000 
     34 CA        -41.0810   -9.2800   17.7560 C.3       6 GLP5        0.0000 
     35 CA        -39.1672  -12.7090   18.0245 C.3       3 GLC5        0.0000 
     36 CA        -39.4310  -12.3920   16.0900 C.3       9 GLL5        0.0000 
     37 CA        -38.4720  -12.5240   19.7330 C.3       6 GLP5        0.0000 
     38 CA        -41.1075  -11.8193   14.7310 C.3       3 GLC5        0.0000 
     39 CA        -38.9530  -14.4411   17.0877 C.3       3 GLC5        0.0000 
     40 CA        -37.8570  -15.7970   18.0840 C.3       6 GLP5        0.0000 
     41 CA        -39.1573  -13.5145    7.4367 C.3       3 GLC5        0.0000 
     42 CA        -38.9330  -15.3070    6.4960 C.3       6 GLP5        0.0000 
@<TRIPOS>BOND
@<TRIPOS>SUBSTRUCTURE
     1 ALC1       10 GROUP        1 X    ALC  0     ROOT ALC X 1
     2 SEC2       13 GROUP        1 X    SEC  0     **** SEC X 2
     3 GLC5        1 GROUP        1 X    GLC  0     **** GLC X 6
     4 ALP1       12 GROUP        1 Y    ALP  0     ROOT ALP Y 8
     5 SEP2       15 GROUP        1 Y    SEP  0     **** SEP Y 9
     6 GLP5        3 GROUP        1 Y    GLP  0     **** GLP Y 13
     7 ALL1       11 GROUP        1 Z    ALL  0     ROOT ALL Z 15
     8 SEL2       14 GROUP        1 Z    SEL  0     **** SEL Z 16
     9 GLL5        2 GROUP        1 Z    GLL  0     **** GLL Z 20
@<TRIPOS>SET

