#    Name: 4buu_F38_1_ligand
#    Modification time : Tue Mar 25 08:25:39 2014

@<TRIPOS>MOLECULE
4buu_F38_1_ligand
   34    36     1     0     0
SMALL
NO_CHARGES


@<TRIPOS>ATOM
      1 OAD       -39.5740   -9.4340    4.3360 O.2       1 F382162     0.0000 
      2 OAB       -39.2830   -8.3990    6.4570 O.2       1 F382162     0.0000 
      3 CAF       -38.3540  -10.2600    8.6100 C.ar      1 F382162     0.0000 
      4 CAG       -38.3850  -10.4660    9.9910 C.ar      1 F382162     0.0000 
      5 CAJ       -39.7200  -12.2090    8.3040 C.ar      1 F382162     0.0000 
      6 CAI       -39.7480  -12.4170    9.6780 C.ar      1 F382162     0.0000 
      7 CAH       -39.0600  -11.5570   10.5270 C.ar      1 F382162     0.0000 
      8 CAK       -39.1300  -11.7820   12.0000 C.2       1 F382162     0.0000 
      9 CAT       -40.0860  -12.9880   13.7780 C.ar      1 F382162     0.0000 
     10 CAS       -40.9310  -13.9720   14.2760 C.ar      1 F382162     0.0000 
     11 CAR       -41.0400  -14.1610   15.6440 C.ar      1 F382162     0.0000 
     12 CAQ       -40.2940  -13.3960   16.5420 C.ar      1 F382162     0.0000 
     13 CAP       -39.4310  -12.3920   16.0900 C.ar      1 F382162     0.0000 
     14 CAO       -39.3130  -12.1670   14.7280 C.ar      1 F382162     0.0000 
     15 CAM       -38.4220  -11.1400   14.1550 C.2       1 F382162     0.0000 
     16 N10       -41.3430   -9.6680    5.9590 N.pl3     1 F382162     0.0000 
     17 N1        -38.3840  -11.0070   12.8200 N.am      1 F382162     0.0000 
     18 OAN       -37.7130  -10.4130   14.8780 O.2       1 F382162     0.0000 
     19 N         -39.9640  -12.7530   12.4480 N.2       1 F382162     0.0000 
     20 C         -39.0150  -10.9480    6.2600 C.3       1 F382162     0.0000 
     21 S         -39.7780   -9.5580    5.7540 S.o2      1 F382162     0.0000 
     22 C1        -39.0290  -11.1310    7.7640 C.ar      1 F382162     0.0000 
     23 H         -37.8319   -9.4646    8.2236 H         1 F382162     0.0000 
     24 H         -37.9028   -9.8025   10.6155 H         1 F382162     0.0000 
     25 H         -40.2181  -12.8627    7.6777 H         1 F382162     0.0000 
     26 H         -40.2782  -13.2080   10.0676 H         1 F382162     0.0000 
     27 H         -41.4741  -14.5584   13.6284 H         1 F382162     0.0000 
     28 H         -41.6866  -14.8832   16.0123 H         1 F382162     0.0000 
     29 H         -40.3795  -13.5728   17.5563 H         1 F382162     0.0000 
     30 H         -38.8975  -11.8354   16.7603 H         1 F382162     0.0000 
     31 H         -37.7531  -10.2754   12.3919 H         1 F382162     0.0000 
     32 H         -37.9983  -10.8795    5.8768 H         1 F382162     0.0000 
     33 H         -39.5289  -11.7641    5.7549 H         1 F382162     0.0000 
     34 H         -41.6107  -10.4967    5.4674 H         1 F382162     0.0000 
@<TRIPOS>BOND
     1   21    1 2    
     2   21    2 2    
     3    4    3 ar   
     4   22    3 ar   
     5   23    3 1    
     6    7    4 ar   
     7   24    4 1    
     8    6    5 ar   
     9   22    5 ar   
    10   25    5 1    
    11    7    6 ar   
    12   26    6 1    
    13    8    7 1    
    14   17    8 1    
    15   19    8 2    
    16   10    9 ar   
    17   14    9 ar   
    18   19    9 1    
    19   11   10 ar   
    20   27   10 1    
    21   12   11 ar   
    22   28   11 1    
    23   13   12 ar   
    24   29   12 1    
    25   14   13 ar   
    26   30   13 1    
    27   15   14 1    
    28   17   15 am   
    29   18   15 2    
    30   21   16 1    
    31   34   16 1    
    32   31   17 1    
    33   21   20 1    
    34   22   20 1    
    35   32   20 1    
    36   33   20 1    
@<TRIPOS>SUBSTRUCTURE
     1 F382162     1 GROUP   
@<TRIPOS>SET

