#    Name: 1mdl_RMN_1_INTS_M
#    Modification time : Mon Apr  7 14:35:34 2014

@<TRIPOS>MOLECULE
1mdl_RMN_1_INTS_M
   24     0     9     0     0
SMALL
NO_CHARGES


@<TRIPOS>ATOM
      1 CA         40.1450    5.4870   17.2730 C.3       3 GLC5        0.0000 
      2 CA         38.5290    4.2090   18.0750 C.3       9 GLL5        0.0000 
      3 CA         41.7610    6.7650   16.4710 C.3       6 GLP5        0.0000 
      4 CA         37.5575    6.5155   17.8670 C.3       3 GLC5        0.0000 
      5 CA         37.2020    4.4080   18.4100 C.3       9 GLL5        0.0000 
      6 CA         37.9130    8.6230   17.3240 C.3       6 GLP5        0.0000 
      7 NZ         33.1575    2.2345   19.3740 N.4       2 LYC4        0.0000 
      8 NZ         34.0220    1.9480   18.7300 N.4       8 LYL4        0.0000 
      9 NZ         31.7160    1.5250   20.6690 N.4       5 LYP4        0.0000 
     10 N          33.1575    2.2345   19.3740 N.am      1 SEC2        0.0000 
     11 N          34.0220    1.9480   18.7300 N.am      7 SEL2        0.0000 
     12 N          32.2930    2.5210   20.0180 N.am      4 SEP2        0.0000 
     13 NZ         33.2975    0.0935   19.8295 N.4       2 LYC4        0.0000 
     14 NZ         34.6420   -0.0320   19.2850 N.4       8 LYL4        0.0000 
     15 N          33.2975    0.0935   19.8295 N.am      1 SEC2        0.0000 
     16 N          34.6420   -0.0320   19.2850 N.am      7 SEL2        0.0000 
     17 N          31.9530    0.2190   20.3740 N.am      4 SEP2        0.0000 
     18 CA         39.1778    4.9262   19.5973 C.3       3 GLC5        0.0000 
     19 CA         40.4900    5.5440   20.9520 C.3       6 GLP5        0.0000 
     20 CA         39.7376    2.2279   18.8411 C.3       3 GLC5        0.0000 
     21 CA         40.9590    1.1090   19.9200 C.3       6 GLP5        0.0000 
     22 CA         37.7517    3.1505   19.8824 C.3       3 GLC5        0.0000 
     23 CA         36.7150    2.1570   17.6590 C.3       9 GLL5        0.0000 
     24 CA         37.7050    2.7060   21.7720 C.3       6 GLP5        0.0000 
@<TRIPOS>BOND
@<TRIPOS>SUBSTRUCTURE
     1 SEC2       10 GROUP        1 X    SEC  0     ROOT SEC X 2
     2 LYC4        7 GROUP        1 X    LYC  0     **** LYC X 4
     3 GLC5        1 GROUP        1 X    GLC  0     **** GLC X 6
     4 SEP2       12 GROUP        1 Y    SEP  0     ROOT SEP Y 9
     5 LYP4        9 GROUP        1 Y    LYP  0     **** LYP Y 11
     6 GLP5        3 GROUP        1 Y    GLP  0     **** GLP Y 13
     7 SEL2       11 GROUP        1 Z    SEL  0     ROOT SEL Z 16
     8 LYL4        8 GROUP        1 Z    LYL  0     **** LYL Z 18
     9 GLL5        2 GROUP        1 Z    GLL  0     **** GLL Z 20
@<TRIPOS>SET

