#    Name: 1mdl_RMN_1_ligand
#    Modification time : Mon Apr  7 14:35:34 2014

@<TRIPOS>MOLECULE
1mdl_RMN_1_ligand
   18    18     1     0     0
SMALL
NO_CHARGES


@<TRIPOS>ATOM
      1 C1         36.7150    2.1570   17.6590 C.ar      1 RMN398      0.0000 
      2 C2         38.0530    1.9740   17.3430 C.ar      1 RMN398      0.0000 
      3 C3         38.9540    2.9950   17.5560 C.ar      1 RMN398      0.0000 
      4 C4         38.5290    4.2090   18.0750 C.ar      1 RMN398      0.0000 
      5 C5         37.2020    4.4080   18.4100 C.ar      1 RMN398      0.0000 
      6 C6         36.3020    3.3790   18.2010 C.ar      1 RMN398      0.0000 
      7 C7         35.6670    1.0340   17.4160 C.3       1 RMN398      0.0000 
      8 C10        34.6860    0.9550   18.5790 C.2       1 RMN398      0.0000 
      9 O8         36.2600   -0.2640   17.0940 O.3       1 RMN398      0.0000 
     10 O11        34.0220    1.9480   18.7300 O.co2     1 RMN398      0.0000 
     11 O12        34.6420   -0.0320   19.2850 O.co2     1 RMN398      0.0000 
     12 H          38.3687    1.0758   16.9503 H         1 RMN398      0.0000 
     13 H          39.9532    2.8590   17.3289 H         1 RMN398      0.0000 
     14 H          39.2136    4.9731   18.2124 H         1 RMN398      0.0000 
     15 H          36.8924    5.2985   18.8045 H         1 RMN398      0.0000 
     16 H          35.3043    3.5081   18.4474 H         1 RMN398      0.0000 
     17 H          35.0651    1.3784   16.5304 H         1 RMN398      0.0000 
     18 H          35.7539   -0.9244   17.6488 H         1 RMN398      0.0000 
@<TRIPOS>BOND
     1    2    1 ar   
     2    6    1 ar   
     3    7    1 1    
     4    3    2 ar   
     5   12    2 1    
     6    4    3 ar   
     7   13    3 1    
     8    5    4 ar   
     9   14    4 1    
    10    6    5 ar   
    11   15    5 1    
    12   16    6 1    
    13    8    7 1    
    14    9    7 1    
    15   17    7 1    
    16   10    8 ar   
    17   11    8 ar   
    18   18    9 1    
@<TRIPOS>SUBSTRUCTURE
     1 RMN398      1 GROUP   
@<TRIPOS>SET

