#    Name: 3e8c_G96_3_INTS_M
#    Modification time : Tue Mar 25 01:08:49 2014

@<TRIPOS>MOLECULE
3e8c_G96_3_INTS_M
   86     0    12     0     0
SMALL
NO_CHARGES


@<TRIPOS>ATOM
      1 O         -24.7370   43.6275   36.5660 O.2       1 ALC1        0.0000 
      2 O         -24.5190   42.1330   36.2310 O.2       9 ALL1        0.0000 
      3 O         -24.9550   45.1220   36.9010 O.2       5 ALP1        0.0000 
      4 CA        -21.5620   35.0655   41.4225 C.3       4 GLC5        0.0000 
      5 CA        -22.4210   33.2990   40.9770 C.3      12 GLL5        0.0000 
      6 CA        -20.7030   36.8320   41.8680 C.3       8 GLP5        0.0000 
      7 CA        -20.8120   34.2990   39.9595 C.3       4 GLC5        0.0000 
      8 CA        -22.4820   32.9510   39.6350 C.3      12 GLL5        0.0000 
      9 CA        -19.1420   35.6470   40.2840 C.3       8 GLP5        0.0000 
     10 CA        -19.9590   34.7685   38.6675 C.3       4 GLC5        0.0000 
     11 CA        -20.7760   33.8900   37.0510 C.3      12 GLL5        0.0000 
     12 CA        -20.0815   35.0860   35.3835 C.3       4 GLC5        0.0000 
     13 CA        -19.3870   36.2820   33.7160 C.3       8 GLP5        0.0000 
     14 CA        -20.8930   35.9425   35.1205 C.3       4 GLC5        0.0000 
     15 CA        -22.3990   35.6030   36.5250 C.3      12 GLL5        0.0000 
     16 CA        -19.0900   38.8090   39.8485 C.3       4 GLC5        0.0000 
     17 CA        -18.5370   40.6400   38.9080 C.3      12 GLL5        0.0000 
     18 CA        -19.6430   36.9780   40.7890 C.3       8 GLP5        0.0000 
     19 CA        -17.2520   40.4185   40.5165 C.3       4 GLC5        0.0000 
     20 CA        -15.9670   40.1970   42.1250 C.3       8 GLP5        0.0000 
     21 CA        -28.7260   37.2955   37.8760 C.3       4 GLC5        0.0000 
     22 CA        -27.3420   36.8910   36.7920 C.3      12 GLL5        0.0000 
     23 CA        -30.1100   37.7000   38.9600 C.3       8 GLP5        0.0000 
     24 CA        -27.9125   35.1715   37.8080 C.3       4 GLC5        0.0000 
     25 CA        -28.4830   33.4520   38.8240 C.3       8 GLP5        0.0000 
     26 CA        -26.6305   37.5190   38.4685 C.3       4 GLC5        0.0000 
     27 CA        -25.9190   38.1470   40.1450 C.3       8 GLP5        0.0000 
     28 N         -17.0310   38.8325   35.8735 N.am      2 SEC2        0.0000 
     29 N         -17.6190   39.3980   37.0710 N.am     10 SEL2        0.0000 
     30 N         -16.4430   38.2670   34.6760 N.am      6 SEP2        0.0000 
     31 O         -17.0985   38.4735   37.7760 O.2       1 ALC1        0.0000 
     32 O         -17.6190   39.3980   37.0710 O.2       9 ALL1        0.0000 
     33 O         -16.5780   37.5490   38.4810 O.2       5 ALP1        0.0000 
     34 CA        -18.7230   38.8835   35.8585 C.3       4 GLC5        0.0000 
     35 CA        -18.7250   40.2230   37.4520 C.3      12 GLL5        0.0000 
     36 CA        -18.7210   37.5440   34.2650 C.3       8 GLP5        0.0000 
     37 CA        -19.4455   42.5550   35.4625 C.3       4 GLC5        0.0000 
     38 CA        -18.7710   41.4600   36.5620 C.3      12 GLL5        0.0000 
     39 CA        -20.1200   43.6500   34.3630 C.3       8 GLP5        0.0000 
     40 OD1       -19.8970   32.9855   34.6655 O.co2     3 ASC3        0.0000 
     41 OD1       -20.6370   32.0560   35.4950 O.co2    11 ASL3        0.0000 
     42 OD1       -19.1570   33.9150   33.8360 O.co2     7 ASP3        0.0000 
     43 O         -19.8970   32.9855   34.6655 O.2       1 ALC1        0.0000 
     44 O         -20.6370   32.0560   35.4950 O.2       9 ALL1        0.0000 
     45 O         -19.1570   33.9150   33.8360 O.2       5 ALP1        0.0000 
     46 CA        -21.6947   31.5550   43.2903 C.3       4 GLC5        0.0000 
     47 CA        -20.6420   31.7090   41.3220 C.3      12 GLL5        0.0000 
     48 CA        -22.3160   30.9160   45.0080 C.3       8 GLP5        0.0000 
     49 CA        -23.5415   32.9830   42.4290 C.3       4 GLC5        0.0000 
     50 CA        -21.5050   32.6790   41.8230 C.3      12 GLL5        0.0000 
     51 CA        -25.1200   32.9770   43.4580 C.3       8 GLP5        0.0000 
     52 CA        -20.1077   33.9205   40.9282 C.3       4 GLC5        0.0000 
     53 CA        -19.9282   33.1470   42.5998 C.3       4 GLC5        0.0000 
     54 CA        -18.7830   34.1000   43.6270 C.3       8 GLP5        0.0000 
     55 CA        -23.4047   34.6610   40.1420 C.3       4 GLC5        0.0000 
     56 CA        -24.3580   36.1970   39.9780 C.3       8 GLP5        0.0000 
     57 CA        -25.9665   41.6725   37.7885 C.3       4 GLC5        0.0000 
     58 CA        -25.9690   40.1990   35.8740 C.3      12 GLL5        0.0000 
     59 CA        -26.0810   42.4620   39.6530 C.3       8 GLP5        0.0000 
     60 CA        -25.6590   41.3235   34.2930 C.3       4 GLC5        0.0000 
     61 CA        -25.7350   41.5670   35.9740 C.3      12 GLL5        0.0000 
     62 CA        -25.4660   41.7640   32.6620 C.3       8 GLP5        0.0000 
     63 CA        -23.7063   35.9863   38.1725 C.3       4 GLC5        0.0000 
     64 CA        -23.7100   35.9480   36.2090 C.3      12 GLL5        0.0000 
     65 CA        -20.0353   38.0312   38.9813 C.3       4 GLC5        0.0000 
     66 CA        -20.8930   38.7320   37.0620 C.3      12 GLL5        0.0000 
     67 CA        -21.2988   40.4027   38.0777 C.3       4 GLC5        0.0000 
     68 CA        -19.9620   39.4370   37.2850 C.3      12 GLL5        0.0000 
     69 CA        -22.1700   41.7210   38.9820 C.3       8 GLP5        0.0000 
     70 CA        -28.5270   37.8462   35.2335 C.3       4 GLC5        0.0000 
     71 CA        -26.5000   37.1720   35.5620 C.3      12 GLL5        0.0000 
     72 CA        -30.1330   38.6610   34.2900 C.3       8 GLP5        0.0000 
     73 CA        -22.6232   30.4216   39.4581 C.3       4 GLC5        0.0000 
     74 CA        -23.3860   28.8020   40.3900 C.3       8 GLP5        0.0000 
     75 CA        -17.1625   41.5339   37.8175 C.3       4 GLC5        0.0000 
     76 CA        -15.6240   42.1220   38.2640 C.3       8 GLP5        0.0000 
     77 CA        -20.4355   41.3334   38.1765 C.3       4 GLC5        0.0000 
     78 CA        -23.5345   37.0114   38.2699 C.3       4 GLC5        0.0000 
     79 CA        -21.8170   37.8750   36.7940 C.3      12 GLL5        0.0000 
     80 CA        -22.3210   39.8957   37.8085 C.3       4 GLC5        0.0000 
     81 CA        -23.1270   38.2660   36.4760 C.3      12 GLL5        0.0000 
     82 CA        -22.5210   38.3904   34.5204 C.3       4 GLC5        0.0000 
     83 CA        -22.3310   38.9550   32.4790 C.3       8 GLP5        0.0000 
     84 CA        -19.9216   38.0119   35.6244 C.3       4 GLC5        0.0000 
     85 CA        -22.0270   30.1690   40.5192 C.3       4 GLC5        0.0000 
     86 CA        -20.6940   31.3630   39.9750 C.3      12 GLL5        0.0000 
@<TRIPOS>BOND
@<TRIPOS>SUBSTRUCTURE
     1 ALC1        1 GROUP        1 X    ALC  0     ROOT ALC X 1
     2 SEC2       28 GROUP        1 X    SEC  0     **** SEC X 2
     3 ASC3       40 GROUP        1 X    ASC  0     **** ASC X 3
     4 GLC5        4 GROUP        1 X    GLC  0     **** GLC X 6
     5 ALP1        3 GROUP        1 Y    ALP  0     ROOT ALP Y 8
     6 SEP2       30 GROUP        1 Y    SEP  0     **** SEP Y 9
     7 ASP3       42 GROUP        1 Y    ASP  0     **** ASP Y 10
     8 GLP5        6 GROUP        1 Y    GLP  0     **** GLP Y 13
     9 ALL1        2 GROUP        1 Z    ALL  0     ROOT ALL Z 15
    10 SEL2       29 GROUP        1 Z    SEL  0     **** SEL Z 16
    11 ASL3       41 GROUP        1 Z    ASL  0     **** ASL Z 17
    12 GLL5        5 GROUP        1 Z    GLL  0     **** GLL Z 20
@<TRIPOS>SET

