#    Name: 3e8c_G96_3_ligand
#    Modification time : Tue Mar 25 01:08:49 2014

@<TRIPOS>MOLECULE
3e8c_G96_3_ligand
   67    70     1     0     0
SMALL
NO_CHARGES


@<TRIPOS>ATOM
      1 N1        -27.2700   39.9460   35.6270 N.pl3     1 G96351      0.0000 
      2 N3        -24.5190   42.1330   36.2310 N.4       1 G96351      0.0000 
      3 C4        -21.5050   32.6790   41.8230 C.ar      1 G96351      0.0000 
      4 C5        -22.4210   33.2990   40.9770 C.ar      1 G96351      0.0000 
      5 C6        -22.4820   32.9510   39.6350 C.ar      1 G96351      0.0000 
      6 C7        -20.7760   33.8900   37.0510 C.3       1 G96351      0.0000 
      7 C8        -25.7350   41.5670   35.9740 C.2       1 G96351      0.0000 
      8 C10       -22.3990   35.6030   36.5250 C.ar      1 G96351      0.0000 
      9 C13       -20.8930   38.7320   37.0620 C.2       1 G96351      0.0000 
     10 C15       -24.0830   37.2870   36.1830 C.ar      1 G96351      0.0000 
     11 C17       -19.9620   39.4370   37.2850 C.2       1 G96351      0.0000 
     12 C20       -18.5370   40.6400   38.9080 C.3       1 G96351      0.0000 
     13 C21       -26.5000   37.1720   35.5620 C.3       1 G96351      0.0000 
     14 C22       -27.3420   36.8910   36.7920 C.3       1 G96351      0.0000 
     15 C24       -21.6720   31.6150   37.6680 C.3       1 G96351      0.0000 
     16 O3        -17.6190   39.3980   37.0710 O.3       1 G96351      0.0000 
     17 C18       -18.7250   40.2230   37.4520 C.3       1 G96351      0.0000 
     18 C19       -18.7710   41.4600   36.5620 C.3       1 G96351      0.0000 
     19 C12       -21.8170   37.8750   36.7940 C.ar      1 G96351      0.0000 
     20 N4        -21.4860   36.5610   36.8090 N.ar      1 G96351      0.0000 
     21 C14       -23.1270   38.2660   36.4760 C.ar      1 G96351      0.0000 
     22 N6        -23.7350   39.4730   36.3840 N.2       1 G96351      0.0000 
     23 C16       -25.0070   39.1910   36.0490 C.2       1 G96351      0.0000 
     24 N5        -25.2550   37.8780   35.9180 N.pl3     1 G96351      0.0000 
     25 C9        -25.9690   40.1990   35.8740 C.2       1 G96351      0.0000 
     26 O2        -27.8080   41.2780   35.5560 O.3       1 G96351      0.0000 
     27 N2        -26.8380   42.3130   35.7720 N.pl3     1 G96351      0.0000 
     28 C11       -23.7100   35.9480   36.2090 C.ar      1 G96351      0.0000 
     29 O1        -22.0450   34.2820   36.5440 O.3       1 G96351      0.0000 
     30 C23       -20.5940   32.3840   36.9090 C.3       1 G96351      0.0000 
     31 N7        -20.6370   32.0560   35.4950 N.4       1 G96351      0.0000 
     32 C1        -21.6160   31.9840   39.1340 C.ar      1 G96351      0.0000 
     33 C3        -20.6420   31.7090   41.3220 C.ar      1 G96351      0.0000 
     34 C2        -20.6940   31.3630   39.9750 C.ar      1 G96351      0.0000 
     35 H         -27.7335   39.1766   35.5243 H         1 G96351      0.0000 
     36 H         -21.4666   32.9379   42.8167 H         1 G96351      0.0000 
     37 H         -23.0558   34.0195   41.3514 H         1 G96351      0.0000 
     38 H         -23.1620   33.4037   39.0137 H         1 G96351      0.0000 
     39 H         -20.6663   34.1411   38.1157 H         1 G96351      0.0000 
     40 H         -19.9520   34.3786   36.5116 H         1 G96351      0.0000 
     41 H         -21.8691   39.7648   37.3540 H         1 G96351      0.0000 
     42 H         -20.6267   40.2628   38.2661 H         1 G96351      0.0000 
     43 H         -27.0926   37.7743   34.8615 H         1 G96351      0.0000 
     44 H         -26.2698   36.2187   35.0693 H         1 G96351      0.0000 
     45 H         -21.4996   30.5504   37.5514 H         1 G96351      0.0000 
     46 H         -22.6450   31.8712   37.2627 H         1 G96351      0.0000 
     47 H         -26.9853   43.1988   35.7629 H         1 G96351      0.0000 
     48 H         -24.3975   35.2166   35.9963 H         1 G96351      0.0000 
     49 H         -19.6282   32.1223   37.3207 H         1 G96351      0.0000 
     50 H         -19.9675   31.2490   41.9455 H         1 G96351      0.0000 
     51 H         -20.0551   30.6520   39.6006 H         1 G96351      0.0000 
     52 H         -24.0146   42.3275   35.3897 H         1 G96351      0.0000 
     53 H         -24.6088   42.9976   36.7254 H         1 G96351      0.0000 
     54 H         -23.9415   41.5357   36.7875 H         1 G96351      0.0000 
     55 H         -18.4728   39.8484   39.5157 H         1 G96351      0.0000 
     56 H         -17.7027   41.1762   39.0360 H         1 G96351      0.0000 
     57 H         -19.2983   41.1998   39.2353 H         1 G96351      0.0000 
     58 H         -26.8530   36.3245   37.4553 H         1 G96351      0.0000 
     59 H         -27.6043   37.7333   37.2629 H         1 G96351      0.0000 
     60 H         -28.1871   36.4088   36.5613 H         1 G96351      0.0000 
     61 H         -17.9429   42.0133   36.6520 H         1 G96351      0.0000 
     62 H         -18.8590   41.2191   35.5955 H         1 G96351      0.0000 
     63 H         -19.5448   42.0517   36.7882 H         1 G96351      0.0000 
     64 H         -21.5076   32.3187   35.0791 H         1 G96351      0.0000 
     65 H         -19.9153   32.5223   34.9834 H         1 G96351      0.0000 
     66 H         -20.5211   31.0753   35.3375 H         1 G96351      0.0000 
     67 H         -17.4549   38.8050   37.8593 H         1 G96351      0.0000 
@<TRIPOS>BOND
     1   25    1 1    
     2   26    1 1    
     3   35    1 1    
     4    7    2 1    
     5   52    2 1    
     6   53    2 1    
     7   54    2 1    
     8    4    3 ar   
     9   33    3 ar   
    10   36    3 1    
    11    5    4 ar   
    12   37    4 1    
    13   32    5 ar   
    14   38    5 1    
    15   29    6 1    
    16   30    6 1    
    17   39    6 1    
    18   40    6 1    
    19   25    7 2    
    20   27    7 1    
    21   20    8 ar   
    22   28    8 ar   
    23   29    8 1    
    24   11    9 2    
    25   19    9 1    
    26   41    9 1    
    27   21   10 ar   
    28   24   10 1    
    29   28   10 ar   
    30   17   11 1    
    31   42   11 1    
    32   17   12 1    
    33   55   12 1    
    34   56   12 1    
    35   57   12 1    
    36   14   13 1    
    37   24   13 1    
    38   43   13 1    
    39   44   13 1    
    40   58   14 1    
    41   59   14 1    
    42   60   14 1    
    43   30   15 1    
    44   32   15 1    
    45   45   15 1    
    46   46   15 1    
    47   17   16 1    
    48   67   16 1    
    49   18   17 1    
    50   61   18 1    
    51   62   18 1    
    52   63   18 1    
    53   20   19 ar   
    54   21   19 ar   
    55   22   21 1    
    56   23   22 2    
    57   24   23 1    
    58   25   23 1    
    59   27   26 1    
    60   47   27 1    
    61   48   28 1    
    62   31   30 1    
    63   49   30 1    
    64   64   31 1    
    65   65   31 1    
    66   66   31 1    
    67   34   32 ar   
    68   34   33 ar   
    69   50   33 1    
    70   51   34 1    
@<TRIPOS>SUBSTRUCTURE
     1 G96351      1 GROUP   
@<TRIPOS>SET

