#    Name: 2phh_APR_1_INTS_M
#    Modification time : Mon Mar 24 18:59:39 2014

@<TRIPOS>MOLECULE
2phh_APR_1_INTS_M
   77     0     9     0     0
SMALL
NO_CHARGES


@<TRIPOS>ATOM
      1 CA         27.0440   99.7545   69.9740 C.3       3 GLC5        0.0000 
      2 CA         27.7420  101.0930   69.1480 C.3       9 GLL5        0.0000 
      3 CA         26.3460   98.4160   70.8000 C.3       6 GLP5        0.0000 
      4 CA         26.5545  102.7370   68.9940 C.3       3 GLC5        0.0000 
      5 CA         25.3670  104.3810   68.8400 C.3       6 GLP5        0.0000 
      6 CA         28.7810  102.5570   68.1470 C.3       3 GLC5        0.0000 
      7 CA         29.8200  104.0210   67.1460 C.3       6 GLP5        0.0000 
      8 CA         27.0955   99.3670   68.9360 C.3       3 GLC5        0.0000 
      9 CA         27.8450  100.3180   67.0720 C.3       9 GLL5        0.0000 
     10 CA         25.6160  100.2630   67.3425 C.3       3 GLC5        0.0000 
     11 CA         23.3870  100.2080   67.6130 C.3       6 GLP5        0.0000 
     12 CA         28.0195   99.1230   69.6570 C.3       3 GLC5        0.0000 
     13 CA         29.6930   99.8300   68.5140 C.3       9 GLL5        0.0000 
     14 CA         30.1135   98.3800   69.6650 C.3       3 GLC5        0.0000 
     15 CA         30.5340   96.9300   70.8160 C.3       6 GLP5        0.0000 
     16 CA         24.9235  100.5010   66.3265 C.3       3 GLC5        0.0000 
     17 CA         26.4600  100.7940   65.0400 C.3       9 GLL5        0.0000 
     18 N          28.6960  102.3610   63.2365 N.am      2 SEC2        0.0000 
     19 N          27.4070  102.5370   63.6430 N.am      8 SEL2        0.0000 
     20 N          29.9850  102.1850   62.8300 N.am      5 SEP2        0.0000 
     21 O          26.5730  103.4085   64.0995 O.2       1 ALC1        0.0000 
     22 O          27.4070  102.5370   63.6430 O.2       7 ALL1        0.0000 
     23 O          25.7390  104.2800   64.5560 O.2       4 ALP1        0.0000 
     24 N          24.4430  102.4550   61.7410 N.am      2 SEC2        0.0000 
     25 N          24.8080  102.4080   63.0610 N.am      8 SEL2        0.0000 
     26 N          24.0780  102.5020   60.4210 N.am      5 SEP2        0.0000 
     27 O          24.4905  102.7515   64.2390 O.2       1 ALC1        0.0000 
     28 O          24.8080  102.4080   63.0610 O.2       7 ALL1        0.0000 
     29 O          24.1730  103.0950   65.4170 O.2       4 ALP1        0.0000 
     30 CA         24.0460  100.1275   65.6390 C.3       3 GLC5        0.0000 
     31 CA         24.7050  100.0470   63.6650 C.3       9 GLL5        0.0000 
     32 CA         25.1155   97.6275   64.7470 C.3       3 GLC5        0.0000 
     33 CA         24.6520   98.7050   62.9380 C.3       9 GLL5        0.0000 
     34 CA         25.5790   96.5500   66.5560 C.3       6 GLP5        0.0000 
     35 CA         25.2020   96.7650   63.0560 C.3       3 GLC5        0.0000 
     36 CA         25.7520   94.8250   63.1740 C.3       6 GLP5        0.0000 
     37 N          23.2745   98.2710   58.0775 N.am      2 SEC2        0.0000 
     38 N          22.6280   98.4460   59.5290 N.am      8 SEL2        0.0000 
     39 N          23.9210   98.0960   56.6260 N.am      5 SEP2        0.0000 
     40 N          18.7670   96.9470   62.7335 N.am      2 SEC2        0.0000 
     41 N          20.0800   96.6250   62.2670 N.am      8 SEL2        0.0000 
     42 N          17.4540   97.2690   63.2000 N.am      5 SEP2        0.0000 
     43 N          19.2785   95.4420   62.8675 N.am      2 SEC2        0.0000 
     44 N          18.4770   94.2590   63.4680 N.am      5 SEP2        0.0000 
     45 N          22.1555   93.3215   62.1145 N.am      2 SEC2        0.0000 
     46 N          21.7540   94.6540   62.2790 N.am      8 SEL2        0.0000 
     47 N          22.5570   91.9890   61.9500 N.am      5 SEP2        0.0000 
     48 CA         19.2650   97.8570   59.3555 C.3       3 GLC5        0.0000 
     49 CA         20.3870   96.3650   59.0100 C.3       9 GLL5        0.0000 
     50 CA         18.1430   99.3490   59.7010 C.3       6 GLP5        0.0000 
     51 N          22.8525   97.1005   56.8245 N.am      2 SEC2        0.0000 
     52 N          21.7840   96.1050   57.0230 N.am      8 SEL2        0.0000 
     53 N          20.8385   97.4295   57.0465 N.am      2 SEC2        0.0000 
     54 N          19.8930   98.7540   57.0700 N.am      5 SEP2        0.0000 
     55 O          23.5245   93.5510   57.5650 O.2       1 ALC1        0.0000 
     56 O          23.6440   94.6910   56.6190 O.2       7 ALL1        0.0000 
     57 O          23.4050   92.4110   58.5110 O.2       4 ALP1        0.0000 
     58 O          24.2720   94.3175   57.5640 O.2       1 ALC1        0.0000 
     59 O          24.9000   93.9440   58.5090 O.2       4 ALP1        0.0000 
     60 O          22.4390   92.4670   57.5750 O.2       1 ALC1        0.0000 
     61 O          21.4730   92.5230   56.6390 O.2       7 ALL1        0.0000 
     62 CA         22.8850   93.4440   58.9480 C.3       3 GLC5        0.0000 
     63 CA         21.4640   93.7970   57.2730 C.3       9 GLL5        0.0000 
     64 CA         24.3060   93.0910   60.6230 C.3       6 GLP5        0.0000 
     65 O          18.8860   92.8305   56.8190 O.2       1 ALC1        0.0000 
     66 O          19.4300   94.2910   56.0440 O.2       7 ALL1        0.0000 
     67 O          18.3420   91.3700   57.5940 O.2       4 ALP1        0.0000 
     68 CA         18.3910   93.9355   57.0685 C.3       3 GLC5        0.0000 
     69 CA         20.0770   94.4460   57.3080 C.3       9 GLL5        0.0000 
     70 CA         16.7050   93.4250   56.8290 C.3       6 GLP5        0.0000 
     71 CA         29.4540  101.9693   67.4941 C.3       3 GLC5        0.0000 
     72 CA         27.8590   98.4453   67.7091 C.3       3 GLC5        0.0000 
     73 CA         26.6300   96.9730   67.5760 C.3       6 GLP5        0.0000 
     74 CA         18.3612   96.1412   58.3102 C.3       3 GLC5        0.0000 
     75 CA         16.3100   96.1340   58.3490 C.3       6 GLP5        0.0000 
     76 CA         19.8252   92.4342   56.2997 C.3       3 GLC5        0.0000 
     77 CA         18.8800   90.7470   55.3090 C.3       6 GLP5        0.0000 
@<TRIPOS>BOND
@<TRIPOS>SUBSTRUCTURE
     1 ALC1       21 GROUP        1 X    ALC  0     ROOT ALC X 1
     2 SEC2       18 GROUP        1 X    SEC  0     **** SEC X 2
     3 GLC5        1 GROUP        1 X    GLC  0     **** GLC X 6
     4 ALP1       23 GROUP        1 Y    ALP  0     ROOT ALP Y 8
     5 SEP2       20 GROUP        1 Y    SEP  0     **** SEP Y 9
     6 GLP5        3 GROUP        1 Y    GLP  0     **** GLP Y 13
     7 ALL1       22 GROUP        1 Z    ALL  0     ROOT ALL Z 15
     8 SEL2       19 GROUP        1 Z    SEL  0     **** SEL Z 16
     9 GLL5        2 GROUP        1 Z    GLL  0     **** GLL Z 20
@<TRIPOS>SET

