#    Name: 2phh_APR_1_ligand
#    Modification time : Mon Mar 24 18:59:39 2014

@<TRIPOS>MOLECULE
2phh_APR_1_ligand
   57    60     1     0     0
SMALL
NO_CHARGES


@<TRIPOS>ATOM
      1 N1         28.9820  100.5220   69.4400 N.ar      1 APR395      0.0000 
      2 C2         27.7420  101.0930   69.1480 C.ar      1 APR395      0.0000 
      3 N3         27.1570  100.9970   68.0010 N.ar      1 APR395      0.0000 
      4 C4         27.8450  100.3180   67.0720 C.ar      1 APR395      0.0000 
      5 C5         29.1210   99.6920   67.2690 C.ar      1 APR395      0.0000 
      6 C6         29.6930   99.8300   68.5140 C.ar      1 APR395      0.0000 
      7 N6         30.8960   99.3050   68.8580 N.pl3     1 APR395      0.0000 
      8 N7         29.5270   99.0810   66.1330 N.2       1 APR395      0.0000 
      9 C8         28.5730   99.3160   65.2420 C.2       1 APR395      0.0000 
     10 N9         27.5430  100.0770   65.7700 N.pl3     1 APR395      0.0000 
     11 C1'        26.4600  100.7940   65.0400 C.3       1 APR395      0.0000 
     12 C2'        26.8320  101.2770   63.6470 C.3       1 APR395      0.0000 
     13 O2'        27.4070  102.5370   63.6430 O.3       1 APR395      0.0000 
     14 C3'        25.4980  101.1600   62.9170 C.3       1 APR395      0.0000 
     15 O3'        24.8080  102.4080   63.0610 O.3       1 APR395      0.0000 
     16 O4'        25.3790   99.9050   64.9430 O.3       1 APR395      0.0000 
     17 C4'        24.7050  100.0470   63.6650 C.3       1 APR395      0.0000 
     18 C5'        24.6520   98.7050   62.9380 C.3       1 APR395      0.0000 
     19 O5'        23.8120   98.9120   61.7490 O.3       1 APR395      0.0000 
     20 PA         23.5170   97.8530   60.6380 P.3       1 APR395      0.0000 
     21 O1A        24.6270   96.9200   60.1330 O.co2     1 APR395      0.0000 
     22 O2A        22.6280   98.4460   59.5290 O.co2     1 APR395      0.0000 
     23 O3A        22.4570   96.9050   61.4510 O.3       1 APR395      0.0000 
     24 PB         21.1930   95.8700   61.5850 P.3       1 APR395      0.0000 
     25 O1B        20.0800   96.6250   62.2670 O.co2     1 APR395      0.0000 
     26 O2B        21.7540   94.6540   62.2790 O.co2     1 APR395      0.0000 
     27 O5D        21.0030   95.6900   60.0090 O.3       1 APR395      0.0000 
     28 C5D        20.3870   96.3650   59.0100 C.3       1 APR395      0.0000 
     29 O4D        21.7840   96.1050   57.0230 O.3       1 APR395      0.0000 
     30 O1D        23.6440   94.6910   56.6190 O.3       1 APR395      0.0000 
     31 C1D        22.2380   94.8510   56.4840 C.3       1 APR395      0.0000 
     32 O2D        21.4730   92.5230   56.6390 O.3       1 APR395      0.0000 
     33 C2D        21.4640   93.7970   57.2730 C.3       1 APR395      0.0000 
     34 O3D        19.4300   94.2910   56.0440 O.3       1 APR395      0.0000 
     35 C3D        20.0770   94.4460   57.3080 C.3       1 APR395      0.0000 
     36 C4D        20.4380   95.9320   57.5330 C.3       1 APR395      0.0000 
     37 H          27.2837  101.6340   69.9516 H         1 APR395      0.0000 
     38 H          31.3889   98.8226   68.1338 H         1 APR395      0.0000 
     39 H          31.1833   99.4469   69.8053 H         1 APR395      0.0000 
     40 H          28.5680   99.0003   64.3065 H         1 APR395      0.0000 
     41 H          26.1633  101.6657   65.6321 H         1 APR395      0.0000 
     42 H          27.4743  100.4959   63.2276 H         1 APR395      0.0000 
     43 H          25.6551  100.8680   61.9339 H         1 APR395      0.0000 
     44 H          23.7043  100.4170   63.8253 H         1 APR395      0.0000 
     45 H          24.2175   97.9715   63.5961 H         1 APR395      0.0000 
     46 H          25.6533   98.4218   62.6602 H         1 APR395      0.0000 
     47 H          20.7082   97.4860   58.9941 H         1 APR395      0.0000 
     48 H          19.2507   96.5064   59.2310 H         1 APR395      0.0000 
     49 H          21.9154   94.7655   55.4540 H         1 APR395      0.0000 
     50 H          21.8433   93.8031   58.2679 H         1 APR395      0.0000 
     51 H          19.5538   94.0990   58.1289 H         1 APR395      0.0000 
     52 H          19.7499   96.5331   56.9645 H         1 APR395      0.0000 
     53 H          26.6437  103.1693   63.5100 H         1 APR395      0.0000 
     54 H          24.2007  102.2789   63.8448 H         1 APR395      0.0000 
     55 H          23.7576   93.9247   57.2514 H         1 APR395      0.0000 
     56 H          22.2815   92.0594   57.0014 H         1 APR395      0.0000 
     57 H          18.9317   93.4267   56.1127 H         1 APR395      0.0000 
@<TRIPOS>BOND
     1    2    1 ar   
     2    6    1 ar   
     3    3    2 ar   
     4   37    2 1    
     5    4    3 ar   
     6    5    4 ar   
     7   10    4 1    
     8    6    5 ar   
     9    8    5 1    
    10    7    6 1    
    11   38    7 1    
    12   39    7 1    
    13    9    8 2    
    14   10    9 1    
    15   40    9 1    
    16   11   10 1    
    17   12   11 1    
    18   16   11 1    
    19   41   11 1    
    20   13   12 1    
    21   14   12 1    
    22   42   12 1    
    23   53   13 1    
    24   15   14 1    
    25   17   14 1    
    26   43   14 1    
    27   54   15 1    
    28   17   16 1    
    29   18   17 1    
    30   44   17 1    
    31   19   18 1    
    32   45   18 1    
    33   46   18 1    
    34   20   19 1    
    35   21   20 ar   
    36   22   20 ar   
    37   23   20 1    
    38   24   23 1    
    39   25   24 ar   
    40   26   24 ar   
    41   27   24 1    
    42   28   27 1    
    43   36   28 1    
    44   47   28 1    
    45   48   28 1    
    46   31   29 1    
    47   36   29 1    
    48   31   30 1    
    49   55   30 1    
    50   33   31 1    
    51   49   31 1    
    52   33   32 1    
    53   56   32 1    
    54   35   33 1    
    55   50   33 1    
    56   35   34 1    
    57   57   34 1    
    58   36   35 1    
    59   51   35 1    
    60   52   36 1    
@<TRIPOS>SUBSTRUCTURE
     1 APR395      1 GROUP   
@<TRIPOS>SET

