#    Name: 2bre_KJ2_1_INTS_M
#    Modification time : Mon Mar 24 21:32:20 2014

@<TRIPOS>MOLECULE
2bre_KJ2_1_INTS_M
   53     0     6     0     0
SMALL
NO_CHARGES


@<TRIPOS>ATOM
      1 CA         18.3445   19.1085   14.3265 C.3       2 GLC5        0.0000 
      2 CA         16.9470   19.1440   15.9590 C.3       6 GLL5        0.0000 
      3 CA         19.7420   19.0730   12.6940 C.3       4 GLP5        0.0000 
      4 CA         18.1865   17.9645   18.0065 C.3       2 GLC5        0.0000 
      5 CA         17.9200   19.7050   16.7850 C.3       6 GLL5        0.0000 
      6 CA         18.4530   16.2240   19.2280 C.3       4 GLP5        0.0000 
      7 CA         16.2385   21.4995   15.2910 C.3       2 GLC5        0.0000 
      8 CA         16.3360   21.2890   17.5140 C.3       6 GLL5        0.0000 
      9 CA         16.1410   21.7100   13.0680 C.3       4 GLP5        0.0000 
     10 O          19.4785   18.0045   16.1640 O.2       1 ALC1        0.0000 
     11 O          19.1620   19.1230   16.7710 O.2       5 ALL1        0.0000 
     12 O          19.7950   16.8860   15.5570 O.2       3 ALP1        0.0000 
     13 CA         14.9710   21.5880   14.9070 C.3       2 GLC5        0.0000 
     14 CA         13.8010   21.4660   16.7460 C.3       6 GLL5        0.0000 
     15 CA         12.8595   21.7115   18.4285 C.3       2 GLC5        0.0000 
     16 CA         11.9180   21.9570   20.1110 C.3       4 GLP5        0.0000 
     17 CA         12.2475   20.7870   16.4600 C.3       2 GLC5        0.0000 
     18 CA         10.6940   20.1080   16.1740 C.3       4 GLP5        0.0000 
     19 CA         18.5175   21.9765   20.5065 C.3       2 GLC5        0.0000 
     20 CA         19.1590   22.7050   18.4860 C.3       6 GLL5        0.0000 
     21 CA         17.8760   21.2480   22.5270 C.3       4 GLP5        0.0000 
     22 CA         20.6990   22.8835   16.1155 C.3       2 GLC5        0.0000 
     23 CA         18.8550   23.8610   16.2810 C.3       6 GLL5        0.0000 
     24 CA         22.5430   21.9060   15.9500 C.3       4 GLP5        0.0000 
     25 CA         17.8705   23.4810   13.9005 C.3       2 GLC5        0.0000 
     26 CA         18.3340   24.9060   15.5370 C.3       6 GLL5        0.0000 
     27 CA         17.4070   22.0560   12.2640 C.3       4 GLP5        0.0000 
     28 CA         13.3195   29.3985   13.0180 C.3       2 GLC5        0.0000 
     29 CA         14.9740   28.8640   13.7810 C.3       6 GLL5        0.0000 
     30 CA         11.6650   29.9330   12.2550 C.3       4 GLP5        0.0000 
     31 O          12.9755   29.2565   14.1860 O.2       1 ALC1        0.0000 
     32 O          14.4370   30.1000   14.2750 O.2       5 ALL1        0.0000 
     33 O          11.5140   28.4130   14.0970 O.2       3 ALP1        0.0000 
     34 CA         15.2345   17.8012   16.3410 C.3       2 GLC5        0.0000 
     35 CA         15.6670   19.6610   15.9090 C.3       6 GLL5        0.0000 
     36 CA         14.1620   16.2000   16.7480 C.3       4 GLP5        0.0000 
     37 CA         15.9850   20.4205   18.9907 C.3       2 GLC5        0.0000 
     38 CA         15.3640   20.7490   16.7130 C.3       6 GLL5        0.0000 
     39 CA         16.1200   19.8220   20.8680 C.3       4 GLP5        0.0000 
     40 CA         16.1861   20.6923   14.6015 C.3       2 GLC5        0.0000 
     41 CA         19.7233   20.5020   16.7985 C.3       2 GLC5        0.0000 
     42 CA         21.6700   20.7450   16.4080 C.3       4 GLP5        0.0000 
     43 CA         17.1669   20.3248   19.3350 C.3       2 GLC5        0.0000 
     44 CA         18.6510   21.3960   18.4150 C.3       6 GLL5        0.0000 
     45 CA         20.2285   21.8209   17.2309 C.3       2 GLC5        0.0000 
     46 CA         20.2470   25.0410   17.2170 C.3       2 GLC5        0.0000 
     47 CA         18.6690   23.7430   17.6570 C.3       6 GLL5        0.0000 
     48 CA         21.7320   26.2800   17.4650 C.3       4 GLP5        0.0000 
     49 CA         19.6817   24.5813   14.4900 C.3       2 GLC5        0.0000 
     50 CA         20.7690   24.7790   13.0710 C.3       4 GLP5        0.0000 
     51 CA         19.8473   25.8422   16.6527 C.3       2 GLC5        0.0000 
     52 CA         19.6905   25.7882   17.6685 C.3       2 GLC5        0.0000 
     53 CA         17.3870   25.8230   17.5000 C.3       6 GLL5        0.0000 
@<TRIPOS>BOND
@<TRIPOS>SUBSTRUCTURE
     1 ALC1       10 GROUP        1 X    ALC  0     ROOT ALC X 1
     2 GLC5        1 GROUP        1 X    GLC  0     **** GLC X 6
     3 ALP1       12 GROUP        1 Y    ALP  0     ROOT ALP Y 8
     4 GLP5        3 GROUP        1 Y    GLP  0     **** GLP Y 13
     5 ALL1       11 GROUP        1 Z    ALL  0     ROOT ALL Z 15
     6 GLL5        2 GROUP        1 Z    GLL  0     **** GLL Z 20
@<TRIPOS>SET

