#    Name: 2bre_KJ2_1_ligand
#    Modification time : Mon Mar 24 21:32:20 2014

@<TRIPOS>MOLECULE
2bre_KJ2_1_ligand
   44    46     1     0     0
SMALL
NO_CHARGES


@<TRIPOS>ATOM
      1 C1         15.6670   19.6610   15.9090 C.ar      1 KJ21214     0.0000 
      2 C2         15.3640   20.7490   16.7130 C.ar      1 KJ21214     0.0000 
      3 C3         16.9470   19.1440   15.9590 C.ar      1 KJ21214     0.0000 
      4 C4         17.9200   19.7050   16.7850 C.ar      1 KJ21214     0.0000 
      5 C5         17.6330   20.8130   17.5930 C.ar      1 KJ21214     0.0000 
      6 C6         16.3360   21.2890   17.5140 C.ar      1 KJ21214     0.0000 
      7 O7         19.1620   19.1230   16.7710 O.3       1 KJ21214     0.0000 
      8 O8         14.7660   19.0750   15.0800 O.3       1 KJ21214     0.0000 
      9 CL9        13.8010   21.4660   16.7460 Cl        1 KJ21214     0.0000 
     10 C10        18.6510   21.3960   18.4150 C.2       1 KJ21214     0.0000 
     11 C11        19.1590   22.7050   18.4860 C.2       1 KJ21214     0.0000 
     12 N12        20.2260   21.4710   19.9450 N.2       1 KJ21214     0.0000 
     13 C13        20.1280   22.7100   19.4420 C.2       1 KJ21214     0.0000 
     14 N14        19.3380   20.6540   19.3360 N.pl3     1 KJ21214     0.0000 
     15 C15        18.6690   23.7430   17.6570 C.ar      1 KJ21214     0.0000 
     16 C16        18.8550   23.8610   16.2810 C.ar      1 KJ21214     0.0000 
     17 C17        18.3340   24.9060   15.5370 C.ar      1 KJ21214     0.0000 
     18 C18        17.3870   25.8230   17.5000 C.ar      1 KJ21214     0.0000 
     19 C19        17.9110   24.7700   18.2440 C.ar      1 KJ21214     0.0000 
     20 C20        17.5910   25.9030   16.1440 C.ar      1 KJ21214     0.0000 
     21 O21        17.0990   26.9040   15.4380 O.3       1 KJ21214     0.0000 
     22 C22        16.0300   26.6730   14.6490 C.3       1 KJ21214     0.0000 
     23 C23        14.9170   27.7320   14.8380 C.3       1 KJ21214     0.0000 
     24 C24        14.9740   28.8640   13.7810 C.3       1 KJ21214     0.0000 
     25 N25        14.4370   30.1000   14.2750 N.4       1 KJ21214     0.0000 
     26 H          17.1942   18.3239   15.3737 H         1 KJ21214     0.0000 
     27 H          16.0828   22.1275   18.1154 H         1 KJ21214     0.0000 
     28 H          20.6475   23.4783   19.7036 H         1 KJ21214     0.0000 
     29 H          19.2062   19.7218   19.5111 H         1 KJ21214     0.0000 
     30 H          19.4161   23.1222   15.7897 H         1 KJ21214     0.0000 
     31 H          18.5023   24.9414   14.5162 H         1 KJ21214     0.0000 
     32 H          16.8341   26.5559   17.9850 H         1 KJ21214     0.0000 
     33 H          17.7386   24.7372   19.2704 H         1 KJ21214     0.0000 
     34 H          15.5420   25.6862   14.8342 H         1 KJ21214     0.0000 
     35 H          16.2692   26.6781   13.5586 H         1 KJ21214     0.0000 
     36 H          15.0130   28.1734   15.8337 H         1 KJ21214     0.0000 
     37 H          13.9435   27.2383   14.7746 H         1 KJ21214     0.0000 
     38 H          14.4231   28.5068   12.8933 H         1 KJ21214     0.0000 
     39 H          16.0302   28.9714   13.4776 H         1 KJ21214     0.0000 
     40 H          14.9392   30.4300   15.0743 H         1 KJ21214     0.0000 
     41 H          14.4752   30.8234   13.5856 H         1 KJ21214     0.0000 
     42 H          13.4797   30.0060   14.5486 H         1 KJ21214     0.0000 
     43 H          19.0550   18.2984   16.2155 H         1 KJ21214     0.0000 
     44 H          15.2979   18.4237   14.5388 H         1 KJ21214     0.0000 
@<TRIPOS>BOND
     1    2    1 ar   
     2    3    1 ar   
     3    8    1 1    
     4    6    2 ar   
     5    9    2 1    
     6    4    3 ar   
     7   26    3 1    
     8    5    4 ar   
     9    7    4 1    
    10    6    5 ar   
    11   10    5 1    
    12   27    6 1    
    13   43    7 1    
    14   44    8 1    
    15   11   10 2    
    16   14   10 1    
    17   13   11 1    
    18   15   11 1    
    19   13   12 2    
    20   14   12 1    
    21   28   13 1    
    22   29   14 1    
    23   16   15 ar   
    24   19   15 ar   
    25   17   16 ar   
    26   30   16 1    
    27   20   17 ar   
    28   31   17 1    
    29   19   18 ar   
    30   20   18 ar   
    31   32   18 1    
    32   33   19 1    
    33   21   20 1    
    34   22   21 1    
    35   23   22 1    
    36   34   22 1    
    37   35   22 1    
    38   24   23 1    
    39   36   23 1    
    40   37   23 1    
    41   25   24 1    
    42   38   24 1    
    43   39   24 1    
    44   40   25 1    
    45   41   25 1    
    46   42   25 1    
@<TRIPOS>SUBSTRUCTURE
     1 KJ21214     1 GROUP   
@<TRIPOS>SET

