#    Name: 3dgr_A12_2_INTS_M
#    Modification time : Mon Mar 24 23:20:36 2014

@<TRIPOS>MOLECULE
3dgr_A12_2_INTS_M
   49     0    12     0     0
SMALL
NO_CHARGES


@<TRIPOS>ATOM
      1 NZ          8.2650   -5.4235   29.4980 N.4       3 LYC4        0.0000 
      2 NZ          7.0090   -5.3760   29.9340 N.4      11 LYL4        0.0000 
      3 NZ          9.6070   -4.1940   28.7070 N.4       7 LYP4        0.0000 
      4 N           8.2650   -5.4235   29.4980 N.am      2 SEC2        0.0000 
      5 N           7.0090   -5.3760   29.9340 N.am     10 SEL2        0.0000 
      6 N           9.5210   -5.4710   29.0620 N.am      6 SEP2        0.0000 
      7 NZ          8.5660   -8.8660   31.0220 N.4       3 LYC4        0.0000 
      8 NZ          7.8900   -7.9300   30.3270 N.4      11 LYL4        0.0000 
      9 NZ          9.2420   -9.8020   31.7170 N.4       7 LYP4        0.0000 
     10 N           8.7055   -6.7005   29.6945 N.am      2 SEC2        0.0000 
     11 N           7.8900   -7.9300   30.3270 N.am     10 SEL2        0.0000 
     12 N           8.0545   -8.9240   29.5480 N.am      2 SEC2        0.0000 
     13 N           8.2190   -9.9180   28.7690 N.am      6 SEP2        0.0000 
     14 NZ          9.7980   -5.2215   30.3410 N.4       3 LYC4        0.0000 
     15 NZ          9.9890   -6.2490   31.9750 N.4      11 LYL4        0.0000 
     16 NZ          9.6155   -8.0255   31.8460 N.4       3 LYC4        0.0000 
     17 NZ         11.1535   -5.9650   32.6745 N.4       3 LYC4        0.0000 
     18 NZ         13.0740   -4.6080   33.6800 N.4       7 LYP4        0.0000 
     19 N          11.1535   -5.9650   32.6745 N.am      2 SEC2        0.0000 
     20 N           9.9890   -6.2490   31.9750 N.am     10 SEL2        0.0000 
     21 N          12.3180   -5.6810   33.3740 N.am      6 SEP2        0.0000 
     22 CA          7.7400   -8.6705   32.4195 C.3       4 GLC5        0.0000 
     23 CA          7.2150   -6.5530   32.5650 C.3      12 GLL5        0.0000 
     24 CA          8.2650  -10.7880   32.2740 C.3       8 GLP5        0.0000 
     25 N           8.7820   -3.7050   31.0420 N.am      2 SEC2        0.0000 
     26 N           8.6210   -4.1620   32.6790 N.am     10 SEL2        0.0000 
     27 N           8.9430   -3.2480   29.4050 N.am      6 SEP2        0.0000 
     28 CA         11.0360   -3.4620   32.3795 C.3       4 GLC5        0.0000 
     29 CA          9.3780   -3.1580   33.3500 C.3      12 GLL5        0.0000 
     30 CA         12.6940   -3.7660   31.4090 C.3       8 GLP5        0.0000 
     31 O           5.6975   -0.0075   35.2910 O.2       1 ALC1        0.0000 
     32 O           6.8440    0.2110   34.9070 O.2       9 ALL1        0.0000 
     33 O           4.5510   -0.2260   35.6750 O.2       5 ALP1        0.0000 
     34 CA          5.7570   -0.9045   36.9915 C.3       4 GLC5        0.0000 
     35 CA          7.4100   -1.8800   35.9850 C.3      12 GLL5        0.0000 
     36 CA          4.1040    0.0710   37.9980 C.3       8 GLP5        0.0000 
     37 CA          6.8850   -2.1935   40.8835 C.3       4 GLC5        0.0000 
     38 CA          7.6230   -0.7600   40.2660 C.3      12 GLL5        0.0000 
     39 CA          6.1470   -3.6270   41.5010 C.3       8 GLP5        0.0000 
     40 CA          6.9970    0.5275   41.6470 C.3       4 GLC5        0.0000 
     41 CA          6.3710    1.8150   43.0280 C.3       8 GLP5        0.0000 
     42 CA          5.8635   -0.3445   39.1320 C.3       4 GLC5        0.0000 
     43 CA          7.0635    1.3070   39.5770 C.3       4 GLC5        0.0000 
     44 CA          6.5040    3.3740   38.8880 C.3       8 GLP5        0.0000 
     45 CA          9.6155    0.3085   35.7267 C.3       4 GLC5        0.0000 
     46 CA          7.9150   -0.5270   35.4830 C.3      12 GLL5        0.0000 
     47 CA         10.8080    1.3490   36.5010 C.3       8 GLP5        0.0000 
     48 CA          7.4852   -2.8896   40.2655 C.3       4 GLC5        0.0000 
     49 CA          9.2950   -2.5420   39.0460 C.3      12 GLL5        0.0000 
@<TRIPOS>BOND
@<TRIPOS>SUBSTRUCTURE
     1 ALC1       31 GROUP        1 X    ALC  0     ROOT ALC X 1
     2 SEC2        4 GROUP        1 X    SEC  0     **** SEC X 2
     3 LYC4        1 GROUP        1 X    LYC  0     **** LYC X 4
     4 GLC5       22 GROUP        1 X    GLC  0     **** GLC X 6
     5 ALP1       33 GROUP        1 Y    ALP  0     ROOT ALP Y 8
     6 SEP2        6 GROUP        1 Y    SEP  0     **** SEP Y 9
     7 LYP4        3 GROUP        1 Y    LYP  0     **** LYP Y 11
     8 GLP5       24 GROUP        1 Y    GLP  0     **** GLP Y 13
     9 ALL1       32 GROUP        1 Z    ALL  0     ROOT ALL Z 15
    10 SEL2        5 GROUP        1 Z    SEL  0     **** SEL Z 16
    11 LYL4        2 GROUP        1 Z    LYL  0     **** LYL Z 18
    12 GLL5       23 GROUP        1 Z    GLL  0     **** GLL Z 20
@<TRIPOS>SET

