#    Name: 3dgr_A12_2_ligand
#    Modification time : Mon Mar 24 23:20:36 2014

@<TRIPOS>MOLECULE
3dgr_A12_2_ligand
   41    43     1     0     0
SMALL
NO_CHARGES


@<TRIPOS>ATOM
      1 PB          6.8750   -6.8950   30.8130 P.3       1 A12501      0.0000 
      2 O1B         5.4380   -7.2990   30.7090 O.co2     1 A12501      0.0000 
      3 O2B         7.0090   -5.3760   29.9340 O.co2     1 A12501      0.0000 
      4 O3B         7.8900   -7.9300   30.3270 O.co2     1 A12501      0.0000 
      5 PA          8.8060   -5.7300   32.9070 P.3       1 A12501      0.0000 
      6 O1A         9.9890   -6.2490   31.9750 O.co2     1 A12501      0.0000 
      7 O2A         9.1030   -6.0000   34.6300 O.co2     1 A12501      0.0000 
      8 C3A         7.2150   -6.5530   32.5650 C.3       1 A12501      0.0000 
      9 O5'         8.6210   -4.1620   32.6790 O.3       1 A12501      0.0000 
     10 C5'         9.3780   -3.1580   33.3500 C.3       1 A12501      0.0000 
     11 C4'         8.3100   -2.1930   33.8330 C.3       1 A12501      0.0000 
     12 O4'         7.4720   -2.7750   34.8670 O.3       1 A12501      0.0000 
     13 C3'         8.9310   -0.9370   34.4220 C.3       1 A12501      0.0000 
     14 O3'         9.1950    0.0350   33.3990 O.3       1 A12501      0.0000 
     15 C2'         7.9150   -0.5270   35.4830 C.3       1 A12501      0.0000 
     16 O2'         6.8440    0.2110   34.9070 O.3       1 A12501      0.0000 
     17 C1'         7.4100   -1.8800   35.9850 C.3       1 A12501      0.0000 
     18 N9          8.3350   -2.3320   37.0710 N.pl3     1 A12501      0.0000 
     19 C8          9.3490   -3.2250   36.9720 C.2       1 A12501      0.0000 
     20 N7          9.9360   -3.3470   38.1820 N.2       1 A12501      0.0000 
     21 C5          9.2950   -2.5420   39.0460 C.ar      1 A12501      0.0000 
     22 C6          9.4450   -2.2710   40.3940 C.ar      1 A12501      0.0000 
     23 N6         10.4110   -2.8570   41.1300 N.pl3     1 A12501      0.0000 
     24 N1          8.6040   -1.3770   40.9710 N.ar      1 A12501      0.0000 
     25 C2          7.6230   -0.7600   40.2660 C.ar      1 A12501      0.0000 
     26 N3          7.4360   -1.0090   38.9620 N.ar      1 A12501      0.0000 
     27 C4          8.2770   -1.8980   38.3400 C.ar      1 A12501      0.0000 
     28 H           7.2481   -7.4811   33.0538 H         1 A12501      0.0000 
     29 H           6.4638   -5.8999   32.8973 H         1 A12501      0.0000 
     30 H          10.0357   -2.6334   32.6878 H         1 A12501      0.0000 
     31 H           9.8991   -3.5427   34.2025 H         1 A12501      0.0000 
     32 H           7.6995   -1.8911   32.9893 H         1 A12501      0.0000 
     33 H           9.8289   -1.2550   34.9396 H         1 A12501      0.0000 
     34 H           8.4152   -0.0453   36.2659 H         1 A12501      0.0000 
     35 H           6.4319   -1.7579   36.3535 H         1 A12501      0.0000 
     36 H           9.6071   -3.6948   36.1686 H         1 A12501      0.0000 
     37 H          11.0266   -3.4726   40.6380 H         1 A12501      0.0000 
     38 H          10.4259   -2.6238   42.1023 H         1 A12501      0.0000 
     39 H           6.9986   -0.0719   40.7598 H         1 A12501      0.0000 
     40 H           8.5021    0.7439   33.5307 H         1 A12501      0.0000 
     41 H           6.0491   -0.3920   34.9737 H         1 A12501      0.0000 
@<TRIPOS>BOND
     1    2    1 ar   
     2    3    1 ar   
     3    4    1 ar   
     4    8    1 1    
     5    6    5 ar   
     6    7    5 ar   
     7    8    5 1    
     8    9    5 1    
     9   28    8 1    
    10   29    8 1    
    11   10    9 1    
    12   11   10 1    
    13   30   10 1    
    14   31   10 1    
    15   12   11 1    
    16   13   11 1    
    17   32   11 1    
    18   17   12 1    
    19   14   13 1    
    20   15   13 1    
    21   33   13 1    
    22   40   14 1    
    23   16   15 1    
    24   17   15 1    
    25   34   15 1    
    26   41   16 1    
    27   18   17 1    
    28   35   17 1    
    29   19   18 1    
    30   27   18 1    
    31   20   19 2    
    32   36   19 1    
    33   21   20 1    
    34   22   21 ar   
    35   27   21 ar   
    36   23   22 1    
    37   24   22 ar   
    38   37   23 1    
    39   38   23 1    
    40   25   24 ar   
    41   26   25 ar   
    42   39   25 1    
    43   27   26 ar   
@<TRIPOS>SUBSTRUCTURE
     1 A12501      1 GROUP   
@<TRIPOS>SET

