#    Name: 2hen_ADP_2_INTS_M
#    Modification time : Tue Mar 25 15:59:26 2014

@<TRIPOS>MOLECULE
2hen_ADP_2_INTS_M
   58     0    15     0     0
SMALL
NO_CHARGES


@<TRIPOS>ATOM
      1 N          23.9275   39.2385   71.0910 N.am      2 SEC2        0.0000 
      2 N          24.0080   37.6880   71.5040 N.am     12 SEL2        0.0000 
      3 N          23.8470   40.7890   70.6780 N.am      7 SEP2        0.0000 
      4 NZ         20.8380   36.5170   69.6540 N.4       3 LYC4        0.0000 
      5 NZ         22.1460   37.4500   69.8570 N.4      13 LYL4        0.0000 
      6 NZ         19.5300   35.5840   69.4510 N.4       8 LYP4        0.0000 
      7 N          20.8380   36.5170   69.6540 N.am      2 SEC2        0.0000 
      8 N          22.1460   37.4500   69.8570 N.am     12 SEL2        0.0000 
      9 N          19.5300   35.5840   69.4510 N.am      7 SEP2        0.0000 
     10 NZ         21.2970   35.4770   70.2510 N.4       3 LYC4        0.0000 
     11 NZ         23.0640   35.3700   71.0510 N.4      13 LYL4        0.0000 
     12 Zn         23.4245   34.7030   72.2120 Zn        4 ZIC7        0.0000 
     13 Zn         23.0640   35.3700   71.0510 Zn       14 ZIL7        0.0000 
     14 Zn         23.7850   34.0360   73.3730 Zn        9 ZIP7        0.0000 
     15 NZ         19.8490   35.4235   70.9910 N.4       3 LYC4        0.0000 
     16 NZ         20.1680   35.2630   72.5310 N.4      13 LYL4        0.0000 
     17 Zn         22.8530   34.8810   73.8620 Zn        4 ZIC7        0.0000 
     18 Zn         21.9210   35.7260   74.3510 Zn       14 ZIL7        0.0000 
     19 CA         20.9865   39.7440   73.3355 C.3       5 GLC5        0.0000 
     20 CA         20.1960   38.3590   74.7610 C.3      15 GLL5        0.0000 
     21 CA         21.7770   41.1290   71.9100 C.3      10 GLP5        0.0000 
     22 O          20.6875   36.1340   78.3460 O.2       1 ALC1        0.0000 
     23 O          20.4370   37.4540   77.8520 O.2      11 ALL1        0.0000 
     24 O          20.9380   34.8140   78.8400 O.2       6 ALP1        0.0000 
     25 CA         17.0425   35.9155   79.0340 C.3       5 GLC5        0.0000 
     26 CA         17.9120   37.3380   77.5460 C.3      15 GLL5        0.0000 
     27 CA         16.1730   34.4930   80.5220 C.3      10 GLP5        0.0000 
     28 CA         16.1075   38.6295   74.8865 C.3       5 GLC5        0.0000 
     29 CA         17.0300   37.8410   76.3930 C.3      15 GLL5        0.0000 
     30 CA         15.1850   39.4180   73.3800 C.3      10 GLP5        0.0000 
     31 CA         13.4520   32.4700   75.9695 C.3       5 GLC5        0.0000 
     32 CA         13.8410   34.2650   75.0940 C.3      15 GLL5        0.0000 
     33 CA         13.0630   30.6750   76.8450 C.3      10 GLP5        0.0000 
     34 O          12.3030   32.7890   73.8720 O.2       1 ALC1        0.0000 
     35 O          13.5240   33.3090   74.2980 O.2      11 ALL1        0.0000 
     36 O          11.0820   32.2690   73.4460 O.2       6 ALP1        0.0000 
     37 N          12.0355   33.6955   76.7155 N.am      2 SEC2        0.0000 
     38 N          12.9990   34.6110   76.1370 N.am     12 SEL2        0.0000 
     39 N          11.0720   32.7800   77.2940 N.am      7 SEP2        0.0000 
     40 CA         12.9665   37.6120   77.0110 C.3       5 GLC5        0.0000 
     41 CA         13.2750   35.6420   77.0400 C.3      15 GLL5        0.0000 
     42 CA         12.6580   39.5820   76.9820 C.3      10 GLP5        0.0000 
     43 CA         12.4660   35.9075   74.9630 C.3       5 GLC5        0.0000 
     44 CA         11.6570   36.1730   72.8860 C.3      10 GLP5        0.0000 
     45 CA         12.4715   33.8710   77.7385 C.3       5 GLC5        0.0000 
     46 CA         11.6680   32.1000   78.4370 C.3      10 GLP5        0.0000 
     47 CA         13.9355   37.8335   76.4715 C.3       5 GLC5        0.0000 
     48 CA         15.2130   36.0850   75.9610 C.3      15 GLL5        0.0000 
     49 CA         15.1990   37.7515   74.6705 C.3       5 GLC5        0.0000 
     50 CA         16.3915   34.3675   76.5270 C.3       5 GLC5        0.0000 
     51 CA         17.5700   32.6500   77.0930 C.3      10 GLP5        0.0000 
     52 CA         18.5868   39.2853   73.9585 C.3       5 GLC5        0.0000 
     53 CA         19.3010   38.4740   75.9830 C.3      15 GLL5        0.0000 
     54 CA         17.4250   40.1540   72.5450 C.3      10 GLP5        0.0000 
     55 CA         13.0462   35.4250   73.9657 C.3       5 GLC5        0.0000 
     56 CA         15.0300   35.0890   74.9970 C.3      15 GLL5        0.0000 
     57 CA         15.4607   33.1500   75.0757 C.3       5 GLC5        0.0000 
     58 CA         16.4860   31.6230   75.1060 C.3      10 GLP5        0.0000 
@<TRIPOS>BOND
@<TRIPOS>SUBSTRUCTURE
     1 ALC1       22 GROUP        1 X    ALC  0     ROOT ALC X 1
     2 SEC2        1 GROUP        1 X    SEC  0     **** SEC X 2
     3 LYC4        4 GROUP        1 X    LYC  0     **** LYC X 4
     4 ZIC7       12 GROUP        1 X    ZIC  0     **** ZIC X 5
     5 GLC5       19 GROUP        1 X    GLC  0     **** GLC X 6
     6 ALP1       24 GROUP        1 Y    ALP  0     ROOT ALP Y 8
     7 SEP2        3 GROUP        1 Y    SEP  0     **** SEP Y 9
     8 LYP4        6 GROUP        1 Y    LYP  0     **** LYP Y 11
     9 ZIP7       14 GROUP        1 Y    ZIP  0     **** ZIP Y 12
    10 GLP5       21 GROUP        1 Y    GLP  0     **** GLP Y 13
    11 ALL1       23 GROUP        1 Z    ALL  0     ROOT ALL Z 15
    12 SEL2        2 GROUP        1 Z    SEL  0     **** SEL Z 16
    13 LYL4        5 GROUP        1 Z    LYL  0     **** LYL Z 18
    14 ZIL7       13 GROUP        1 Z    ZIL  0     **** ZIL Z 19
    15 GLL5       20 GROUP        1 Z    GLL  0     **** GLL Z 20
@<TRIPOS>SET

