#    Name: 2hen_ADP_2_ligand
#    Modification time : Tue Mar 25 15:59:26 2014

@<TRIPOS>MOLECULE
2hen_ADP_2_ligand
   39    41     1     0     0
SMALL
NO_CHARGES


@<TRIPOS>ATOM
      1 PB         22.7800   36.9270   71.1120 P.3       1 ADP401      0.0000 
      2 O1B        24.0080   37.6880   71.5040 O.co2     1 ADP401      0.0000 
      3 O2B        22.1460   37.4500   69.8570 O.co2     1 ADP401      0.0000 
      4 O3B        23.0640   35.3700   71.0510 O.co2     1 ADP401      0.0000 
      5 PA         20.9610   36.2800   73.3180 P.3       1 ADP401      0.0000 
      6 O1A        20.1680   35.2630   72.5310 O.co2     1 ADP401      0.0000 
      7 O2A        21.9210   35.7260   74.3510 O.co2     1 ADP401      0.0000 
      8 O3A        21.7150   37.2180   72.2850 O.3       1 ADP401      0.0000 
      9 O5'        19.8430   37.2210   73.9200 O.3       1 ADP401      0.0000 
     10 C5'        20.1960   38.3590   74.7610 C.3       1 ADP401      0.0000 
     11 C4'        19.3010   38.4740   75.9830 C.3       1 ADP401      0.0000 
     12 O4'        17.9270   38.5120   75.5180 O.3       1 ADP401      0.0000 
     13 C3'        19.3270   37.2870   76.9410 C.3       1 ADP401      0.0000 
     14 O3'        20.4370   37.4540   77.8520 O.3       1 ADP401      0.0000 
     15 C2'        17.9120   37.3380   77.5460 C.3       1 ADP401      0.0000 
     16 O2'        17.7750   38.2190   78.6870 O.3       1 ADP401      0.0000 
     17 C1'        17.0300   37.8410   76.3930 C.3       1 ADP401      0.0000 
     18 N9         16.3860   36.6880   75.6490 N.pl3     1 ADP401      0.0000 
     19 C8         16.8660   36.0350   74.5470 C.2       1 ADP401      0.0000 
     20 N7         16.0720   35.0510   74.1270 N.2       1 ADP401      0.0000 
     21 C5         15.0300   35.0890   74.9970 C.ar      1 ADP401      0.0000 
     22 C6         13.8410   34.2650   75.0940 C.ar      1 ADP401      0.0000 
     23 N6         13.5240   33.3090   74.2980 N.pl3     1 ADP401      0.0000 
     24 N1         12.9990   34.6110   76.1370 N.ar      1 ADP401      0.0000 
     25 C2         13.2750   35.6420   77.0400 C.ar      1 ADP401      0.0000 
     26 N3         14.3710   36.4040   76.9700 N.ar      1 ADP401      0.0000 
     27 C4         15.2130   36.0850   75.9610 C.ar      1 ADP401      0.0000 
     28 H          20.1226   39.3014   74.1903 H         1 ADP401      0.0000 
     29 H          21.2416   38.2774   75.1063 H         1 ADP401      0.0000 
     30 H          19.5168   39.3672   76.5230 H         1 ADP401      0.0000 
     31 H          19.4007   36.4085   76.3354 H         1 ADP401      0.0000 
     32 H          17.6047   36.3323   77.7580 H         1 ADP401      0.0000 
     33 H          16.2967   38.4902   76.7823 H         1 ADP401      0.0000 
     34 H          17.7292   36.2855   74.1134 H         1 ADP401      0.0000 
     35 H          14.2846   32.8382   73.8509 H         1 ADP401      0.0000 
     36 H          12.5461   33.1245   74.1994 H         1 ADP401      0.0000 
     37 H          12.5651   35.8073   77.8082 H         1 ADP401      0.0000 
     38 H          20.6356   36.5338   78.1892 H         1 ADP401      0.0000 
     39 H          18.6972   38.5655   78.8585 H         1 ADP401      0.0000 
@<TRIPOS>BOND
     1    2    1 ar   
     2    3    1 ar   
     3    4    1 ar   
     4    8    1 1    
     5    6    5 ar   
     6    7    5 ar   
     7    8    5 1    
     8    9    5 1    
     9   10    9 1    
    10   11   10 1    
    11   28   10 1    
    12   29   10 1    
    13   12   11 1    
    14   13   11 1    
    15   30   11 1    
    16   17   12 1    
    17   14   13 1    
    18   15   13 1    
    19   31   13 1    
    20   38   14 1    
    21   16   15 1    
    22   17   15 1    
    23   32   15 1    
    24   39   16 1    
    25   18   17 1    
    26   33   17 1    
    27   19   18 1    
    28   27   18 1    
    29   20   19 2    
    30   34   19 1    
    31   21   20 1    
    32   22   21 ar   
    33   27   21 ar   
    34   23   22 1    
    35   24   22 ar   
    36   35   23 1    
    37   36   23 1    
    38   25   24 ar   
    39   26   25 ar   
    40   37   25 1    
    41   27   26 ar   
@<TRIPOS>SUBSTRUCTURE
     1 ADP401      1 GROUP   
@<TRIPOS>SET

