#    Name: 2agv_TG1_3_INTS_M
#    Modification time : Mon Mar 24 19:20:00 2014

@<TRIPOS>MOLECULE
2agv_TG1_3_INTS_M
   97     0     6     0     0
SMALL
NO_CHARGES


@<TRIPOS>ATOM
      1 CA         43.8010  -60.7680  -12.9860 C.3       2 GLC5        0.0000 
      2 CA         42.5470  -58.9290  -12.8950 C.3       6 GLL5        0.0000 
      3 CA         45.0550  -62.6070  -13.0770 C.3       4 GLP5        0.0000 
      4 CA         42.4575  -61.6995  -11.7955 C.3       2 GLC5        0.0000 
      5 CA         40.9620  -60.1740  -11.1140 C.3       6 GLL5        0.0000 
      6 CA         43.9530  -63.2250  -12.4770 C.3       4 GLP5        0.0000 
      7 CA         41.4165  -58.9005   -8.2145 C.3       2 GLC5        0.0000 
      8 CA         40.6690  -60.4380   -9.5910 C.3       6 GLL5        0.0000 
      9 CA         42.1640  -57.3630   -6.8380 C.3       4 GLP5        0.0000 
     10 CA         42.7880  -63.7400   -9.5715 C.3       2 GLC5        0.0000 
     11 CA         41.4860  -63.6350   -7.9010 C.3       6 GLL5        0.0000 
     12 CA         44.0900  -63.8450  -11.2420 C.3       4 GLP5        0.0000 
     13 CA         43.2385  -63.3175   -7.6785 C.3       2 GLC5        0.0000 
     14 CA         44.9910  -63.0000   -7.4560 C.3       4 GLP5        0.0000 
     15 CA         43.1470  -63.5185   -6.3845 C.3       2 GLC5        0.0000 
     16 CA         41.3030  -64.0370   -5.3130 C.3       6 GLL5        0.0000 
     17 CA         38.9995  -60.8720   -1.6560 C.3       2 GLC5        0.0000 
     18 CA         40.2680  -62.3780   -2.0130 C.3       6 GLL5        0.0000 
     19 CA         37.7310  -59.3660   -1.2990 C.3       4 GLP5        0.0000 
     20 CA         40.2905  -63.5955    1.1375 C.3       2 GLC5        0.0000 
     21 CA         40.4100  -63.0510   -0.6420 C.3       6 GLL5        0.0000 
     22 CA         40.1710  -64.1400    2.9170 C.3       4 GLP5        0.0000 
     23 CA         40.3150  -57.8345   -6.5470 C.3       2 GLC5        0.0000 
     24 CA         38.4660  -58.3060   -6.2560 C.3       6 GLL5        0.0000 
     25 CA         40.2185  -57.5970   -4.7035 C.3       2 GLC5        0.0000 
     26 CA         38.8000  -58.7920   -4.8630 C.3       6 GLL5        0.0000 
     27 CA         41.6370  -56.4020   -4.5440 C.3       4 GLP5        0.0000 
     28 CA         38.5280  -58.3735   -3.1905 C.3       2 GLC5        0.0000 
     29 CA         38.2560  -57.9550   -1.5180 C.3       4 GLP5        0.0000 
     30 CA         40.0060  -56.6940   -5.4635 C.3       2 GLC5        0.0000 
     31 CA         38.3750  -56.9860   -6.3830 C.3       6 GLL5        0.0000 
     32 CA         37.7565  -57.0245   -4.2205 C.3       2 GLC5        0.0000 
     33 CA         37.1380  -57.0630   -2.0580 C.3       4 GLP5        0.0000 
     34 CA         37.5150  -55.5205   -9.2635 C.3       2 GLC5        0.0000 
     35 CA         38.1190  -56.1350   -7.6000 C.3       6 GLL5        0.0000 
     36 CA         36.9110  -54.9060  -10.9270 C.3       4 GLP5        0.0000 
     37 CA         36.4370  -56.7340   -7.6265 C.3       2 GLC5        0.0000 
     38 CA         34.7550  -57.3330   -7.6530 C.3       4 GLP5        0.0000 
     39 CA         39.2545  -55.2370   -9.0125 C.3       2 GLC5        0.0000 
     40 CA         40.3900  -54.3390  -10.4250 C.3       4 GLP5        0.0000 
     41 CA         40.1415  -56.7490   -7.2190 C.3       2 GLC5        0.0000 
     42 CA         38.0270  -58.1165  -11.1060 C.3       2 GLC5        0.0000 
     43 CA         38.5680  -60.1550  -10.7920 C.3       6 GLL5        0.0000 
     44 CA         37.4860  -56.0780  -11.4200 C.3       4 GLP5        0.0000 
     45 CA         37.1245  -58.2500  -11.8385 C.3       2 GLC5        0.0000 
     46 CA         37.0570  -59.9920  -10.9590 C.3       6 GLL5        0.0000 
     47 CA         37.1920  -56.5080  -12.7180 C.3       4 GLP5        0.0000 
     48 CA         35.9890  -60.8640  -12.0840 C.3       2 GLC5        0.0000 
     49 CA         34.9210  -61.7360  -13.2090 C.3       4 GLP5        0.0000 
     50 CA         35.3445  -59.6495  -10.3385 C.3       2 GLC5        0.0000 
     51 CA         33.6320  -59.3070   -9.7180 C.3       4 GLP5        0.0000 
     52 CA         36.3895  -61.5835   -9.7220 C.3       2 GLC5        0.0000 
     53 CA         35.7220  -63.1750   -8.4850 C.3       4 GLP5        0.0000 
     54 CA         39.4320  -56.8385  -11.1945 C.3       2 GLC5        0.0000 
     55 CA         41.3780  -57.5990  -10.9690 C.3       6 GLL5        0.0000 
     56 CA         40.8840  -55.9690  -10.6970 C.3       2 GLC5        0.0000 
     57 CA         41.7710  -57.4810   -8.9035 C.3       2 GLC5        0.0000 
     58 CA         42.8690  -56.5235  -12.1480 C.3       2 GLC5        0.0000 
     59 CA         44.3600  -55.4480  -13.3270 C.3       4 GLP5        0.0000 
     60 CA         43.6300  -58.1375   -8.0760 C.3       2 GLC5        0.0000 
     61 CA         45.0960  -58.9120   -9.3140 C.3       6 GLL5        0.0000 
     62 CA         46.3475  -57.8910   -9.1350 C.3       2 GLC5        0.0000 
     63 CA         47.5990  -56.8700   -8.9560 C.3       4 GLP5        0.0000 
     64 CA         46.4700  -59.7840   -7.7730 C.3       2 GLC5        0.0000 
     65 CA         47.8440  -60.6560   -6.2320 C.3       4 GLP5        0.0000 
     66 N          43.3645  -56.9240  -16.7095 N.am      1 SEC2        0.0000 
     67 N          41.9520  -56.9070  -16.0870 N.am      5 SEL2        0.0000 
     68 N          44.7770  -56.9410  -17.3320 N.am      3 SEP2        0.0000 
     69 CA         38.7605  -55.9715  -13.9015 C.3       2 GLC5        0.0000 
     70 CA         40.3290  -55.4350  -15.0850 C.3       6 GLL5        0.0000 
     71 CA         42.3445  -55.4415  -14.2060 C.3       2 GLC5        0.0000 
     72 CA         37.8150  -52.7205  -16.8330 C.3       2 GLC5        0.0000 
     73 CA         39.0520  -53.9070  -16.6090 C.3       6 GLL5        0.0000 
     74 CA         36.5780  -51.5340  -17.0570 C.3       4 GLP5        0.0000 
     75 CA         40.2035  -52.1750  -15.9850 C.3       2 GLC5        0.0000 
     76 CA         41.3550  -50.4430  -15.3610 C.3       4 GLP5        0.0000 
     77 CA         43.5498  -58.0920  -14.2052 C.3       2 GLC5        0.0000 
     78 CA         41.5800  -58.8070  -14.1040 C.3       6 GLL5        0.0000 
     79 CA         45.0360  -57.3160  -14.9110 C.3       4 GLP5        0.0000 
     80 CA         41.8485  -61.2627   -0.9633 C.3       2 GLC5        0.0000 
     81 CA         43.3580  -59.8110   -0.5990 C.3       4 GLP5        0.0000 
     82 CA         38.4416  -62.6685   -1.8162 C.3       2 GLC5        0.0000 
     83 CA         36.5920  -62.3730   -2.0170 C.3       4 GLP5        0.0000 
     84 CA         36.5877  -57.4895   -6.9863 C.3       2 GLC5        0.0000 
     85 CA         36.8165  -55.7477   -5.6702 C.3       2 GLC5        0.0000 
     86 CA         35.3860  -54.9350   -4.3490 C.3       4 GLP5        0.0000 
     87 CA         38.5690  -54.7647   -6.2912 C.3       2 GLC5        0.0000 
     88 CA         38.8910  -52.9690   -5.5910 C.3       4 GLP5        0.0000 
     89 CA         38.3140  -58.2458  -12.6073 C.3       2 GLC5        0.0000 
     90 CA         39.5400  -60.1010  -11.7350 C.3       6 GLL5        0.0000 
     91 CA         37.6088  -55.4417  -15.6867 C.3       2 GLC5        0.0000 
     92 CA         39.3530  -55.3560  -16.2780 C.3       6 GLL5        0.0000 
     93 CA         36.0150  -56.2520  -14.9300 C.3       4 GLP5        0.0000 
     94 CA         40.3248  -54.2782  -18.1798 C.3       2 GLC5        0.0000 
     95 CA         41.4470  -53.9250  -19.9160 C.3       4 GLP5        0.0000 
     96 CA         39.5343  -53.7386  -14.4941 C.3       2 GLC5        0.0000 
     97 CA         39.6220  -52.8260  -12.8430 C.3       4 GLP5        0.0000 
@<TRIPOS>BOND
@<TRIPOS>SUBSTRUCTURE
     1 SEC2       66 GROUP        1 X    SEC  0     ROOT SEC X 2
     2 GLC5        1 GROUP        1 X    GLC  0     **** GLC X 6
     3 SEP2       68 GROUP        1 Y    SEP  0     ROOT SEP Y 9
     4 GLP5        3 GROUP        1 Y    GLP  0     **** GLP Y 13
     5 SEL2       67 GROUP        1 Z    SEL  0     ROOT SEL Z 16
     6 GLL5        2 GROUP        1 Z    GLL  0     **** GLL Z 20
@<TRIPOS>SET

