#    Name: 2agv_TG1_3_ligand
#    Modification time : Mon Mar 24 19:20:00 2014

@<TRIPOS>MOLECULE
2agv_TG1_3_ligand
   96    98     1     0     0
SMALL
NO_CHARGES


@<TRIPOS>ATOM
      1 C34        40.2810  -60.3370  -16.8890 C.3       1 TG11103     0.0000 
      2 C11        39.6220  -59.7760  -15.6140 C.3       1 TG11103     0.0000 
      3 C7         40.4960  -59.9040  -14.2990 C.3       1 TG11103     0.0000 
      4 C8         41.5800  -58.8070  -14.1040 C.3       1 TG11103     0.0000 
      5 C9         42.5470  -58.9290  -12.8950 C.3       1 TG11103     0.0000 
      6 C10        41.9800  -58.9590  -11.4190 C.3       1 TG11103     0.0000 
      7 C1         40.9620  -60.1740  -11.1140 C.3       1 TG11103     0.0000 
      8 C2         40.6690  -60.4380   -9.5910 C.3       1 TG11103     0.0000 
      9 O1         40.9690  -61.8150   -9.2580 O.3       1 TG11103     0.0000 
     10 C13        41.5640  -62.1070   -8.0770 C.2       1 TG11103     0.0000 
     11 O2         42.0600  -61.3010   -7.2980 O.2       1 TG11103     0.0000 
     12 C14        41.4860  -63.6350   -7.9010 C.3       1 TG11103     0.0000 
     13 C15        40.6880  -64.2020   -6.7160 C.3       1 TG11103     0.0000 
     14 C16        41.3030  -64.0370   -5.3130 C.3       1 TG11103     0.0000 
     15 C17        40.6470  -62.8970   -4.5060 C.3       1 TG11103     0.0000 
     16 C18        40.0770  -63.3760   -3.1650 C.3       1 TG11103     0.0000 
     17 C19        40.2680  -62.3780   -2.0130 C.3       1 TG11103     0.0000 
     18 C20        40.4100  -63.0510   -0.6420 C.3       1 TG11103     0.0000 
     19 C3         39.1210  -60.3540   -9.3930 C.3       1 TG11103     0.0000 
     20 O3         38.8040  -59.1870   -8.5130 O.3       1 TG11103     0.0000 
     21 C21        38.3320  -59.4900   -7.3020 C.2       1 TG11103     0.0000 
     22 O4         38.0420  -60.6700   -6.8900 O.2       1 TG11103     0.0000 
     23 C22        38.4660  -58.3060   -6.2560 C.2       1 TG11103     0.0000 
     24 C23        38.8000  -58.7920   -4.8630 C.3       1 TG11103     0.0000 
     25 C24        38.3750  -56.9860   -6.3830 C.2       1 TG11103     0.0000 
     26 C25        38.1190  -56.1350   -7.6000 C.3       1 TG11103     0.0000 
     27 C4         38.5680  -60.1550  -10.7920 C.2       1 TG11103     0.0000 
     28 C26        37.0570  -59.9920  -10.9590 C.3       1 TG11103     0.0000 
     29 C5         39.5400  -60.1010  -11.7350 C.2       1 TG11103     0.0000 
     30 C6         39.3320  -59.8660  -13.2580 C.3       1 TG11103     0.0000 
     31 O5         38.3710  -60.7520  -13.8740 O.3       1 TG11103     0.0000 
     32 C12        38.3740  -60.5570  -15.2110 C.2       1 TG11103     0.0000 
     33 O12        37.5080  -60.9750  -15.9860 O.2       1 TG11103     0.0000 
     34 C31        41.3780  -57.5990  -10.9690 C.3       1 TG11103     0.0000 
     35 O9         43.1700  -58.8120  -10.5340 O.3       1 TG11103     0.0000 
     36 C32        44.2340  -59.5820  -10.2150 C.2       1 TG11103     0.0000 
     37 O10        44.4190  -60.7390  -10.5600 O.2       1 TG11103     0.0000 
     38 C33        45.0960  -58.9120   -9.3140 C.3       1 TG11103     0.0000 
     39 O7         40.9160  -57.5040  -14.1040 O.3       1 TG11103     0.0000 
     40 C27        41.1860  -56.6630  -15.1620 C.2       1 TG11103     0.0000 
     41 O8         41.9520  -56.9070  -16.0870 O.2       1 TG11103     0.0000 
     42 C28        40.3290  -55.4350  -15.0850 C.3       1 TG11103     0.0000 
     43 C29        39.3530  -55.3560  -16.2780 C.3       1 TG11103     0.0000 
     44 C30        39.0520  -53.9070  -16.6090 C.3       1 TG11103     0.0000 
     45 O6         41.1120  -61.2400  -14.2680 O.3       1 TG11103     0.0000 
     46 O11        39.0380  -58.5100  -15.9470 O.3       1 TG11103     0.0000 
     47 H          42.2194  -58.8379  -15.0306 H         1 TG11103     0.0000 
     48 H          43.2903  -58.0880  -12.9499 H         1 TG11103     0.0000 
     49 H          43.1701  -59.8540  -13.0320 H         1 TG11103     0.0000 
     50 H          41.4193  -61.1093  -11.4882 H         1 TG11103     0.0000 
     51 H          41.1293  -59.7476   -8.9991 H         1 TG11103     0.0000 
     52 H          42.5328  -64.0342   -7.8434 H         1 TG11103     0.0000 
     53 H          41.0725  -64.0752   -8.8464 H         1 TG11103     0.0000 
     54 H          40.5100  -65.2870   -6.8960 H         1 TG11103     0.0000 
     55 H          39.6771  -63.7336   -6.7136 H         1 TG11103     0.0000 
     56 H          42.3720  -63.8297   -5.4148 H         1 TG11103     0.0000 
     57 H          41.1876  -64.9741   -4.7610 H         1 TG11103     0.0000 
     58 H          39.8413  -62.4601   -5.1035 H         1 TG11103     0.0000 
     59 H          41.3946  -62.1197   -4.3217 H         1 TG11103     0.0000 
     60 H          40.5573  -64.3286   -2.8930 H         1 TG11103     0.0000 
     61 H          39.0014  -63.5772   -3.2859 H         1 TG11103     0.0000 
     62 H          39.4085  -61.6948   -1.9882 H         1 TG11103     0.0000 
     63 H          41.1648  -61.7753   -2.2096 H         1 TG11103     0.0000 
     64 H          38.7897  -61.2610   -8.9940 H         1 TG11103     0.0000 
     65 H          38.4977  -56.3593   -5.4890 H         1 TG11103     0.0000 
     66 H          38.8855  -58.8209  -13.3848 H         1 TG11103     0.0000 
     67 H          40.9541  -54.5391  -15.0914 H         1 TG11103     0.0000 
     68 H          39.7449  -55.4413  -14.1619 H         1 TG11103     0.0000 
     69 H          38.4357  -55.8719  -16.0137 H         1 TG11103     0.0000 
     70 H          39.8080  -55.8429  -17.1344 H         1 TG11103     0.0000 
     71 H          41.1415  -59.8722  -17.0976 H         1 TG11103     0.0000 
     72 H          40.4878  -61.3115  -16.8022 H         1 TG11103     0.0000 
     73 H          39.6902  -60.2329  -17.6891 H         1 TG11103     0.0000 
     74 H          41.1964  -63.6680   -0.6108 H         1 TG11103     0.0000 
     75 H          40.5341  -62.3807    0.0897 H         1 TG11103     0.0000 
     76 H          39.6027  -63.5932   -0.4090 H         1 TG11103     0.0000 
     77 H          39.6675  -59.2889   -4.8411 H         1 TG11103     0.0000 
     78 H          38.8795  -58.0349   -4.2146 H         1 TG11103     0.0000 
     79 H          38.0990  -59.4102   -4.5073 H         1 TG11103     0.0000 
     80 H          38.1108  -55.1603   -7.3766 H         1 TG11103     0.0000 
     81 H          38.8194  -56.2691   -8.3010 H         1 TG11103     0.0000 
     82 H          37.2375  -56.3464   -8.0222 H         1 TG11103     0.0000 
     83 H          36.7111  -59.1996  -10.4565 H         1 TG11103     0.0000 
     84 H          36.8007  -59.8659  -11.9173 H         1 TG11103     0.0000 
     85 H          36.5580  -60.7916  -10.6249 H         1 TG11103     0.0000 
     86 H          42.0569  -56.8653  -10.9958 H         1 TG11103     0.0000 
     87 H          40.6184  -57.3170  -11.5551 H         1 TG11103     0.0000 
     88 H          41.0270  -57.6396  -10.0335 H         1 TG11103     0.0000 
     89 H          45.8898  -59.4710   -9.0743 H         1 TG11103     0.0000 
     90 H          45.4447  -58.0577   -9.6994 H         1 TG11103     0.0000 
     91 H          44.6320  -58.6800   -8.4591 H         1 TG11103     0.0000 
     92 H          39.8795  -53.4029  -16.8563 H         1 TG11103     0.0000 
     93 H          38.4183  -53.8257  -17.3783 H         1 TG11103     0.0000 
     94 H          38.6370  -53.4278  -15.8356 H         1 TG11103     0.0000 
     95 H          42.0656  -61.0913  -14.5299 H         1 TG11103     0.0000 
     96 H          39.5654  -57.8373  -15.4281 H         1 TG11103     0.0000 
@<TRIPOS>BOND
     1    2    1 1    
     2   71    1 1    
     3   72    1 1    
     4   73    1 1    
     5    3    2 1    
     6   32    2 1    
     7   46    2 1    
     8    4    3 1    
     9   30    3 1    
    10   45    3 1    
    11    5    4 1    
    12   39    4 1    
    13   47    4 1    
    14    6    5 1    
    15   48    5 1    
    16   49    5 1    
    17    7    6 1    
    18   34    6 1    
    19   35    6 1    
    20    8    7 1    
    21   29    7 1    
    22   50    7 1    
    23    9    8 1    
    24   19    8 1    
    25   51    8 1    
    26   10    9 1    
    27   11   10 2    
    28   12   10 1    
    29   13   12 1    
    30   52   12 1    
    31   53   12 1    
    32   14   13 1    
    33   54   13 1    
    34   55   13 1    
    35   15   14 1    
    36   56   14 1    
    37   57   14 1    
    38   16   15 1    
    39   58   15 1    
    40   59   15 1    
    41   17   16 1    
    42   60   16 1    
    43   61   16 1    
    44   18   17 1    
    45   62   17 1    
    46   63   17 1    
    47   74   18 1    
    48   75   18 1    
    49   76   18 1    
    50   20   19 1    
    51   27   19 1    
    52   64   19 1    
    53   21   20 1    
    54   22   21 2    
    55   23   21 1    
    56   24   23 1    
    57   25   23 2    
    58   77   24 1    
    59   78   24 1    
    60   79   24 1    
    61   26   25 1    
    62   65   25 1    
    63   80   26 1    
    64   81   26 1    
    65   82   26 1    
    66   28   27 1    
    67   29   27 2    
    68   83   28 1    
    69   84   28 1    
    70   85   28 1    
    71   30   29 1    
    72   31   30 1    
    73   66   30 1    
    74   32   31 1    
    75   33   32 2    
    76   86   34 1    
    77   87   34 1    
    78   88   34 1    
    79   36   35 1    
    80   37   36 2    
    81   38   36 1    
    82   89   38 1    
    83   90   38 1    
    84   91   38 1    
    85   40   39 1    
    86   41   40 2    
    87   42   40 1    
    88   43   42 1    
    89   67   42 1    
    90   68   42 1    
    91   44   43 1    
    92   69   43 1    
    93   70   43 1    
    94   92   44 1    
    95   93   44 1    
    96   94   44 1    
    97   95   45 1    
    98   96   46 1    
@<TRIPOS>SUBSTRUCTURE
     1 TG11103     1 GROUP   
@<TRIPOS>SET

