#    Name: 1d2n_ANP_1_INTS_M
#    Modification time : Mon Mar 24 21:22:10 2014

@<TRIPOS>MOLECULE
1d2n_ANP_1_INTS_M
   85     0    15     0     0
SMALL
NO_CHARGES


@<TRIPOS>ATOM
      1 NZ        -11.0410   28.5205   15.7655 N.4       3 LYC4        0.0000 
      2 NZ        -12.0950   27.7040   15.1490 N.4      13 LYL4        0.0000 
      3 NZ         -9.9870   29.3370   16.3820 N.4       8 LYP4        0.0000 
      4 N         -12.8100   28.2615   16.1585 N.am      2 SEC2        0.0000 
      5 N         -12.0950   27.7040   15.1490 N.am     12 SEL2        0.0000 
      6 N         -13.5250   28.8190   17.1680 N.am      7 SEP2        0.0000 
      7 N         -11.0410   28.5205   15.7655 N.am      2 SEC2        0.0000 
      8 N          -9.9870   29.3370   16.3820 N.am      7 SEP2        0.0000 
      9 Zn        -10.8615   28.3150   12.0500 Zn        4 ZIC7        0.0000 
     10 Zn        -11.2810   27.6210   12.7330 Zn       14 ZIL7        0.0000 
     11 Zn        -10.4420   29.0090   11.3670 Zn        9 ZIP7        0.0000 
     12 Zn        -10.7285   29.8745   11.9390 Zn        4 ZIC7        0.0000 
     13 Zn        -11.0150   30.7400   12.5110 Zn       14 ZIL7        0.0000 
     14 N         -10.0160   31.6840   12.1335 N.am      2 SEC2        0.0000 
     15 N         -11.0150   30.7400   12.5110 N.am     12 SEL2        0.0000 
     16 N          -9.0170   32.6280   11.7560 N.am      7 SEP2        0.0000 
     17 NZ        -10.8350   30.1290   15.6975 N.4       3 LYC4        0.0000 
     18 NZ        -11.6830   30.9210   15.0130 N.4      13 LYL4        0.0000 
     19 N         -11.8965   32.1790   15.5470 N.am      2 SEC2        0.0000 
     20 N         -11.6830   30.9210   15.0130 N.am     12 SEL2        0.0000 
     21 N         -12.1100   33.4370   16.0810 N.am      7 SEP2        0.0000 
     22 N         -10.7320   32.1095   14.7745 N.am      2 SEC2        0.0000 
     23 N          -9.7810   33.2980   14.5360 N.am      7 SEP2        0.0000 
     24 N         -10.8350   30.1290   15.6975 N.am      2 SEC2        0.0000 
     25 N         -11.3455   34.0985   10.8305 N.am      2 SEC2        0.0000 
     26 N         -12.4330   33.4770   11.4340 N.am     12 SEL2        0.0000 
     27 N         -10.2580   34.7200   10.2270 N.am      7 SEP2        0.0000 
     28 NZ        -15.1095   30.2000   10.7010 N.4       3 LYC4        0.0000 
     29 NZ        -13.6480   31.2810   10.7390 N.4      13 LYL4        0.0000 
     30 NZ        -16.5710   29.1190   10.6630 N.4       8 LYP4        0.0000 
     31 CA        -13.4545   34.3710   13.7880 C.3       5 GLC5        0.0000 
     32 CA        -15.0200   34.3480   12.5740 C.3      15 GLL5        0.0000 
     33 CA        -11.8890   34.3940   15.0020 C.3      10 GLP5        0.0000 
     34 CA        -13.4750   35.4220   11.4790 C.3       5 GLC5        0.0000 
     35 CA        -11.9300   36.4960   10.3840 C.3      10 GLP5        0.0000 
     36 CA        -15.0345   35.1910   14.5465 C.3       5 GLC5        0.0000 
     37 CA        -15.0490   36.0340   16.5190 C.3      10 GLP5        0.0000 
     38 CA        -18.2720   35.4875   12.4620 C.3       5 GLC5        0.0000 
     39 CA        -16.2360   35.0700   12.0340 C.3      15 GLL5        0.0000 
     40 CA        -20.3080   35.9050   12.8900 C.3      10 GLP5        0.0000 
     41 N         -17.7265   36.8880    8.9810 N.am      2 SEC2        0.0000 
     42 N         -17.3490   35.6090    9.9560 N.am     12 SEL2        0.0000 
     43 N         -18.1040   38.1670    8.0060 N.am      7 SEP2        0.0000 
     44 N         -18.9685   35.8635    9.7185 N.am      2 SEC2        0.0000 
     45 N         -20.5880   36.1180    9.4810 N.am      7 SEP2        0.0000 
     46 N         -17.0100   38.0370    8.8955 N.am      2 SEC2        0.0000 
     47 N         -15.9160   37.9070    9.7850 N.am     12 SEL2        0.0000 
     48 O         -15.5035   39.1105   10.2645 O.2       1 ALC1        0.0000 
     49 O         -15.9160   37.9070    9.7850 O.2      11 ALL1        0.0000 
     50 O         -15.0910   40.3140   10.7440 O.2       6 ALP1        0.0000 
     51 CA        -16.6970   37.5325   14.3265 C.3       5 GLC5        0.0000 
     52 CA        -16.4200   37.4050   12.1060 C.3      15 GLL5        0.0000 
     53 CA        -16.9740   37.6600   16.5470 C.3      10 GLP5        0.0000 
     54 CA        -18.3640   36.6550   12.4980 C.3       5 GLC5        0.0000 
     55 N         -15.3390   41.7475   13.9955 N.am      2 SEC2        0.0000 
     56 N         -15.5870   40.3260   14.1350 N.am     12 SEL2        0.0000 
     57 N         -15.0910   43.1690   13.8560 N.am      7 SEP2        0.0000 
     58 CA        -15.7120   41.0810   15.2065 C.3       5 GLC5        0.0000 
     59 CA        -14.4200   39.5780   14.2130 C.3      15 GLL5        0.0000 
     60 CA        -17.0040   42.5840   16.2000 C.3      10 GLP5        0.0000 
     61 CA        -15.6970   38.6190   15.3800 C.3       5 GLC5        0.0000 
     62 O         -13.5310   42.0895   16.0700 O.2       1 ALC1        0.0000 
     63 O         -12.9410   40.8710   15.6270 O.2      11 ALL1        0.0000 
     64 O         -14.1210   43.3080   16.5130 O.2       6 ALP1        0.0000 
     65 CA        -12.1140   39.0245   12.4845 C.3       5 GLC5        0.0000 
     66 CA        -12.4970   37.7720   14.0040 C.3      15 GLL5        0.0000 
     67 CA        -11.7310   40.2770   10.9650 C.3      10 GLP5        0.0000 
     68 CA        -12.1930   36.0830   14.5030 C.3       5 GLC5        0.0000 
     69 CA        -12.2135   37.1340   12.1940 C.3       5 GLC5        0.0000 
     70 CA        -10.5940   38.0950   14.0460 C.3       5 GLC5        0.0000 
     71 CA         -8.6910   38.4180   14.0880 C.3      10 GLP5        0.0000 
     72 CA        -13.7730   36.9030   15.2615 C.3       5 GLC5        0.0000 
     73 CA        -13.1350   39.3435   12.2240 C.3       5 GLC5        0.0000 
     74 CA        -14.5390   38.4100   13.4830 C.3      15 GLL5        0.0000 
     75 CA        -13.2345   37.4530   11.9335 C.3       5 GLC5        0.0000 
     76 CA        -14.7940   37.2220   15.0010 C.3       5 GLC5        0.0000 
     77 CA        -16.3370   33.4000   13.4940 C.3       5 GLC5        0.0000 
     78 CA        -17.0460   32.0910   14.6840 C.3      10 GLP5        0.0000 
     79 CA        -13.8900   36.4102   10.5610 C.3       5 GLC5        0.0000 
     80 CA        -15.6140   37.0380   10.8600 C.3      15 GLL5        0.0000 
     81 CA        -17.8765   37.5829   10.6725 C.3       5 GLC5        0.0000 
     82 CA        -16.0860   35.6110   10.6160 C.3      15 GLL5        0.0000 
     83 CA        -19.6180   38.3010    9.9230 C.3      10 GLP5        0.0000 
     84 CA        -13.7655   41.0600   13.2600 C.3       5 GLC5        0.0000 
     85 CA        -13.7220   42.4330   11.9750 C.3      10 GLP5        0.0000 
@<TRIPOS>BOND
@<TRIPOS>SUBSTRUCTURE
     1 ALC1       48 GROUP        1 X    ALC  0     ROOT ALC X 1
     2 SEC2        4 GROUP        1 X    SEC  0     **** SEC X 2
     3 LYC4        1 GROUP        1 X    LYC  0     **** LYC X 4
     4 ZIC7        9 GROUP        1 X    ZIC  0     **** ZIC X 5
     5 GLC5       31 GROUP        1 X    GLC  0     **** GLC X 6
     6 ALP1       50 GROUP        1 Y    ALP  0     ROOT ALP Y 8
     7 SEP2        6 GROUP        1 Y    SEP  0     **** SEP Y 9
     8 LYP4        3 GROUP        1 Y    LYP  0     **** LYP Y 11
     9 ZIP7       11 GROUP        1 Y    ZIP  0     **** ZIP Y 12
    10 GLP5       33 GROUP        1 Y    GLP  0     **** GLP Y 13
    11 ALL1       49 GROUP        1 Z    ALL  0     ROOT ALL Z 15
    12 SEL2        5 GROUP        1 Z    SEL  0     **** SEL Z 16
    13 LYL4        2 GROUP        1 Z    LYL  0     **** LYL Z 18
    14 ZIL7       10 GROUP        1 Z    ZIL  0     **** ZIL Z 19
    15 GLL5       32 GROUP        1 Z    GLL  0     **** GLL Z 20
@<TRIPOS>SET

