#    Name: 3ZS6_1_CAVITY_N1_6.mol2
#    Modification time : Tue Mar 11 15:25:10 2014

@<TRIPOS>MOLECULE
3ZS6_1_CAVITY_N1_6.mol2
   82     0     6     0     0
SMALL
NO_CHARGES


@<TRIPOS>ATOM
      1 O          13.2234  -12.7045   24.6715 O.2       2 ALA2        0.0000 
      2 OG         15.1347  -10.2940   26.0080 O.2       1 SER1        0.0000 
      3 O          14.4380  -10.9766   24.8684 O.2       2 ALA2        0.0000 
      4 OG         15.6613  -11.8080   24.6184 O.2       1 SER1        0.0000 
      5 CZ         12.5181  -10.8277   23.9787 C.ar      4 PHE5        0.0000 
      6 CZ         13.7413  -11.6591   23.7287 C.ar      4 PHE5        0.0000 
      7 CA         14.9646  -12.4905   23.4788 C.3       5 GLY6        0.0000 
      8 CZ         13.0446  -12.3416   22.5891 C.ar      4 PHE5        0.0000 
      9 CA         14.2678  -13.1730   22.3392 C.3       5 GLY6        0.0000 
     10 O           5.0084   -8.0358   22.9490 O.2       2 ALA2        0.0000 
     11 OG         15.6527   -9.2486   25.0652 O.2       1 SER1        0.0000 
     12 N          12.5094   -8.2684   24.4254 N.2       2 ALA2        0.0000 
     13 OG         13.7327   -9.0997   24.1755 O.2       1 SER1        0.0000 
     14 OG         14.9559   -9.9311   23.9256 O.2       1 SER1        0.0000 
     15 N          11.8127   -8.9509   23.2858 N.2       2 ALA2        0.0000 
     16 CZ         13.0360   -9.7823   23.0359 C.ar      4 PHE5        0.0000 
     17 DU         14.2592  -10.6137   22.7860 H         6 CUB7        0.0000 
     18 NZ          6.2230   -6.3079   23.1459 N.2       3 LYS4        0.0000 
     19 NZ          7.4463   -7.1393   22.8960 N.2       3 LYS4        0.0000 
     20 O           8.6695   -7.9706   22.6460 O.2       2 ALA2        0.0000 
     21 O           9.8928   -8.8020   22.3961 O.2       2 ALA2        0.0000 
     22 CZ         11.1160   -9.6334   22.1462 C.ar      4 PHE5        0.0000 
     23 CZ         12.3393  -10.4648   21.8963 C.ar      4 PHE5        0.0000 
     24 CZ         13.5625  -11.2962   21.6463 C.ar      4 PHE5        0.0000 
     25 CA         14.7858  -12.1276   21.3964 C.3       5 GLY6        0.0000 
     26 N           5.5263   -6.9904   22.0063 N.2       2 ALA2        0.0000 
     27 O           6.7495   -7.8218   21.7563 O.2       2 ALA2        0.0000 
     28 O           7.9728   -8.6532   21.5064 O.2       2 ALA2        0.0000 
     29 O           9.1960   -9.4846   21.2565 O.2       2 ALA2        0.0000 
     30 CZ         10.4193  -10.3159   21.0066 C.ar      4 PHE5        0.0000 
     31 CZ         11.6425  -11.1473   20.7566 C.ar      4 PHE5        0.0000 
     32 CA         12.8658  -11.9787   20.5067 C.3       5 GLY6        0.0000 
     33 OG         14.9473   -7.3718   24.3724 O.2       1 SER1        0.0000 
     34 CZ         14.2506   -8.0543   23.2328 C.ar      4 PHE5        0.0000 
     35 OG         15.4739   -8.8857   22.9828 O.2       1 SER1        0.0000 
     36 N          12.3307   -7.9054   22.3431 N.2       2 ALA2        0.0000 
     37 DU         13.5539   -8.7368   22.0931 H         6 CUB7        0.0000 
     38 CA         14.7772   -9.5682   21.8432 C.3       5 GLY6        0.0000 
     39 CA         16.0004  -10.3996   21.5933 C.3       5 GLY6        0.0000 
     40 CZ          7.9642   -6.0938   21.9532 C.ar      4 PHE5        0.0000 
     41 N           9.1874   -6.9252   21.7033 N.2       2 ALA2        0.0000 
     42 N          10.4107   -7.7566   21.4534 N.2       2 ALA2        0.0000 
     43 N          11.6339   -8.5880   21.2034 N.2       2 ALA2        0.0000 
     44 O          12.8572   -9.4194   20.9535 O.2       2 ALA2        0.0000 
     45 CA         14.0804  -10.2507   20.7036 C.3       5 GLY6        0.0000 
     46 N           7.2675   -6.7763   20.8136 N.2       2 ALA2        0.0000 
     47 N           8.4907   -7.6077   20.5636 N.2       2 ALA2        0.0000 
     48 N           9.7140   -8.4391   20.3137 N.2       2 ALA2        0.0000 
     49 CA         10.9372   -9.2705   20.0638 C.3       5 GLY6        0.0000 
     50 CA         12.1605  -10.1019   19.8139 C.3       5 GLY6        0.0000 
     51 N           7.7940   -8.2903   19.4240 N.2       2 ALA2        0.0000 
     52 N           9.0172   -9.1216   19.1741 N.2       2 ALA2        0.0000 
     53 N          12.8486   -6.8600   21.4003 N.2       2 ALA2        0.0000 
     54 CZ         14.0718   -7.6914   21.1504 C.ar      4 PHE5        0.0000 
     55 N          10.9286   -6.7111   20.5106 N.2       2 ALA2        0.0000 
     56 O          12.1519   -7.5425   20.2607 O.2       2 ALA2        0.0000 
     57 O          13.3751   -8.3739   20.0107 O.2       2 ALA2        0.0000 
     58 CZ          9.0086   -6.5623   19.6209 C.ar      4 PHE5        0.0000 
     59 N          10.2319   -7.3937   19.3710 N.2       2 ALA2        0.0000 
     60 N          11.4551   -8.2251   19.1210 N.2       2 ALA2        0.0000 
     61 N           8.3119   -7.2448   18.4813 N.2       2 ALA2        0.0000 
     62 CZ         14.5897   -6.6459   20.2076 C.ar      4 PHE5        0.0000 
     63 CZ         11.4465   -5.6657   19.5678 C.ar      4 PHE5        0.0000 
     64 O          12.6698   -6.4971   19.3179 O.2       2 ALA2        0.0000 
     65 O          13.8930   -7.3285   19.0680 O.2       2 ALA2        0.0000 
     66 N          10.7498   -6.3482   18.4282 N.2       2 ALA2        0.0000 
     67 N          11.9731   -7.1796   18.1783 N.2       2 ALA2        0.0000 
     68 N          13.1877   -5.4516   18.3751 N.2       2 ALA2        0.0000 
     69 CA         14.4110   -6.2830   18.1252 C.3       5 GLY6        0.0000 
     70 NZ         12.4910   -6.1342   17.2355 N.2       3 LYS4        0.0000 
     71 O          13.7142   -6.9655   16.9856 O.2       2 ALA2        0.0000 
     72 CA         14.9289   -5.2376   17.1825 C.3       5 GLY6        0.0000 
     73 CA         16.1521   -6.0690   16.9325 C.3       5 GLY6        0.0000 
     74 NZ         14.2322   -5.9201   16.0428 N.2       3 LYS4        0.0000 
     75 CA         15.4554   -6.7515   15.7929 C.3       5 GLY6        0.0000 
     76 O          13.5354   -6.6026   14.9032 O.2       2 ALA2        0.0000 
     77 N          15.4468   -4.1921   16.2397 N.2       2 ALA2        0.0000 
     78 CA         16.6701   -5.0235   15.9898 C.3       5 GLY6        0.0000 
     79 NZ         14.7501   -4.8747   15.1001 N.2       3 LYS4        0.0000 
     80 CA         15.9733   -5.7060   14.8502 C.3       5 GLY6        0.0000 
     81 NZ         14.0534   -5.5572   13.9605 N.2       3 LYS4        0.0000 
     82 CA         15.2766   -6.3886   13.7105 C.3       5 GLY6        0.0000 
@<TRIPOS>BOND
@<TRIPOS>SUBSTRUCTURE
     1 SER1        2 GROUP   
     2 ALA2        1 GROUP   
     3 LYS4       18 GROUP   
     4 PHE5        5 GROUP   
     5 GLY6        7 GROUP   
     6 CUB7       17 GROUP   
@<TRIPOS>SET

