#    Name: 3zs6_ASP_VAL_ALA_1_INTS_M
#    Modification time : Tue Mar 25 03:54:04 2014

@<TRIPOS>MOLECULE
3zs6_ASP_VAL_ALA_1_INTS_M
   58     0    12     0     0
SMALL
NO_CHARGES


@<TRIPOS>ATOM
      1 OD1        12.1700   -3.6895   16.2655 O.co2     3 ASC3        0.0000 
      2 OD1        11.6840   -4.0980   17.4870 O.co2    11 ASL3        0.0000 
      3 OD1        12.6560   -3.2810   15.0440 O.co2     7 ASP3        0.0000 
      4 OD1        11.2340   -3.1765   16.0245 O.co2     3 ASC3        0.0000 
      5 OD1        10.7840   -2.2550   14.5620 O.co2     7 ASP3        0.0000 
      6 O          12.7085   -3.2885   18.0145 O.2       1 ALC1        0.0000 
      7 O          11.6840   -4.0980   17.4870 O.2       9 ALL1        0.0000 
      8 O          13.7330   -2.4790   18.5420 O.2       5 ALP1        0.0000 
      9 O          12.1700   -3.6895   16.2655 O.2       1 ALC1        0.0000 
     10 O          12.6560   -3.2810   15.0440 O.2       5 ALP1        0.0000 
     11 CA          9.9000   -4.7280   18.3315 C.3       4 GLC5        0.0000 
     12 CA         11.3660   -5.5190   17.5680 C.3      12 GLL5        0.0000 
     13 CA          8.4340   -3.9370   19.0950 C.3       8 GLP5        0.0000 
     14 N          13.1005   -4.5290   20.4490 N.am      2 SEC2        0.0000 
     15 N          12.3230   -5.4820   19.7770 N.am     10 SEL2        0.0000 
     16 N          13.8780   -3.5760   21.1210 N.am      6 SEP2        0.0000 
     17 CA         11.8795   -8.4700   17.0240 C.3       4 GLC5        0.0000 
     18 CA         12.2470   -6.3340   16.6020 C.3      12 GLL5        0.0000 
     19 CA         11.5120  -10.6060   17.4460 C.3       8 GLP5        0.0000 
     20 O          10.2405   -7.7705   18.0940 O.2       1 ALC1        0.0000 
     21 O          10.6980   -6.9960   19.3860 O.2       9 ALL1        0.0000 
     22 O           9.7830   -8.5450   16.8020 O.2       5 ALP1        0.0000 
     23 CA          9.9445   -5.5675   20.4975 C.3       4 GLC5        0.0000 
     24 CA         10.7300   -7.5060   20.7520 C.3      12 GLL5        0.0000 
     25 CA          9.1590   -3.6290   20.2430 C.3       8 GLP5        0.0000 
     26 N          13.1305   -9.5580   19.0410 N.am      2 SEC2        0.0000 
     27 N          12.4560   -9.0860   20.1630 N.am     10 SEL2        0.0000 
     28 N          13.8050  -10.0300   17.9190 N.am      6 SEP2        0.0000 
     29 CA          8.7060   -5.5135   20.7265 C.3       4 GLC5        0.0000 
     30 CA          8.2530   -7.3980   21.2100 C.3      12 GLL5        0.0000 
     31 CA          8.2590   -9.8080   18.1780 C.3       4 GLC5        0.0000 
     32 CA          9.2140   -9.3760   20.0450 C.3      12 GLL5        0.0000 
     33 CA          7.3040  -10.2400   16.3110 C.3       8 GLP5        0.0000 
     34 CA         10.3630   -9.9910   18.7455 C.3       4 GLC5        0.0000 
     35 CA          8.3450  -10.7930   20.0290 C.3       4 GLC5        0.0000 
     36 CA          7.4760  -12.2100   20.0130 C.3       8 GLP5        0.0000 
     37 O          11.8240   -7.0380   23.0005 O.2       1 ALC1        0.0000 
     38 O          12.5270   -8.2100   22.2310 O.2       9 ALL1        0.0000 
     39 O          11.1210   -5.8660   23.7700 O.2       5 ALP1        0.0000 
     40 N          12.9200  -11.0300   25.4960 N.am      2 SEC2        0.0000 
     41 N          13.9110  -10.9030   24.1260 N.am     10 SEL2        0.0000 
     42 N          11.9290  -11.1570   26.8660 N.am      6 SEP2        0.0000 
     43 CA         15.4260   -7.3225   24.9065 C.3       4 GLC5        0.0000 
     44 CA         14.8650   -8.0790   22.9520 C.3      12 GLL5        0.0000 
     45 CA         15.9870   -6.5660   26.8610 C.3       8 GLP5        0.0000 
     46 N          12.4045   -9.2085   26.0510 N.am      2 SEC2        0.0000 
     47 N          12.4890   -9.4510   24.6690 N.am     10 SEL2        0.0000 
     48 N          12.3200   -8.9660   27.4330 N.am      6 SEP2        0.0000 
     49 N          12.2090  -10.3040   25.7675 N.am      2 SEC2        0.0000 
     50 CA         10.2613   -5.4337   15.8090 C.3       4 GLC5        0.0000 
     51 CA          8.7160   -4.9410   14.5330 C.3       8 GLP5        0.0000 
     52 CA          9.8758  -10.5798   21.6337 C.3       4 GLC5        0.0000 
     53 CA         10.4150  -12.3130   22.6990 C.3       8 GLP5        0.0000 
     54 CA         15.1437   -9.1350   20.8885 C.3       4 GLC5        0.0000 
     55 CA         13.6880   -8.9950   22.6520 C.3      12 GLL5        0.0000 
     56 CA         16.0110   -9.7330   18.9750 C.3       8 GLP5        0.0000 
     57 CA         15.4323   -7.1640   22.2220 C.3       4 GLC5        0.0000 
     58 CA         16.5880   -5.7910   21.6420 C.3       8 GLP5        0.0000 
@<TRIPOS>BOND
@<TRIPOS>SUBSTRUCTURE
     1 ALC1        6 GROUP        1 X    ALC  0     ROOT ALC X 1
     2 SEC2       14 GROUP        1 X    SEC  0     **** SEC X 2
     3 ASC3        1 GROUP        1 X    ASC  0     **** ASC X 3
     4 GLC5       11 GROUP        1 X    GLC  0     **** GLC X 6
     5 ALP1        8 GROUP        1 Y    ALP  0     ROOT ALP Y 8
     6 SEP2       16 GROUP        1 Y    SEP  0     **** SEP Y 9
     7 ASP3        3 GROUP        1 Y    ASP  0     **** ASP Y 10
     8 GLP5       13 GROUP        1 Y    GLP  0     **** GLP Y 13
     9 ALL1        7 GROUP        1 Z    ALL  0     ROOT ALL Z 15
    10 SEL2       15 GROUP        1 Z    SEL  0     **** SEL Z 16
    11 ASL3        2 GROUP        1 Z    ASL  0     **** ASL Z 17
    12 GLL5       12 GROUP        1 Z    GLL  0     **** GLL Z 20
@<TRIPOS>SET

