#    Name: 3zs6_ASP_VAL_ALA_1_ligand
#    Modification time : Tue Mar 25 03:54:04 2014

@<TRIPOS>MOLECULE
3zs6_ASP_VAL_ALA_1_ligand
   41    40     3     0     0
SMALL
NO_CHARGES


@<TRIPOS>ATOM
      1 N          11.6840   -4.0980   17.4870 N.4       1 ASP1        0.0000
      2 CA         11.3660   -5.5190   17.5680 C.3       1 ASP1        0.0000
      3 C          11.5040   -6.0060   19.0110 C.2       1 ASP1        0.0000
      4 O          12.3230   -5.4820   19.7770 O.2       1 ASP1        0.0000
      5 CB         12.2470   -6.3340   16.6020 C.3       1 ASP1        0.0000
      6 CG         13.7500   -6.1840   16.8790 C.2       1 ASP1        0.0000
      7 OD1        14.1420   -6.0840   18.0590 O.co2     1 ASP1        0.0000
      8 OD2        14.5510   -6.1890   15.9070 O.co2     1 ASP1        0.0000
      9 HA         10.3226   -5.6748   17.2674 H         1 ASP1        0.0000
     10 HB2        12.0387   -6.0107   15.5746 H         1 ASP1        0.0000
     11 HB3        11.9728   -7.3933   16.6810 H         1 ASP1        0.0000
     12 HNCA       10.8739   -3.5278   17.6235 H         1 ASP1        0.0000
     13 H          12.3531   -3.8271   18.1790 H         1 ASP1        0.0000
     14 H          12.0678   -3.8535   16.5966 H         1 ASP1        0.0000
     15 N          10.6980   -6.9960   19.3860 N.am      2 VAL2        0.0000
     16 CA         10.7300   -7.5060   20.7520 C.3       2 VAL2        0.0000
     17 C          11.9850   -8.3450   21.0250 C.2       2 VAL2        0.0000
     18 O          12.4560   -9.0860   20.1630 O.2       2 VAL2        0.0000
     19 CB          9.4590   -8.3170   21.0920 C.3       2 VAL2        0.0000
     20 CG1         8.2530   -7.3980   21.2100 C.3       2 VAL2        0.0000
     21 CG2         9.2140   -9.3760   20.0450 C.3       2 VAL2        0.0000
     22 HNCA       10.0229   -7.4454   18.7452 H         2 VAL2        0.0000
     23 HA         10.7551   -6.6568   21.4606 H         2 VAL2        0.0000
     24 HB          9.6201   -8.8006   22.0496 H         2 VAL2        0.0000
     25 H           8.3759   -6.7145   21.9295 H         2 VAL2        0.0000
     26 H           8.0804   -6.9007   20.3597 H         2 VAL2        0.0000
     27 H           7.4192   -7.9055   21.4272 H         2 VAL2        0.0000
     28 HG21        9.9790  -10.0166   19.9786 H         2 VAL2        0.0000
     29 HG22        8.3965   -9.9155   20.2467 H         2 VAL2        0.0000
     30 HG23        9.0856   -8.9777   19.1368 H         2 VAL2        0.0000
     31 N          12.5270   -8.2100   22.2310 N.am      3 ALA3        0.0000
     32 CA         13.6880   -8.9950   22.6520 C.3       3 ALA3        0.0000
     33 C          13.3470   -9.8350   23.8810 C.2       3 ALA3        0.0000
     34 O          13.9110  -10.9030   24.1260 O.2       3 ALA3        0.0000
     35 CB         14.8650   -8.0790   22.9520 C.3       3 ALA3        0.0000
     36 OXT        12.4890   -9.4510   24.6690 O.2       3 ALA3        0.0000
     37 H          12.1562   -7.5408   22.9389 H         3 ALA3        0.0000
     38 HA         13.9843   -9.6734   21.8562 H         3 ALA3        0.0000
     39 HB1        15.6712   -8.5937   23.2439 H         3 ALA3        0.0000
     40 HB2        15.1330   -7.5442   22.1507 H         3 ALA3        0.0000
     41 HB3        14.6528   -7.4283   23.6811 H         3 ALA3        0.0000
@<TRIPOS>BOND
     1    2    1 1
     2   12    1 1
     3   13    1 1
     4   14    1 1
     5    3    2 1
     6    5    2 1
     7    9    2 1
     8    4    3 2
     9    6    5 1
    10   10    5 1
    11   11    5 1
    12    7    6 ar
    13    8    6 ar
    14   16   15 1
    15   22   15 1
    16   17   16 1
    17   19   16 1
    18   23   16 1
    19   18   17 2
    20   20   19 1
    21   21   19 1
    22   24   19 1
    23   25   20 1
    24   26   20 1
    25   27   20 1
    26   28   21 1
    27   29   21 1
    28   30   21 1
    29   32   31 1
    30   37   31 1
    31   33   32 1
    32   35   32 1
    33   38   32 1
    34   34   33 2
    35   36   33 2
    36   39   35 1
    37   40   35 1
    38   41   35 1
    39   15    3 am
    40   31   17 am
@<TRIPOS>SUBSTRUCTURE
     1 ASP1        1 RESIDUE
     2 VAL2       15 RESIDUE
     3 ALA3       31 RESIDUE
@<TRIPOS>SET

