#    Name: 4iao_APR_2_INTS_M
#    Modification time : Tue Mar 25 03:32:32 2014

@<TRIPOS>MOLECULE
4iao_APR_2_INTS_M
   83     0     9     0     0
SMALL
NO_CHARGES


@<TRIPOS>ATOM
      1 N          68.9440  129.4095   65.6535 N.am      2 SEC2        0.0000 
      2 N          69.0180  127.9770   65.7550 N.am      8 SEL2        0.0000 
      3 N          68.8700  130.8420   65.5520 N.am      5 SEP2        0.0000 
      4 CA         66.4595  127.1675   67.1870 C.3       3 GLC5        0.0000 
      5 CA         67.9770  127.3800   66.3780 C.3       9 GLL5        0.0000 
      6 CA         64.9420  126.9550   67.9960 C.3       6 GLP5        0.0000 
      7 CA         67.3965  126.8755   64.7510 C.3       3 GLC5        0.0000 
      8 CA         66.8160  126.3710   63.1240 C.3       6 GLP5        0.0000 
      9 CA         67.9865  128.9225   64.8535 C.3       3 GLC5        0.0000 
     10 CA         67.9960  130.4650   63.3290 C.3       6 GLP5        0.0000 
     11 CA         68.6945  128.9790   67.1560 C.3       3 GLC5        0.0000 
     12 CA         69.4120  130.5780   67.9340 C.3       6 GLP5        0.0000 
     13 N          66.4930  126.0250   66.1190 N.am      2 SEC2        0.0000 
     14 N          67.9200  126.0480   66.4750 N.am      8 SEL2        0.0000 
     15 N          65.0660  126.0020   65.7630 N.am      5 SEP2        0.0000 
     16 CA         68.8760  125.2840   68.1550 C.3       3 GLC5        0.0000 
     17 CA         68.8890  125.2620   65.9580 C.3       9 GLL5        0.0000 
     18 CA         68.8630  125.3060   70.3520 C.3       6 GLP5        0.0000 
     19 CA         69.0045  128.8590   64.2730 C.3       3 GLC5        0.0000 
     20 CA         70.0130  127.2530   65.2170 C.3       9 GLL5        0.0000 
     21 CA         70.5210  128.5415   66.4715 C.3       3 GLC5        0.0000 
     22 CA         71.0290  129.8300   67.7260 C.3       6 GLP5        0.0000 
     23 O          72.3925  126.8235   64.1880 O.2       1 ALC1        0.0000 
     24 O          71.0950  127.9100   64.5700 O.2       7 ALL1        0.0000 
     25 O          73.6900  125.7370   63.8060 O.2       4 ALP1        0.0000 
     26 N          72.2330  125.2880   64.3555 N.am      2 SEC2        0.0000 
     27 N          70.7760  124.8390   64.9050 N.am      8 SEL2        0.0000 
     28 N          73.6900  125.7370   63.8060 N.am      5 SEP2        0.0000 
     29 CA         70.0695  123.7110   67.3115 C.3       3 GLC5        0.0000 
     30 CA         68.1270  122.9920   66.5500 C.3       9 GLL5        0.0000 
     31 CA         72.0120  124.4300   68.0730 C.3       6 GLP5        0.0000 
     32 CA         66.9565  124.1535   65.0300 C.3       3 GLC5        0.0000 
     33 CA         65.7860  125.3150   63.5100 C.3       6 GLP5        0.0000 
     34 N          65.2375  122.3075   67.6125 N.am      2 SEC2        0.0000 
     35 N          66.0590  121.0560   67.3240 N.am      8 SEL2        0.0000 
     36 N          64.4160  123.5590   67.9010 N.am      5 SEP2        0.0000 
     37 CA         71.1110  120.2225   67.2990 C.3       3 GLC5        0.0000 
     38 CA         69.3680  120.3820   68.2530 C.3       9 GLL5        0.0000 
     39 CA         72.8540  120.0630   66.3450 C.3       6 GLP5        0.0000 
     40 N          70.9785  116.9525   67.4885 N.am      2 SEC2        0.0000 
     41 N          70.8320  118.0600   68.2740 N.am      8 SEL2        0.0000 
     42 N          71.1250  115.8450   66.7030 N.am      5 SEP2        0.0000 
     43 N          67.7720  117.3590   70.3715 N.am      2 SEC2        0.0000 
     44 N          68.9280  117.4470   69.6070 N.am      8 SEL2        0.0000 
     45 N          66.6160  117.2710   71.1360 N.am      5 SEP2        0.0000 
     46 N          68.4260  119.9695   73.2670 N.am      2 SEC2        0.0000 
     47 N          69.2580  119.1000   72.4220 N.am      8 SEL2        0.0000 
     48 N          67.5940  120.8390   74.1120 N.am      5 SEP2        0.0000 
     49 N          67.9280  119.6110   71.9365 N.am      2 SEC2        0.0000 
     50 N          66.5980  120.1220   71.4510 N.am      5 SEP2        0.0000 
     51 N          72.1410  121.0975   71.8735 N.am      2 SEC2        0.0000 
     52 N          71.5360  120.0780   72.2420 N.am      8 SEL2        0.0000 
     53 N          72.7460  122.1170   71.5050 N.am      5 SEP2        0.0000 
     54 N          73.8120  112.1775   72.1445 N.am      2 SEC2        0.0000 
     55 N          73.6060  112.9410   72.9490 N.am      8 SEL2        0.0000 
     56 N          74.0180  111.4140   71.3400 N.am      5 SEP2        0.0000 
     57 CA         72.7820  112.2155   74.5285 C.3       3 GLC5        0.0000 
     58 CA         73.3360  113.9280   73.8610 C.3       9 GLL5        0.0000 
     59 CA         72.2280  110.5030   75.1960 C.3       6 GLP5        0.0000 
     60 CA         71.2940  113.9460   74.7000 C.3       3 GLC5        0.0000 
     61 CA         69.2520  113.9640   75.5390 C.3       6 GLP5        0.0000 
     62 CA         73.7110  113.7540   75.8820 C.3       3 GLC5        0.0000 
     63 CA         74.0860  113.5800   77.9030 C.3       6 GLP5        0.0000 
     64 N          74.0270  116.9945   76.5090 N.am      2 SEC2        0.0000 
     65 N          73.8890  116.9230   75.0400 N.am      8 SEL2        0.0000 
     66 N          74.1650  117.0660   77.9780 N.am      5 SEP2        0.0000 
     67 O          74.9080  118.2085   75.6200 O.2       1 ALC1        0.0000 
     68 O          73.8890  116.9230   75.0400 O.2       7 ALL1        0.0000 
     69 O          75.9270  119.4940   76.2000 O.2       4 ALP1        0.0000 
     70 CA         73.3045  116.2640   72.3535 C.3       3 GLC5        0.0000 
     71 CA         72.0730  115.7100   74.1440 C.3       9 GLL5        0.0000 
     72 CA         74.5360  116.8180   70.5630 C.3       6 GLP5        0.0000 
     73 CA         70.8674  125.4179   66.7490 C.3       3 GLC5        0.0000 
     74 CA         68.2694  126.3884   64.2745 C.3       3 GLC5        0.0000 
     75 CA         69.9760  125.8550   65.3080 C.3       9 GLL5        0.0000 
     76 CA         68.3490  121.4612   70.1058 C.3       3 GLC5        0.0000 
     77 CA         68.2360  121.3270   68.0740 C.3       9 GLL5        0.0000 
     78 CA         67.8960  122.0680   72.0480 C.3       6 GLP5        0.0000 
     79 CA         70.4038  115.0420   74.6605 C.3       3 GLC5        0.0000 
     80 CA         71.0380  116.5300   73.4200 C.3       9 GLL5        0.0000 
     81 CA         74.7387  116.3377   72.5403 C.3       3 GLC5        0.0000 
     82 CA         73.4130  116.2140   73.8910 C.3       9 GLL5        0.0000 
     83 CA         75.6660  117.0410   71.3180 C.3       6 GLP5        0.0000 
@<TRIPOS>BOND
@<TRIPOS>SUBSTRUCTURE
     1 ALC1       23 GROUP        1 X    ALC  0     ROOT ALC X 1
     2 SEC2        1 GROUP        1 X    SEC  0     **** SEC X 2
     3 GLC5        4 GROUP        1 X    GLC  0     **** GLC X 6
     4 ALP1       25 GROUP        1 Y    ALP  0     ROOT ALP Y 8
     5 SEP2        3 GROUP        1 Y    SEP  0     **** SEP Y 9
     6 GLP5        6 GROUP        1 Y    GLP  0     **** GLP Y 13
     7 ALL1       24 GROUP        1 Z    ALL  0     ROOT ALL Z 15
     8 SEL2        2 GROUP        1 Z    SEL  0     **** SEL Z 16
     9 GLL5        5 GROUP        1 Z    GLL  0     **** GLL Z 20
@<TRIPOS>SET

