#    Name: 4iao_APR_2_ligand
#    Modification time : Tue Mar 25 03:32:33 2014

@<TRIPOS>MOLECULE
4iao_APR_2_ligand
   57    60     1     0     0
SMALL
NO_CHARGES


@<TRIPOS>ATOM
      1 N1         69.0180  127.9770   65.7550 N.ar      1 APR602      0.0000 
      2 C2         67.9770  127.3800   66.3780 C.ar      1 APR602      0.0000 
      3 N3         67.9200  126.0480   66.4750 N.ar      1 APR602      0.0000 
      4 C4         68.8890  125.2620   65.9580 C.ar      1 APR602      0.0000 
      5 C5         69.9760  125.8550   65.3080 C.ar      1 APR602      0.0000 
      6 C6         70.0130  127.2530   65.2170 C.ar      1 APR602      0.0000 
      7 N6         71.0950  127.9100   64.5700 N.pl3     1 APR602      0.0000 
      8 N7         70.7760  124.8390   64.9050 N.2       1 APR602      0.0000 
      9 C8         70.2220  123.6750   65.2790 C.2       1 APR602      0.0000 
     10 N9         69.0680  123.9300   65.9030 N.pl3     1 APR602      0.0000 
     11 C1'        68.1270  122.9920   66.5500 C.3       1 APR602      0.0000 
     12 C2'        67.7400  121.7600   65.8710 C.3       1 APR602      0.0000 
     13 O2'        66.5870  121.9970   65.1090 O.3       1 APR602      0.0000 
     14 C3'        67.4100  120.9070   66.9490 C.3       1 APR602      0.0000 
     15 O3'        66.0590  121.0560   67.3240 O.3       1 APR602      0.0000 
     16 O4'        68.7630  122.5470   67.7200 O.3       1 APR602      0.0000 
     17 C4'        68.2360  121.3270   68.0740 C.3       1 APR602      0.0000 
     18 C5'        69.3680  120.3820   68.2530 C.3       1 APR602      0.0000 
     19 O5'        69.6000  119.8240   69.5110 O.3       1 APR602      0.0000 
     20 PA         70.0910  118.3240   69.5610 P.3       1 APR602      0.0000 
     21 O1A        70.8320  118.0600   68.2740 O.co2     1 APR602      0.0000 
     22 O2A        68.9280  117.4470   69.6070 O.co2     1 APR602      0.0000 
     23 O3A        70.9540  118.0780   70.8150 O.3       1 APR602      0.0000 
     24 PB         70.7170  118.8130   72.2080 P.3       1 APR602      0.0000 
     25 O1B        69.2580  119.1000   72.4220 O.co2     1 APR602      0.0000 
     26 O2B        71.5360  120.0780   72.2420 O.co2     1 APR602      0.0000 
     27 O5D        71.2020  117.9210   73.4180 O.3       1 APR602      0.0000 
     28 C5D        71.0380  116.5300   73.4200 C.3       1 APR602      0.0000 
     29 O4D        72.0570  114.4170   73.6410 O.3       1 APR602      0.0000 
     30 O1D        73.6060  112.9410   72.9490 O.3       1 APR602      0.0000 
     31 C1D        73.3360  113.9280   73.8610 C.3       1 APR602      0.0000 
     32 O2D        75.2950  114.9910   74.5590 O.3       1 APR602      0.0000 
     33 C2D        74.2100  115.0550   73.6340 C.3       1 APR602      0.0000 
     34 O3D        73.8890  116.9230   75.0400 O.3       1 APR602      0.0000 
     35 C3D        73.4130  116.2140   73.8910 C.3       1 APR602      0.0000 
     36 C4D        72.0730  115.7100   74.1440 C.3       1 APR602      0.0000 
     37 H          67.2146  127.9704   66.7845 H         1 APR602      0.0000 
     38 H          71.7785  127.3171   64.1442 H         1 APR602      0.0000 
     39 H          71.0813  128.9096   64.5953 H         1 APR602      0.0000 
     40 H          70.6002  122.7942   65.1206 H         1 APR602      0.0000 
     41 H          67.2239  123.5375   66.8536 H         1 APR602      0.0000 
     42 H          68.5466  121.3860   65.3162 H         1 APR602      0.0000 
     43 H          67.6428  119.8850   66.7150 H         1 APR602      0.0000 
     44 H          67.6589  121.3728   68.9608 H         1 APR602      0.0000 
     45 H          70.3093  120.9127   67.8717 H         1 APR602      0.0000 
     46 H          69.2418  119.5573   67.4674 H         1 APR602      0.0000 
     47 H          70.9805  116.1265   72.3608 H         1 APR602      0.0000 
     48 H          70.0287  116.2409   73.8510 H         1 APR602      0.0000 
     49 H          73.4484  113.5968   74.8748 H         1 APR602      0.0000 
     50 H          74.5522  115.0502   72.6249 H         1 APR602      0.0000 
     51 H          73.3907  116.8474   73.0232 H         1 APR602      0.0000 
     52 H          71.8657  115.7289   75.1931 H         1 APR602      0.0000 
     53 H          65.8276  121.9034   65.7529 H         1 APR602      0.0000 
     54 H          65.6050  120.2304   66.9890 H         1 APR602      0.0000 
     55 H          73.4201  112.0850   73.4315 H         1 APR602      0.0000 
     56 H          75.0519  115.6314   75.2875 H         1 APR602      0.0000 
     57 H          74.6249  117.5068   74.6971 H         1 APR602      0.0000 
@<TRIPOS>BOND
     1    2    1 ar   
     2    6    1 ar   
     3    3    2 ar   
     4   37    2 1    
     5    4    3 ar   
     6    5    4 ar   
     7   10    4 1    
     8    6    5 ar   
     9    8    5 1    
    10    7    6 1    
    11   38    7 1    
    12   39    7 1    
    13    9    8 2    
    14   10    9 1    
    15   40    9 1    
    16   11   10 1    
    17   12   11 1    
    18   16   11 1    
    19   41   11 1    
    20   13   12 1    
    21   14   12 1    
    22   42   12 1    
    23   53   13 1    
    24   15   14 1    
    25   17   14 1    
    26   43   14 1    
    27   54   15 1    
    28   17   16 1    
    29   18   17 1    
    30   44   17 1    
    31   19   18 1    
    32   45   18 1    
    33   46   18 1    
    34   20   19 1    
    35   21   20 ar   
    36   22   20 ar   
    37   23   20 1    
    38   24   23 1    
    39   25   24 ar   
    40   26   24 ar   
    41   27   24 1    
    42   28   27 1    
    43   36   28 1    
    44   47   28 1    
    45   48   28 1    
    46   31   29 1    
    47   36   29 1    
    48   31   30 1    
    49   55   30 1    
    50   33   31 1    
    51   49   31 1    
    52   33   32 1    
    53   56   32 1    
    54   35   33 1    
    55   50   33 1    
    56   35   34 1    
    57   57   34 1    
    58   36   35 1    
    59   51   35 1    
    60   52   36 1    
@<TRIPOS>SUBSTRUCTURE
     1 APR602      1 GROUP   
@<TRIPOS>SET

