#    Name: 1k90_3AT_2_INTS_M
#    Modification time : Tue Mar 25 09:43:51 2014

@<TRIPOS>MOLECULE
1k90_3AT_2_INTS_M
   63     0    12     0     0
SMALL
NO_CHARGES


@<TRIPOS>ATOM
      1 NZ          3.1540   57.7940   25.2885 N.4       3 LYC4        0.0000 
      2 NZ          3.6910   57.0960   23.6340 N.4      11 LYL4        0.0000 
      3 NZ          2.6170   58.4920   26.9430 N.4       7 LYP4        0.0000 
      4 N           4.1490   58.5280   23.6180 N.am      2 SEC2        0.0000 
      5 N           3.6910   57.0960   23.6340 N.am     10 SEL2        0.0000 
      6 N           4.6070   59.9600   23.6020 N.am      6 SEP2        0.0000 
      7 NZ          5.4595   56.6295   27.3475 N.4       3 LYC4        0.0000 
      8 NZ          4.6690   57.1890   25.8960 N.4      11 LYL4        0.0000 
      9 NZ          6.2500   56.0700   28.7990 N.4       7 LYP4        0.0000 
     10 NZ          3.6430   57.8405   26.4195 N.4       3 LYC4        0.0000 
     11 N           5.4595   56.6295   27.3475 N.am      2 SEC2        0.0000 
     12 N           4.6690   57.1890   25.8960 N.am     10 SEL2        0.0000 
     13 N           6.2500   56.0700   28.7990 N.am      6 SEP2        0.0000 
     14 N           3.6430   57.8405   26.4195 N.am      2 SEC2        0.0000 
     15 N           2.6170   58.4920   26.9430 N.am      6 SEP2        0.0000 
     16 NZ          7.3210   55.7745   23.5730 N.4       3 LYC4        0.0000 
     17 NZ          6.1160   56.6280   23.9320 N.4      11 LYL4        0.0000 
     18 NZ          8.5260   54.9210   23.2140 N.4       7 LYP4        0.0000 
     19 N           6.7160   58.2215   24.2975 N.am      2 SEC2        0.0000 
     20 N           6.1160   56.6280   23.9320 N.am     10 SEL2        0.0000 
     21 N           7.3160   59.8150   24.6630 N.am      6 SEP2        0.0000 
     22 NZ          2.1825   52.1285   25.1905 N.4       3 LYC4        0.0000 
     23 NZ          3.3460   52.9880   24.0130 N.4      11 LYL4        0.0000 
     24 NZ          1.0190   51.2690   26.3680 N.4       7 LYP4        0.0000 
     25 N           3.4050   51.6750   23.6220 N.am      2 SEC2        0.0000 
     26 N           3.3460   52.9880   24.0130 N.am     10 SEL2        0.0000 
     27 N           3.4640   50.3620   23.2310 N.am      6 SEP2        0.0000 
     28 NZ          6.8270   54.5075   22.9220 N.4       3 LYC4        0.0000 
     29 NZ          5.1280   54.0940   22.6300 N.4      11 LYL4        0.0000 
     30 NZ          7.7155   53.3565   23.1905 N.4       3 LYC4        0.0000 
     31 NZ          6.9050   51.7920   23.1670 N.4      11 LYL4        0.0000 
     32 NZ          8.2745   53.7360   24.2685 N.4       3 LYC4        0.0000 
     33 NZ          8.0230   52.5510   25.3230 N.4      11 LYL4        0.0000 
     34 N           8.2745   53.7360   24.2685 N.am      2 SEC2        0.0000 
     35 N           8.0230   52.5510   25.3230 N.am     10 SEL2        0.0000 
     36 N           8.5260   54.9210   23.2140 N.am      6 SEP2        0.0000 
     37 CA          5.8080   45.8400   27.9610 C.3       4 GLC5        0.0000 
     38 CA          7.3000   47.3020   27.3490 C.3      12 GLL5        0.0000 
     39 CA          4.3160   44.3780   28.5730 C.3       8 GLP5        0.0000 
     40 CA          5.4760   45.7205   23.6170 C.3       4 GLC5        0.0000 
     41 CA          6.0190   44.5970   25.3260 C.3      12 GLL5        0.0000 
     42 CA          4.9330   46.8440   21.9080 C.3       8 GLP5        0.0000 
     43 CA          7.6990   42.5245   23.8550 C.3       4 GLC5        0.0000 
     44 CA          6.2070   43.2440   24.9010 C.3      12 GLL5        0.0000 
     45 CA          9.1910   41.8050   22.8090 C.3       8 GLP5        0.0000 
     46 CA          5.1590   42.7300   23.0715 C.3       4 GLC5        0.0000 
     47 CA          4.1110   42.2160   21.2420 C.3       8 GLP5        0.0000 
     48 CA          5.4935   43.1040   26.9065 C.3       4 GLC5        0.0000 
     49 CA          4.7800   42.9640   28.9120 C.3       8 GLP5        0.0000 
     50 O           4.1995   43.4265   23.0825 O.2       1 ALC1        0.0000 
     51 O           5.3490   42.6610   24.0670 O.2       9 ALL1        0.0000 
     52 O           3.0500   44.1920   22.0980 O.2       5 ALP1        0.0000 
     53 N           7.6630   41.2195   24.5355 N.am      2 SEC2        0.0000 
     54 N           7.2860   42.5530   25.3660 N.am     10 SEL2        0.0000 
     55 N           8.0400   39.8860   23.7050 N.am      6 SEP2        0.0000 
     56 CA          8.6640   42.4800   24.5070 C.3       4 GLC5        0.0000 
     57 CA          8.1370   43.1550   26.2050 C.3      12 GLL5        0.0000 
     58 CA          6.4585   43.0595   27.5585 C.3       4 GLC5        0.0000 
     59 CA          8.7538   47.9498   24.6045 C.3       4 GLC5        0.0000 
     60 CA          8.5790   47.8490   26.7070 C.3      12 GLL5        0.0000 
     61 CA          9.1220   47.3780   22.7740 C.3       8 GLP5        0.0000 
     62 CA          5.4038   44.6110   27.1648 C.3       4 GLC5        0.0000 
     63 CA          6.9640   45.0910   26.1870 C.3      12 GLL5        0.0000 
@<TRIPOS>BOND
@<TRIPOS>SUBSTRUCTURE
     1 ALC1       50 GROUP        1 X    ALC  0     ROOT ALC X 1
     2 SEC2        4 GROUP        1 X    SEC  0     **** SEC X 2
     3 LYC4        1 GROUP        1 X    LYC  0     **** LYC X 4
     4 GLC5       37 GROUP        1 X    GLC  0     **** GLC X 6
     5 ALP1       52 GROUP        1 Y    ALP  0     ROOT ALP Y 8
     6 SEP2        6 GROUP        1 Y    SEP  0     **** SEP Y 9
     7 LYP4        3 GROUP        1 Y    LYP  0     **** LYP Y 11
     8 GLP5       39 GROUP        1 Y    GLP  0     **** GLP Y 13
     9 ALL1       51 GROUP        1 Z    ALL  0     ROOT ALL Z 15
    10 SEL2        5 GROUP        1 Z    SEL  0     **** SEL Z 16
    11 LYL4        2 GROUP        1 Z    LYL  0     **** LYL Z 18
    12 GLL5       38 GROUP        1 Z    GLL  0     **** GLL Z 20
@<TRIPOS>SET

