#    Name: 1k90_3AT_2_ligand
#    Modification time : Tue Mar 25 09:43:51 2014

@<TRIPOS>MOLECULE
1k90_3AT_2_ligand
   42    44     1     0     0
SMALL
NO_CHARGES


@<TRIPOS>ATOM
      1 PG          4.7710   56.6770   24.5440 P.3       1 3AT903      0.0000 
      2 O1G         3.6910   57.0960   23.6340 O.co2     1 3AT903      0.0000 
      3 O2G         4.6690   57.1890   25.8960 O.co2     1 3AT903      0.0000 
      4 O3G         6.1160   56.6280   23.9320 O.co2     1 3AT903      0.0000 
      5 PB          4.6050   53.7700   23.9360 P.3       1 3AT903      0.0000 
      6 O1B         3.3460   52.9880   24.0130 O.co2     1 3AT903      0.0000 
      7 O2B         5.1280   54.0940   22.6300 O.co2     1 3AT903      0.0000 
      8 O3B         4.4100   55.1370   24.8460 O.3       1 3AT903      0.0000 
      9 PA          6.8130   52.0760   24.6060 P.3       1 3AT903      0.0000 
     10 O1A         6.9050   51.7920   23.1670 O.co2     1 3AT903      0.0000 
     11 O2A         8.0230   52.5510   25.3230 O.co2     1 3AT903      0.0000 
     12 O3A         5.6100   53.0260   24.8150 O.3       1 3AT903      0.0000 
     13 O5'         6.2650   50.8010   25.3070 O.3       1 3AT903      0.0000 
     14 C5'         6.1700   50.6750   26.7300 C.3       1 3AT903      0.0000 
     15 C4'         7.1810   49.6660   27.1890 C.3       1 3AT903      0.0000 
     16 O4'         6.4870   48.4690   27.5940 O.3       1 3AT903      0.0000 
     17 C3'         8.1920   49.1940   26.1630 C.3       1 3AT903      0.0000 
     18 C2'         8.5790   47.8490   26.7070 C.3       1 3AT903      0.0000 
     19 O2'         9.5740   47.8970   27.7300 O.3       1 3AT903      0.0000 
     20 C1'         7.3000   47.3020   27.3490 C.3       1 3AT903      0.0000 
     21 N9          6.5880   46.3750   26.4530 N.pl3     1 3AT903      0.0000 
     22 C8          5.4410   46.5680   25.7360 C.2       1 3AT903      0.0000 
     23 N7          5.0510   45.5420   25.0410 N.2       1 3AT903      0.0000 
     24 C5          6.0190   44.5970   25.3260 C.ar      1 3AT903      0.0000 
     25 C6          6.2070   43.2440   24.9010 C.ar      1 3AT903      0.0000 
     26 N6          5.3490   42.6610   24.0670 N.pl3     1 3AT903      0.0000 
     27 N1          7.2860   42.5530   25.3660 N.ar      1 3AT903      0.0000 
     28 C2          8.1370   43.1550   26.2050 C.ar      1 3AT903      0.0000 
     29 N3          8.0710   44.4190   26.6810 N.ar      1 3AT903      0.0000 
     30 C4          6.9640   45.0910   26.1870 C.ar      1 3AT903      0.0000 
     31 H           5.1759   50.3362   27.0348 H         1 3AT903      0.0000 
     32 H           6.3751   51.6262   27.2291 H         1 3AT903      0.0000 
     33 H           7.7240   50.0532   28.0476 H         1 3AT903      0.0000 
     34 H           9.0265   49.8433   26.1568 H         1 3AT903      0.0000 
     35 H           7.7244   49.0899   25.2204 H         1 3AT903      0.0000 
     36 H           8.8324   47.1946   25.9079 H         1 3AT903      0.0000 
     37 H           7.5643   46.8330   28.2678 H         1 3AT903      0.0000 
     38 H           4.9558   47.4582   25.7669 H         1 3AT903      0.0000 
     39 H           4.5810   43.2238   23.7614 H         1 3AT903      0.0000 
     40 H           5.5497   41.7127   23.8212 H         1 3AT903      0.0000 
     41 H           8.9890   42.5582   26.5498 H         1 3AT903      0.0000 
     42 H          10.4218   47.6172   27.2796 H         1 3AT903      0.0000 
@<TRIPOS>BOND
     1    2    1 ar   
     2    3    1 ar   
     3    4    1 ar   
     4    8    1 1    
     5    6    5 ar   
     6    7    5 ar   
     7    8    5 1    
     8   12    5 1    
     9   10    9 ar   
    10   11    9 ar   
    11   12    9 1    
    12   13    9 1    
    13   14   13 1    
    14   15   14 1    
    15   31   14 1    
    16   32   14 1    
    17   16   15 1    
    18   17   15 1    
    19   33   15 1    
    20   20   16 1    
    21   18   17 1    
    22   34   17 1    
    23   35   17 1    
    24   19   18 1    
    25   20   18 1    
    26   36   18 1    
    27   42   19 1    
    28   21   20 1    
    29   37   20 1    
    30   22   21 1    
    31   30   21 1    
    32   23   22 2    
    33   38   22 1    
    34   24   23 1    
    35   25   24 ar   
    36   30   24 ar   
    37   26   25 1    
    38   27   25 ar   
    39   39   26 1    
    40   40   26 1    
    41   28   27 ar   
    42   29   28 ar   
    43   41   28 1    
    44   30   29 ar   
@<TRIPOS>SUBSTRUCTURE
     1 3AT903      1 GROUP   
@<TRIPOS>SET

