#    Name: 3vbi_0FX_2_INTS_M
#    Modification time : Tue Mar 25 00:28:43 2014

@<TRIPOS>MOLECULE
3vbi_0FX_2_INTS_M
   61     0    12     0     0
SMALL
NO_CHARGES


@<TRIPOS>ATOM
      1 NZ        -42.0775   -5.5530   -1.9105 N.4       3 LYC4        0.0000 
      2 NZ        -41.4390   -4.7530   -2.8640 N.4      11 LYL4        0.0000 
      3 NZ        -42.4630   -6.2650    0.3470 N.4       7 LYP4        0.0000 
      4 N         -42.0775   -5.5530   -1.9105 N.am      2 SEC2        0.0000 
      5 N         -41.4390   -4.7530   -2.8640 N.am     10 SEL2        0.0000 
      6 N         -42.7160   -6.3530   -0.9570 N.am      6 SEP2        0.0000 
      7 CA        -37.7465   -2.2520   -0.6540 C.3       4 GLC5        0.0000 
      8 CA        -39.6130   -1.7160   -1.6240 C.3      12 GLL5        0.0000 
      9 CA        -35.8800   -2.7880    0.3160 C.3       8 GLP5        0.0000 
     10 CA        -38.1325   -1.9810    0.6670 C.3       4 GLC5        0.0000 
     11 CA        -39.7380   -1.1340   -0.2190 C.3      12 GLL5        0.0000 
     12 CA        -36.5270   -2.8280    1.5530 C.3       8 GLP5        0.0000 
     13 O         -42.6060    2.0730   -2.8270 O.2       1 ALC1        0.0000 
     14 O         -42.0270    1.6070   -1.5940 O.2       9 ALL1        0.0000 
     15 O         -43.1850    2.5390   -4.0600 O.2       5 ALP1        0.0000 
     16 CA        -38.5435    1.0250   -5.4705 C.3       4 GLC5        0.0000 
     17 CA        -40.1450    1.1860   -3.9090 C.3      12 GLL5        0.0000 
     18 CA        -36.9420    0.8640   -7.0320 C.3       8 GLP5        0.0000 
     19 CA        -39.4830    2.8315   -4.4570 C.3       4 GLC5        0.0000 
     20 CA        -38.8210    4.4770   -5.0050 C.3       8 GLP5        0.0000 
     21 NZ        -40.1630   -5.2360    0.3115 N.4       3 LYC4        0.0000 
     22 NZ        -39.0450   -4.6350   -0.1430 N.4      11 LYL4        0.0000 
     23 N         -40.1630   -5.2360    0.3115 N.am      2 SEC2        0.0000 
     24 N         -39.0450   -4.6350   -0.1430 N.am     10 SEL2        0.0000 
     25 N         -41.2810   -5.8370    0.7660 N.am      6 SEP2        0.0000 
     26 N         -36.0950   -6.3295   -1.4515 N.am      2 SEC2        0.0000 
     27 N         -36.9580   -5.3640   -1.4910 N.am     10 SEL2        0.0000 
     28 N         -35.2320   -7.2950   -1.4120 N.am      6 SEP2        0.0000 
     29 N         -40.1805   -6.3095   -0.3680 N.am      2 SEC2        0.0000 
     30 N         -39.0800   -6.7820   -1.5020 N.am     10 SEL2        0.0000 
     31 CA        -40.5640  -12.1675    0.1000 C.3       4 GLC5        0.0000 
     32 CA        -40.2770  -10.4230   -0.5260 C.3      12 GLL5        0.0000 
     33 CA        -40.8510  -13.9120    0.7260 C.3       8 GLP5        0.0000 
     34 CA        -41.9790  -10.7130    0.5475 C.3       4 GLC5        0.0000 
     35 CA        -43.6810  -11.0030    1.6210 C.3       8 GLP5        0.0000 
     36 CA        -39.1775  -12.2020    0.6960 C.3       4 GLC5        0.0000 
     37 CA        -38.8740  -10.2290    0.0470 C.3      12 GLL5        0.0000 
     38 CA        -39.4810  -14.1750    1.3450 C.3       8 GLP5        0.0000 
     39 CA        -37.1550  -10.6785    0.6235 C.3       4 GLC5        0.0000 
     40 CA        -35.4360  -11.1280    1.2000 C.3       8 GLP5        0.0000 
     41 CA        -37.0615   -9.1305    1.7370 C.3       4 GLC5        0.0000 
     42 CA        -38.6020   -8.2450    1.4250 C.3      12 GLL5        0.0000 
     43 CA        -35.5210  -10.0160    2.0490 C.3       8 GLP5        0.0000 
     44 CA        -37.3375   -8.8495    2.9840 C.3       4 GLC5        0.0000 
     45 CA        -38.6660   -7.5300    2.6250 C.3      12 GLL5        0.0000 
     46 CA        -36.0090  -10.1690    3.3430 C.3       8 GLP5        0.0000 
     47 CA        -36.0865   -6.2235    3.1075 C.3       4 GLC5        0.0000 
     48 CA        -38.2160   -6.0880    2.6330 C.3      12 GLL5        0.0000 
     49 CA        -33.9570   -6.3590    3.5820 C.3       8 GLP5        0.0000 
     50 CA        -37.3715   -4.4580    2.0930 C.3       4 GLC5        0.0000 
     51 N         -39.9250  -12.6570    3.0875 N.am      2 SEC2        0.0000 
     52 N         -39.7530  -11.3410    2.4650 N.am     10 SEL2        0.0000 
     53 N         -40.0970  -13.9730    3.7100 N.am      6 SEP2        0.0000 
     54 N         -39.6495   -7.5045    6.2180 N.am      2 SEC2        0.0000 
     55 N         -39.1720   -7.6390    4.8800 N.am     10 SEL2        0.0000 
     56 N         -40.1270   -7.3700    7.5560 N.am      6 SEP2        0.0000 
     57 CA        -40.6264    2.5411   -2.2715 C.3       4 GLC5        0.0000 
     58 CA        -40.8480    0.7610   -1.4800 C.3      12 GLL5        0.0000 
     59 CA        -40.8590    4.2630   -1.5130 C.3       8 GLP5        0.0000 
     60 CA        -39.9230   -6.1770    4.1095 C.3       4 GLC5        0.0000 
     61 CA        -41.4050   -5.5450    5.5900 C.3       8 GLP5        0.0000 
@<TRIPOS>BOND
@<TRIPOS>SUBSTRUCTURE
     1 ALC1       13 GROUP        1 X    ALC  0     ROOT ALC X 1
     2 SEC2        4 GROUP        1 X    SEC  0     **** SEC X 2
     3 LYC4        1 GROUP        1 X    LYC  0     **** LYC X 4
     4 GLC5        7 GROUP        1 X    GLC  0     **** GLC X 6
     5 ALP1       15 GROUP        1 Y    ALP  0     ROOT ALP Y 8
     6 SEP2        6 GROUP        1 Y    SEP  0     **** SEP Y 9
     7 LYP4        3 GROUP        1 Y    LYP  0     **** LYP Y 11
     8 GLP5        9 GROUP        1 Y    GLP  0     **** GLP Y 13
     9 ALL1       14 GROUP        1 Z    ALL  0     ROOT ALL Z 15
    10 SEL2        5 GROUP        1 Z    SEL  0     **** SEL Z 16
    11 LYL4        2 GROUP        1 Z    LYL  0     **** LYL Z 18
    12 GLL5        8 GROUP        1 Z    GLL  0     **** GLL Z 20
@<TRIPOS>SET

