#    Name: 3vbi_0FX_2_ligand
#    Modification time : Tue Mar 25 00:28:43 2014

@<TRIPOS>MOLECULE
3vbi_0FX_2_ligand
   61    63     1     0     0
SMALL
NO_CHARGES


@<TRIPOS>ATOM
      1 O4P       -40.1200   -3.1330   -4.4320 O.co2     1 0FX1500     0.0000 
      2 P2        -40.2700   -3.8310   -3.0870 P.3       1 0FX1500     0.0000 
      3 O3P       -41.4390   -4.7530   -2.8640 O.co2     1 0FX1500     0.0000 
      4 O1G       -40.5750   -2.7110   -1.9610 O.3       1 0FX1500     0.0000 
      5 C1G       -39.6130   -1.7160   -1.6240 C.3       1 0FX1500     0.0000 
      6 C2G       -39.7380   -1.1340   -0.2190 C.3       1 0FX1500     0.0000 
      7 O2G       -39.9700   -2.1430    0.7700 O.3       1 0FX1500     0.0000 
      8 C3G       -40.9750   -0.2380   -0.3200 C.3       1 0FX1500     0.0000 
      9 O3G       -41.1230    0.5290    0.8790 O.3       1 0FX1500     0.0000 
     10 C4G       -40.8480    0.7610   -1.4800 C.3       1 0FX1500     0.0000 
     11 N4A       -42.0270    1.6070   -1.5940 N.4       1 0FX1500     0.0000 
     12 C5G       -40.4370    0.1440   -2.8220 C.3       1 0FX1500     0.0000 
     13 C6G       -40.1450    1.1860   -3.9090 C.3       1 0FX1500     0.0000 
     14 O5G       -39.3360   -0.7630   -2.6430 O.3       1 0FX1500     0.0000 
     15 OPP       -38.8490   -4.5380   -2.7400 O.3       1 0FX1500     0.0000 
     16 P         -38.4540   -5.3030   -1.3730 P.3       1 0FX1500     0.0000 
     17 O1P       -39.0450   -4.6350   -0.1430 O.co2     1 0FX1500     0.0000 
     18 O2P       -36.9580   -5.3640   -1.4910 O.co2     1 0FX1500     0.0000 
     19 O5        -39.0800   -6.7820   -1.5020 O.3       1 0FX1500     0.0000 
     20 C5        -38.5600   -7.7030   -2.4670 C.3       1 0FX1500     0.0000 
     21 C4        -38.8710   -9.1400   -2.0640 C.3       1 0FX1500     0.0000 
     22 O4        -38.0830   -9.5450   -0.9440 O.3       1 0FX1500     0.0000 
     23 C3        -40.3070   -9.3230   -1.5800 C.3       1 0FX1500     0.0000 
     24 O3        -41.2010   -9.6760   -2.6370 O.3       1 0FX1500     0.0000 
     25 C2        -40.2770  -10.4230   -0.5260 C.3       1 0FX1500     0.0000 
     26 C1        -38.8740  -10.2290    0.0470 C.3       1 0FX1500     0.0000 
     27 N11       -38.9680   -9.5330    1.3450 N.am      1 0FX1500     0.0000 
     28 C61       -38.6020   -8.2450    1.4250 C.2       1 0FX1500     0.0000 
     29 C51       -38.6660   -7.5300    2.6250 C.2       1 0FX1500     0.0000 
     30 C5A       -38.2160   -6.0880    2.6330 C.3       1 0FX1500     0.0000 
     31 C21       -39.3990  -10.1450    2.4670 C.2       1 0FX1500     0.0000 
     32 O21       -39.7530  -11.3410    2.4650 O.2       1 0FX1500     0.0000 
     33 N31       -39.4890   -9.5000    3.6520 N.am      1 0FX1500     0.0000 
     34 C41       -39.1060   -8.2030    3.7650 C.2       1 0FX1500     0.0000 
     35 O41       -39.1720   -7.6390    4.8800 O.2       1 0FX1500     0.0000 
     36 H         -38.5842   -2.3353   -1.5281 H         1 0FX1500     0.0000 
     37 H         -38.9044   -0.5210   -0.0238 H         1 0FX1500     0.0000 
     38 H         -41.8375   -0.8487   -0.4979 H         1 0FX1500     0.0000 
     39 H         -39.9825    1.4462   -1.1864 H         1 0FX1500     0.0000 
     40 H         -41.3222   -0.4417   -3.1770 H         1 0FX1500     0.0000 
     41 H         -37.4683   -7.6104   -2.5658 H         1 0FX1500     0.0000 
     42 H         -38.9943   -7.5318   -3.4632 H         1 0FX1500     0.0000 
     43 H         -38.7147   -9.7975   -2.8941 H         1 0FX1500     0.0000 
     44 H         -40.6072   -8.4103   -1.0834 H         1 0FX1500     0.0000 
     45 H         -40.3482  -11.3636   -0.9852 H         1 0FX1500     0.0000 
     46 H         -40.9948  -10.2314    0.2148 H         1 0FX1500     0.0000 
     47 H         -38.4745  -11.2394    0.2093 H         1 0FX1500     0.0000 
     48 H         -38.2539   -7.7370    0.5755 H         1 0FX1500     0.0000 
     49 H         -39.8569  -10.0033    4.4905 H         1 0FX1500     0.0000 
     50 H         -42.8526    1.1377   -1.2808 H         1 0FX1500     0.0000 
     51 H         -41.9396    2.4411   -1.0494 H         1 0FX1500     0.0000 
     52 H         -42.1912    1.8898   -2.5390 H         1 0FX1500     0.0000 
     53 H         -39.4017    1.8004   -3.6444 H         1 0FX1500     0.0000 
     54 H         -39.8779    0.7574   -4.7721 H         1 0FX1500     0.0000 
     55 H         -40.9433    1.7571   -4.1001 H         1 0FX1500     0.0000 
     56 H         -37.2584   -5.9963    2.3598 H         1 0FX1500     0.0000 
     57 H         -38.7551   -5.5272    2.0046 H         1 0FX1500     0.0000 
     58 H         -38.3026   -5.6770    3.5405 H         1 0FX1500     0.0000 
     59 H         -39.6407   -2.9916    0.3560 H         1 0FX1500     0.0000 
     60 H         -40.1894    0.7452    1.1647 H         1 0FX1500     0.0000 
     61 H         -40.6369   -9.6793   -3.4627 H         1 0FX1500     0.0000 
@<TRIPOS>BOND
     1    2    1 ar   
     2    3    2 ar   
     3    4    2 1    
     4   15    2 1    
     5    5    4 1    
     6    6    5 1    
     7   14    5 1    
     8   36    5 1    
     9    7    6 1    
    10    8    6 1    
    11   37    6 1    
    12   59    7 1    
    13    9    8 1    
    14   10    8 1    
    15   38    8 1    
    16   60    9 1    
    17   11   10 1    
    18   12   10 1    
    19   39   10 1    
    20   50   11 1    
    21   51   11 1    
    22   52   11 1    
    23   13   12 1    
    24   14   12 1    
    25   40   12 1    
    26   53   13 1    
    27   54   13 1    
    28   55   13 1    
    29   16   15 1    
    30   17   16 ar   
    31   18   16 ar   
    32   19   16 1    
    33   20   19 1    
    34   21   20 1    
    35   41   20 1    
    36   42   20 1    
    37   22   21 1    
    38   23   21 1    
    39   43   21 1    
    40   26   22 1    
    41   24   23 1    
    42   25   23 1    
    43   44   23 1    
    44   61   24 1    
    45   26   25 1    
    46   45   25 1    
    47   46   25 1    
    48   27   26 1    
    49   47   26 1    
    50   28   27 1    
    51   31   27 1    
    52   29   28 2    
    53   48   28 1    
    54   30   29 1    
    55   34   29 1    
    56   56   30 1    
    57   57   30 1    
    58   58   30 1    
    59   32   31 2    
    60   33   31 1    
    61   34   33 1    
    62   49   33 1    
    63   35   34 2    
@<TRIPOS>SUBSTRUCTURE
     1 0FX1500     1 GROUP   
@<TRIPOS>SET

