#    Name: 3wi2_P98_2_INTS_M
#    Modification time : Tue Mar 25 02:35:28 2014

@<TRIPOS>MOLECULE
3wi2_P98_2_INTS_M
   66     0     6     0     0
SMALL
NO_CHARGES


@<TRIPOS>ATOM
      1 CA         20.4760   24.1450   35.9660 C.3       2 GLC5        0.0000 
      2 CA         22.4280   23.4700   35.8990 C.3       6 GLL5        0.0000 
      3 CA         18.5240   24.8200   36.0330 C.3       4 GLP5        0.0000 
      4 CA         21.3600   25.7970   37.1725 C.3       2 GLC5        0.0000 
      5 CA         22.6910   24.1600   37.0650 C.3       6 GLL5        0.0000 
      6 CA         20.0290   27.4340   37.2800 C.3       4 GLP5        0.0000 
      7 CA         20.2675   24.4405   37.8705 C.3       2 GLC5        0.0000 
      8 CA         22.1180   23.7080   38.2370 C.3       6 GLL5        0.0000 
      9 CA         18.4170   25.1730   37.5040 C.3       4 GLP5        0.0000 
     10 CA         16.8975   28.9185   46.8130 C.3       2 GLC5        0.0000 
     11 CA         18.1180   29.3540   45.0730 C.3       6 GLL5        0.0000 
     12 CA         15.6770   28.4830   48.5530 C.3       4 GLP5        0.0000 
     13 CA         17.4945   28.1350   43.3880 C.3       2 GLC5        0.0000 
     14 CA         16.8710   26.9160   41.7030 C.3       4 GLP5        0.0000 
     15 CA         21.3705   30.7960   46.5520 C.3       2 GLC5        0.0000 
     16 CA         20.2840   29.3740   46.3150 C.3       6 GLL5        0.0000 
     17 CA         22.4570   32.2180   46.7890 C.3       4 GLP5        0.0000 
     18 CA         20.8825   23.0215   40.2970 C.3       2 GLC5        0.0000 
     19 CA         22.3850   24.4290   39.5290 C.3       6 GLL5        0.0000 
     20 CA         19.3800   21.6140   41.0650 C.3       4 GLP5        0.0000 
     21 CA         21.2070   25.9315   38.4045 C.3       2 GLC5        0.0000 
     22 CA         24.0795   23.3770   40.5280 C.3       2 GLC5        0.0000 
     23 CA         25.7740   22.3250   41.5270 C.3       4 GLP5        0.0000 
     24 CA         23.9510   25.6110   40.6270 C.3       2 GLC5        0.0000 
     25 CA         25.5170   26.7930   41.7250 C.3       4 GLP5        0.0000 
     26 N          20.9575   22.3160   39.4280 N.am      1 SEC2        0.0000 
     27 N          21.3190   22.6290   38.2880 N.am      5 SEL2        0.0000 
     28 N          20.5960   22.0030   40.5680 N.am      3 SEP2        0.0000 
     29 CA         20.4185   22.1135   46.1268 C.3       2 GLC5        0.0000 
     30 CA         20.5980   23.8860   45.2020 C.3       6 GLL5        0.0000 
     31 CA         19.7940   20.2230   46.5320 C.3       4 GLP5        0.0000 
     32 CA         20.1195   21.5260   33.1710 C.3       2 GLC5        0.0000 
     33 CA         21.3150   21.6690   34.7770 C.3       6 GLL5        0.0000 
     34 CA         19.3420   21.9340   31.5430 C.3       4 GLP5        0.0000 
     35 CA         19.0700   21.9230   35.5060 C.3       2 GLC5        0.0000 
     36 CA         20.4790   20.5670   34.8210 C.3       6 GLL5        0.0000 
     37 CA         17.9420   23.4860   35.5950 C.3       4 GLP5        0.0000 
     38 CA         19.0090   19.1945   34.2085 C.3       2 GLC5        0.0000 
     39 CA         19.9170   20.1530   36.0130 C.3       6 GLL5        0.0000 
     40 CA         17.8200   18.0290   33.0000 C.3       4 GLP5        0.0000 
     41 CA         23.3940   26.1373   47.2240 C.3       2 GLC5        0.0000 
     42 CA         21.7710   26.4010   45.5370 C.3       6 GLL5        0.0000 
     43 CA         24.8770   26.3890   48.4730 C.3       4 GLP5        0.0000 
     44 CA         19.7003   22.7510   35.4767 C.3       2 GLC5        0.0000 
     45 CA         21.6020   22.3630   35.9400 C.3       6 GLL5        0.0000 
     46 CA         21.6917   19.4558   34.5985 C.3       2 GLC5        0.0000 
     47 CA         22.6270   17.8970   34.1000 C.3       4 GLP5        0.0000 
     48 CA         23.8283   22.9610   37.1240 C.3       2 GLC5        0.0000 
     49 CA         25.0970   22.1070   37.7660 C.3       4 GLP5        0.0000 
     50 CA         19.2915   22.4507   36.3728 C.3       2 GLC5        0.0000 
     51 CA         21.0600   21.9680   37.1510 C.3       6 GLL5        0.0000 
     52 CA         23.6313   26.7640   41.2586 C.3       2 GLC5        0.0000 
     53 CA         21.6370   26.2070   41.5380 C.3       6 GLL5        0.0000 
     54 CA         23.2140   22.1363   37.1557 C.3       2 GLC5        0.0000 
     55 CA         21.4689   19.7775   37.8786 C.3       2 GLC5        0.0000 
     56 CA         22.3730   18.3170   38.8910 C.3       4 GLP5        0.0000 
     57 CA         18.7076   25.3426   44.5971 C.3       2 GLC5        0.0000 
     58 CA         20.2850   24.9010   44.3170 C.3       6 GLL5        0.0000 
     59 CA         16.7520   25.4190   44.5620 C.3       4 GLP5        0.0000 
     60 CA         20.8665   27.4674   38.7638 C.3       2 GLC5        0.0000 
     61 CA         21.9770   26.6210   40.2530 C.3       6 GLL5        0.0000 
     62 CA         23.6743   23.0877   38.3245 C.3       2 GLC5        0.0000 
     63 CA         17.7702   27.2117   44.8717 C.3       2 GLC5        0.0000 
     64 CA         19.4590   28.6550   45.2900 C.3       6 GLL5        0.0000 
     65 CA         21.7067   29.4532   44.8807 C.3       2 GLC5        0.0000 
     66 CA         23.5420   29.8920   43.9590 C.3       4 GLP5        0.0000 
@<TRIPOS>BOND
@<TRIPOS>SUBSTRUCTURE
     1 SEC2       26 GROUP        1 X    SEC  0     ROOT SEC X 2
     2 GLC5        1 GROUP        1 X    GLC  0     **** GLC X 6
     3 SEP2       28 GROUP        1 Y    SEP  0     ROOT SEP Y 9
     4 GLP5        3 GROUP        1 Y    GLP  0     **** GLP Y 13
     5 SEL2       27 GROUP        1 Z    SEL  0     ROOT SEL Z 16
     6 GLL5        2 GROUP        1 Z    GLL  0     **** GLL Z 20
@<TRIPOS>SET

