#    Name: 3wi2_P98_2_ligand
#    Modification time : Tue Mar 25 02:35:28 2014

@<TRIPOS>MOLECULE
3wi2_P98_2_ligand
   53    57     1     0     0
SMALL
NO_CHARGES


@<TRIPOS>ATOM
      1 C25        21.4880   24.1220   46.2410 C.ar      1 P98803      0.0000 
      2 C15        20.4790   20.5670   34.8210 C.ar      1 P98803      0.0000 
      3 C14        19.9170   20.1530   36.0130 C.ar      1 P98803      0.0000 
      4 C24        20.5980   23.8860   45.2020 C.ar      1 P98803      0.0000 
      5 C26        22.0510   25.3700   46.4130 C.ar      1 P98803      0.0000 
      6 C16        21.3150   21.6690   34.7770 C.ar      1 P98803      0.0000 
      7 C9         22.4280   23.4700   35.8990 C.ar      1 P98803      0.0000 
      8 C13        20.2220   20.8630   37.1500 C.ar      1 P98803      0.0000 
      9 C4         21.1310   28.8560   40.6440 C.ar      1 P98803      0.0000 
     10 C23        20.2850   24.9010   44.3170 C.ar      1 P98803      0.0000 
     11 C27        21.7710   26.4010   45.5370 C.ar      1 P98803      0.0000 
     12 C1         21.7310   27.9050   39.8400 C.ar      1 P98803      0.0000 
     13 C10        22.6910   24.1600   37.0650 C.ar      1 P98803      0.0000 
     14 C3         21.6370   26.2070   41.5380 C.ar      1 P98803      0.0000 
     15 C11        21.6020   22.3630   35.9400 C.ar      1 P98803      0.0000 
     16 C12        21.0600   21.9680   37.1510 C.ar      1 P98803      0.0000 
     17 C17        20.7980   28.4680   41.9250 C.ar      1 P98803      0.0000 
     18 C18        21.0530   27.1830   42.3240 C.ar      1 P98803      0.0000 
     19 C22        20.8850   26.1390   44.5050 C.ar      1 P98803      0.0000 
     20 C2         21.9770   26.6210   40.2530 C.ar      1 P98803      0.0000 
     21 C7         22.1180   23.7080   38.2370 C.ar      1 P98803      0.0000 
     22 C20        20.0810   28.3820   43.9510 C.2       1 P98803      0.0000 
     23 C29        18.1180   29.3540   45.0730 C.3       1 P98803      0.0000 
     24 C30        20.2840   29.3740   46.3150 C.3       1 P98803      0.0000 
     25 C6         22.3850   24.4290   39.5290 C.3       1 P98803      0.0000 
     26 C28        19.4590   28.6550   45.2900 C.3       1 P98803      0.0000 
     27 N8         21.3190   22.6290   38.2880 N.ar      1 P98803      0.0000 
     28 N21        20.2020   29.2060   42.9240 N.2       1 P98803      0.0000 
     29 N19        20.5900   27.1620   43.6100 N.pl3     1 P98803      0.0000 
     30 O5         22.5910   25.8190   39.2830 O.3       1 P98803      0.0000 
     31 H          21.7288   23.3532   46.8899 H         1 P98803      0.0000 
     32 H          20.2728   20.0469   33.9486 H         1 P98803      0.0000 
     33 H          19.2963   19.3464   36.0453 H         1 P98803      0.0000 
     34 H          20.1726   22.9546   45.0927 H         1 P98803      0.0000 
     35 H          22.6933   25.5371   47.2107 H         1 P98803      0.0000 
     36 H          21.7226   21.9721   33.8817 H         1 P98803      0.0000 
     37 H          22.8413   23.7753   35.0103 H         1 P98803      0.0000 
     38 H          19.8019   20.5573   38.0662 H         1 P98803      0.0000 
     39 H          20.9459   29.7900   40.3081 H         1 P98803      0.0000 
     40 H          19.6353   24.7483   43.5505 H         1 P98803      0.0000 
     41 H          22.1964   27.3141   45.6438 H         1 P98803      0.0000 
     42 H          22.0114   28.1853   38.8623 H         1 P98803      0.0000 
     43 H          23.2934   24.9831   37.0612 H         1 P98803      0.0000 
     44 H          21.8029   25.2826   41.8600 H         1 P98803      0.0000 
     45 H          23.2656   23.9710   40.0042 H         1 P98803      0.0000 
     46 H          21.5288   24.2630   40.2001 H         1 P98803      0.0000 
     47 H          19.1797   27.6480   45.7282 H         1 P98803      0.0000 
     48 H          18.2252   30.2194   44.5835 H         1 P98803      0.0000 
     49 H          17.4879   28.7909   44.5383 H         1 P98803      0.0000 
     50 H          17.6629   29.5615   45.9389 H         1 P98803      0.0000 
     51 H          21.1190   28.8713   46.5388 H         1 P98803      0.0000 
     52 H          20.5636   30.2801   45.9976 H         1 P98803      0.0000 
     53 H          19.7825   29.5048   47.1702 H         1 P98803      0.0000 
@<TRIPOS>BOND
     1    4    1 ar   
     2    5    1 ar   
     3   31    1 1    
     4    3    2 ar   
     5    6    2 ar   
     6   32    2 1    
     7    8    3 ar   
     8   33    3 1    
     9   10    4 ar   
    10   34    4 1    
    11   11    5 ar   
    12   35    5 1    
    13   15    6 ar   
    14   36    6 1    
    15   13    7 ar   
    16   15    7 ar   
    17   37    7 1    
    18   16    8 ar   
    19   38    8 1    
    20   12    9 ar   
    21   17    9 ar   
    22   39    9 1    
    23   19   10 ar   
    24   40   10 1    
    25   19   11 ar   
    26   41   11 1    
    27   20   12 ar   
    28   42   12 1    
    29   21   13 ar   
    30   43   13 1    
    31   18   14 ar   
    32   20   14 ar   
    33   44   14 1    
    34   16   15 ar   
    35   27   16 ar   
    36   18   17 ar   
    37   28   17 1    
    38   29   18 1    
    39   29   19 1    
    40   30   20 1    
    41   25   21 1    
    42   27   21 ar   
    43   26   22 1    
    44   28   22 2    
    45   29   22 1    
    46   26   23 1    
    47   48   23 1    
    48   49   23 1    
    49   50   23 1    
    50   26   24 1    
    51   51   24 1    
    52   52   24 1    
    53   53   24 1    
    54   30   25 1    
    55   45   25 1    
    56   46   25 1    
    57   47   26 1    
@<TRIPOS>SUBSTRUCTURE
     1 P98803      1 GROUP   
@<TRIPOS>SET

