#    Name: 3tik_JKF_3_INTS_M
#    Modification time : Mon Mar 24 20:10:36 2014

@<TRIPOS>MOLECULE
3tik_JKF_3_INTS_M
   67     0     3     0     0
SMALL
NO_CHARGES


@<TRIPOS>ATOM
      1 CA        -34.7105   27.9595  -47.7385 C.3       1 GLC5        0.0000 
      2 CA        -34.0150   26.0410  -47.3760 C.3       3 GLL5        0.0000 
      3 CA        -35.4060   29.8780  -48.1010 C.3       2 GLP5        0.0000 
      4 CA        -32.8805   27.1515  -48.2855 C.3       1 GLC5        0.0000 
      5 CA        -31.7460   28.2620  -49.1950 C.3       2 GLP5        0.0000 
      6 CA        -33.7685   26.6620  -45.5670 C.3       1 GLC5        0.0000 
      7 CA        -33.5220   27.2830  -43.7580 C.3       2 GLP5        0.0000 
      8 CA        -33.5485   24.5000  -45.8595 C.3       1 GLC5        0.0000 
      9 CA        -33.0820   22.9590  -44.3430 C.3       2 GLP5        0.0000 
     10 CA        -34.7320   22.7365  -45.2780 C.3       1 GLC5        0.0000 
     11 CA        -36.3820   22.5140  -46.2130 C.3       3 GLL5        0.0000 
     12 CA        -37.2115   21.0270  -45.0845 C.3       1 GLC5        0.0000 
     13 CA        -38.0410   19.5400  -43.9560 C.3       2 GLP5        0.0000 
     14 CA        -37.3400   21.2830  -47.4400 C.3       1 GLC5        0.0000 
     15 CA        -38.2980   20.0520  -48.6670 C.3       2 GLP5        0.0000 
     16 CA        -38.1020   24.1100  -52.4750 C.3       1 GLC5        0.0000 
     17 CA        -39.7740   23.0540  -51.8970 C.3       3 GLL5        0.0000 
     18 CA        -36.4300   25.1660  -53.0530 C.3       2 GLP5        0.0000 
     19 CA        -39.6005   21.0320  -52.5865 C.3       1 GLC5        0.0000 
     20 CA        -39.4270   19.0100  -53.2760 C.3       2 GLP5        0.0000 
     21 CA        -39.1785   22.9615  -46.8600 C.3       1 GLC5        0.0000 
     22 CA        -38.2580   24.4810  -46.1530 C.3       3 GLL5        0.0000 
     23 CA        -40.0990   21.4420  -47.5670 C.3       2 GLP5        0.0000 
     24 CA        -39.5060   29.0100  -49.8700 C.3       1 GLC5        0.0000 
     25 CA        -39.6360   28.2210  -48.5590 C.3       3 GLL5        0.0000 
     26 CA        -39.3760   29.7990  -51.1810 C.3       2 GLP5        0.0000 
     27 CA        -41.4475   29.4380  -49.0985 C.3       1 GLC5        0.0000 
     28 CA        -43.2590   30.6550  -49.6380 C.3       2 GLP5        0.0000 
     29 CA        -30.6350   26.9535  -51.0480 C.3       1 GLC5        0.0000 
     30 CA        -29.6480   25.0860  -51.6450 C.3       3 GLL5        0.0000 
     31 CA        -31.6220   28.8210  -50.4510 C.3       2 GLP5        0.0000 
     32 CA        -28.6620   26.6850  -52.1300 C.3       1 GLC5        0.0000 
     33 CA        -27.6760   28.2840  -52.6150 C.3       2 GLP5        0.0000 
     34 CA        -30.3785   24.4960  -53.3720 C.3       1 GLC5        0.0000 
     35 CA        -31.1090   23.9060  -55.0990 C.3       2 GLP5        0.0000 
     36 CA        -27.8840   23.9735  -51.4580 C.3       1 GLC5        0.0000 
     37 CA        -26.1200   22.8610  -51.2710 C.3       2 GLP5        0.0000 
     38 CA        -37.2300   29.1885  -47.2055 C.3       1 GLC5        0.0000 
     39 CA        -39.0540   28.4990  -46.3100 C.3       3 GLL5        0.0000 
     40 CA        -29.7135   25.6885  -48.0900 C.3       1 GLC5        0.0000 
     41 CA        -30.9830   24.3550  -49.3160 C.3       3 GLL5        0.0000 
     42 CA        -28.4440   27.0220  -46.8640 C.3       2 GLP5        0.0000 
     43 CA        -31.9735   23.2270  -46.7410 C.3       1 GLC5        0.0000 
     44 CA        -32.1320   24.0850  -48.5750 C.3       3 GLL5        0.0000 
     45 CA        -31.8150   22.3690  -44.9070 C.3       2 GLP5        0.0000 
     46 CA        -32.6380   21.9660  -46.5250 C.3       1 GLC5        0.0000 
     47 CA        -33.4610   21.5630  -48.1430 C.3       3 GLL5        0.0000 
     48 CA        -37.6558   28.5317  -48.8167 C.3       1 GLC5        0.0000 
     49 CA        -39.2190   27.7060  -47.4420 C.3       3 GLL5        0.0000 
     50 CA        -35.8840   29.1000  -49.6330 C.3       2 GLP5        0.0000 
     51 CA        -38.4625   30.0942  -45.8717 C.3       1 GLC5        0.0000 
     52 CA        -38.0900   31.9640  -46.0340 C.3       2 GLP5        0.0000 
     53 CA        -40.1130   28.7043  -46.4537 C.3       1 GLC5        0.0000 
     54 CA        -41.3910   29.1840  -47.1980 C.3       2 GLP5        0.0000 
     55 CA        -37.4700   21.5755  -49.4980 C.3       1 GLC5        0.0000 
     56 CA        -37.2700   23.1190  -50.6240 C.3       3 GLL5        0.0000 
     57 CA        -39.9017   23.4885  -48.1968 C.3       1 GLC5        0.0000 
     58 CA        -39.0870   25.5520  -48.5100 C.3       3 GLL5        0.0000 
     59 CA        -40.5478   27.3595  -48.0123 C.3       1 GLC5        0.0000 
     60 CA        -40.2831   28.1729  -47.4479 C.3       1 GLC5        0.0000 
     61 CA        -39.7137   25.0409  -45.4177 C.3       1 GLC5        0.0000 
     62 CA        -38.9230   26.3600  -47.3950 C.3       3 GLL5        0.0000 
     63 CA        -40.7860   23.9680  -44.3320 C.3       2 GLP5        0.0000 
     64 CA        -33.7720   23.0570  -46.1962 C.3       1 GLC5        0.0000 
     65 CA        -34.5320   23.8710  -48.3170 C.3       3 GLL5        0.0000 
     66 CA        -39.1350   22.8862  -48.5622 C.3       1 GLC5        0.0000 
     67 CA        -38.0490   24.7350  -48.9970 C.3       3 GLL5        0.0000 
@<TRIPOS>BOND
@<TRIPOS>SUBSTRUCTURE
     1 GLC5        1 GROUP        1 X    GLC  0     ROOT GLC X 6
     2 GLP5        3 GROUP        1 Y    GLP  0     ROOT GLP Y 13
     3 GLL5        2 GROUP        1 Z    GLL  0     ROOT GLL Z 20
@<TRIPOS>SET

