#    Name: 3tik_JKF_3_ligand
#    Modification time : Mon Mar 24 20:10:36 2014

@<TRIPOS>MOLECULE
3tik_JKF_3_ligand
   58    62     1     0     0
SMALL
NO_CHARGES


@<TRIPOS>ATOM
      1 CAA       -34.0150   26.0410  -47.3760 C.3       1 JKF490      0.0000 
      2 CAB       -36.3820   22.5140  -46.2130 C.3       1 JKF490      0.0000 
      3 CAC       -39.7740   23.0540  -51.8970 C.3       1 JKF490      0.0000 
      4 OAD       -41.6190   24.6690  -50.7990 O.2       1 JKF490      0.0000 
      5 FAE       -38.2580   24.4810  -46.1530 F         1 JKF490      0.0000 
      6 FAF       -39.6360   28.2210  -48.5590 F         1 JKF490      0.0000 
      7 CLAG      -29.6480   25.0860  -51.6450 Cl        1 JKF490      0.0000 
      8 CAH       -38.6160   27.9500  -45.1090 C.ar      1 JKF490      0.0000 
      9 CAI       -38.3360   26.5920  -45.0510 C.ar      1 JKF490      0.0000 
     10 CAJ       -39.0540   28.4990  -46.3100 C.ar      1 JKF490      0.0000 
     11 CAK       -30.9830   24.3550  -49.3160 C.ar      1 JKF490      0.0000 
     12 CAL       -32.3910   24.7950  -51.2140 C.ar      1 JKF490      0.0000 
     13 CAM       -32.1320   24.0850  -48.5750 C.ar      1 JKF490      0.0000 
     14 CAN       -33.5390   24.5200  -50.4680 C.ar      1 JKF490      0.0000 
     15 CAO       -36.0140   23.0790  -50.0340 C.ar      1 JKF490      0.0000 
     16 CAP       -33.4610   21.5630  -48.1430 C.2       1 JKF490      0.0000 
     17 CAQ       -37.2700   23.1190  -50.6240 C.ar      1 JKF490      0.0000 
     18 CAR       -34.7810   20.6470  -46.6760 C.2       1 JKF490      0.0000 
     19 CAS       -40.3220   25.5180  -49.1430 C.2       1 JKF490      0.0000 
     20 CAT       -36.7750   24.7230  -48.4130 C.ar      1 JKF490      0.0000 
     21 NAU       -33.7110   20.4490  -47.4420 N.2       1 JKF490      0.0000 
     22 OAV       -34.6400   24.7650  -47.1980 O.3       1 JKF490      0.0000 
     23 CAW       -31.1100   24.7140  -50.6540 C.ar      1 JKF490      0.0000 
     24 CAX       -38.5090   25.8050  -46.1930 C.ar      1 JKF490      0.0000 
     25 CAY       -39.2190   27.7060  -47.4420 C.ar      1 JKF490      0.0000 
     26 CAZ       -33.4140   24.1670  -49.1290 C.ar      1 JKF490      0.0000 
     27 CBA       -35.7580   23.9210  -48.9550 C.ar      1 JKF490      0.0000 
     28 CBB       -39.0870   25.5520  -48.5100 C.2       1 JKF490      0.0000 
     29 CBC       -38.9230   26.3600  -47.3950 C.ar      1 JKF490      0.0000 
     30 CBD       -34.3920   22.4390  -47.7820 C.2       1 JKF490      0.0000 
     31 CBE       -40.5150   24.6940  -50.2480 C.2       1 JKF490      0.0000 
     32 CBF       -38.0490   24.7350  -48.9970 C.ar      1 JKF490      0.0000 
     33 CBG       -38.2930   23.9260  -50.1180 C.ar      1 JKF490      0.0000 
     34 NBH       -35.2110   21.8870  -46.8900 N.pl3     1 JKF490      0.0000 
     35 NBI       -39.5150   23.9150  -50.7090 N.am      1 JKF490      0.0000 
     36 CBJ       -34.5320   23.8710  -48.3170 C.3       1 JKF490      0.0000 
     37 H         -38.5026   28.5398  -44.2821 H         1 JKF490      0.0000 
     38 H         -38.0052   26.1658  -44.1809 H         1 JKF490      0.0000 
     39 H         -39.2602   29.5116  -46.3628 H         1 JKF490      0.0000 
     40 H         -30.0610   24.2899  -48.8817 H         1 JKF490      0.0000 
     41 H         -32.4881   25.0671  -52.2114 H         1 JKF490      0.0000 
     42 H         -32.0353   23.8125  -47.5736 H         1 JKF490      0.0000 
     43 H         -34.4620   24.5785  -50.9051 H         1 JKF490      0.0000 
     44 H         -35.2940   22.4481  -50.3815 H         1 JKF490      0.0000 
     45 H         -32.7539   21.6939  -48.7737 H         1 JKF490      0.0000 
     46 H         -37.4585   22.5358  -51.4632 H         1 JKF490      0.0000 
     47 H         -35.1762   20.0017  -46.0700 H         1 JKF490      0.0000 
     48 H         -41.0953   26.1009  -48.7968 H         1 JKF490      0.0000 
     49 H         -36.5841   25.3010  -47.5878 H         1 JKF490      0.0000 
     50 H         -33.0341   25.9531  -47.5493 H         1 JKF490      0.0000 
     51 H         -34.4055   26.5412  -48.1488 H         1 JKF490      0.0000 
     52 H         -34.1192   26.6215  -46.5684 H         1 JKF490      0.0000 
     53 H         -36.2655   22.5427  -45.2202 H         1 JKF490      0.0000 
     54 H         -36.5275   23.4550  -46.5184 H         1 JKF490      0.0000 
     55 H         -37.2281   22.0128  -46.3944 H         1 JKF490      0.0000 
     56 H         -38.9676   22.5204  -52.1518 H         1 JKF490      0.0000 
     57 H         -40.5150   22.4036  -51.7299 H         1 JKF490      0.0000 
     58 H         -40.0331   23.5941  -52.6977 H         1 JKF490      0.0000 
@<TRIPOS>BOND
     1   22    1 1    
     2   50    1 1    
     3   51    1 1    
     4   52    1 1    
     5   34    2 1    
     6   53    2 1    
     7   54    2 1    
     8   55    2 1    
     9   35    3 1    
    10   56    3 1    
    11   57    3 1    
    12   58    3 1    
    13   31    4 2    
    14   24    5 1    
    15   25    6 1    
    16   23    7 1    
    17    9    8 ar   
    18   10    8 ar   
    19   37    8 1    
    20   24    9 ar   
    21   38    9 1    
    22   25   10 ar   
    23   39   10 1    
    24   13   11 ar   
    25   23   11 ar   
    26   40   11 1    
    27   14   12 ar   
    28   23   12 ar   
    29   41   12 1    
    30   26   13 ar   
    31   42   13 1    
    32   26   14 ar   
    33   43   14 1    
    34   17   15 ar   
    35   27   15 ar   
    36   44   15 1    
    37   21   16 1    
    38   30   16 2    
    39   45   16 1    
    40   33   17 ar   
    41   46   17 1    
    42   21   18 2    
    43   34   18 1    
    44   47   18 1    
    45   28   19 2    
    46   31   19 1    
    47   48   19 1    
    48   27   20 ar   
    49   32   20 ar   
    50   49   20 1    
    51   36   22 1    
    52   29   24 ar   
    53   29   25 ar   
    54   36   26 1    
    55   36   27 1    
    56   29   28 1    
    57   32   28 1    
    58   34   30 1    
    59   36   30 1    
    60   35   31 am   
    61   33   32 ar   
    62   35   33 1    
@<TRIPOS>SUBSTRUCTURE
     1 JKF490      1 GROUP   
@<TRIPOS>SET

