#    Name: 1u1g_BBB_4_INTS_M
#    Modification time : Tue Mar 25 05:59:18 2014

@<TRIPOS>MOLECULE
1u1g_BBB_4_INTS_M
   63     0     9     0     0
SMALL
NO_CHARGES


@<TRIPOS>ATOM
      1 N          10.5335  209.4520   22.1425 N.am      2 SEC2        0.0000 
      2 N          10.2150  210.2530   21.0460 N.am      8 SEL2        0.0000 
      3 N          10.8520  208.6510   23.2390 N.am      5 SEP2        0.0000 
      4 CA          9.6525  209.4330   22.4740 C.3       3 GLC5        0.0000 
      5 CA          8.9500  209.9550   20.4540 C.3       9 GLL5        0.0000 
      6 CA         10.3550  208.9110   24.4940 C.3       6 GLP5        0.0000 
      7 CA          6.9925  209.8585   21.3280 C.3       3 GLC5        0.0000 
      8 CA          5.0350  209.7620   22.2020 C.3       6 GLP5        0.0000 
      9 CA          9.3535  210.6720   15.1215 C.3       3 GLC5        0.0000 
     10 CA          9.9950  211.3750   17.1190 C.3       9 GLL5        0.0000 
     11 CA          8.7120  209.9690   13.1240 C.3       6 GLP5        0.0000 
     12 N          10.6475  207.5045   15.5035 N.am      2 SEC2        0.0000 
     13 N          10.4270  208.8870   15.8110 N.am      8 SEL2        0.0000 
     14 N          10.8680  206.1220   15.1960 N.am      5 SEP2        0.0000 
     15 O          12.8570  207.8060   15.3095 O.2       1 ALC1        0.0000 
     16 O          12.6930  209.0600   15.9200 O.2       7 ALL1        0.0000 
     17 O          13.0210  206.5520   14.6990 O.2       4 ALP1        0.0000 
     18 N          15.0265  207.5160   16.5535 N.am      2 SEC2        0.0000 
     19 N          14.9400  209.2030   16.1360 N.am      8 SEL2        0.0000 
     20 N          15.1130  205.8290   16.9710 N.am      5 SEP2        0.0000 
     21 N          15.8375  208.2985   16.7655 N.am      2 SEC2        0.0000 
     22 N          16.7350  207.3940   17.3950 N.am      5 SEP2        0.0000 
     23 CA         14.7140  209.6035   24.4315 C.3       3 GLC5        0.0000 
     24 CA         14.2150  211.6740   23.8160 C.3       9 GLL5        0.0000 
     25 CA         15.2130  207.5330   25.0470 C.3       6 GLP5        0.0000 
     26 CA         18.5605  212.5225   23.7985 C.3       3 GLC5        0.0000 
     27 CA         17.3880  212.4910   25.7160 C.3       9 GLL5        0.0000 
     28 CA         19.7330  212.5540   21.8810 C.3       6 GLP5        0.0000 
     29 CA         15.7780  209.8405   25.8570 C.3       3 GLC5        0.0000 
     30 CA         16.2680  211.7520   25.1840 C.3       9 GLL5        0.0000 
     31 CA         15.2880  207.9290   26.5300 C.3       6 GLP5        0.0000 
     32 N          11.4865  213.8615   18.3155 N.am      2 SEC2        0.0000 
     33 N          12.3080  212.7200   17.9140 N.am      8 SEL2        0.0000 
     34 N          10.6650  215.0030   18.7170 N.am      5 SEP2        0.0000 
     35 CA         10.3570  208.4663   19.4977 C.3       3 GLC5        0.0000 
     36 CA          9.0220  210.0500   18.9290 C.3       9 GLL5        0.0000 
     37 CA         11.7280  206.9300   19.3040 C.3       6 GLP5        0.0000 
     38 CA          8.3660  208.3168   18.8518 C.3       3 GLC5        0.0000 
     39 CA          7.7460  206.6310   18.0120 C.3       6 GLP5        0.0000 
     40 CA         12.8057  212.6473   15.7435 C.3       3 GLC5        0.0000 
     41 CA         12.4530  211.5190   17.2900 C.3       9 GLL5        0.0000 
     42 CA         12.5020  214.0320   14.3080 C.3       6 GLP5        0.0000 
     43 CA         12.9333  209.5617   18.3160 C.3       3 GLC5        0.0000 
     44 CA         12.7570  207.8610   19.4530 C.3       6 GLP5        0.0000 
     45 CA         15.0413  211.7203   15.4440 C.3       3 GLC5        0.0000 
     46 CA         13.7660  211.0060   17.0680 C.3       9 GLL5        0.0000 
     47 CA         15.6720  212.0790   13.5510 C.3       6 GLP5        0.0000 
     48 CA         17.3983  212.0318   20.1235 C.3       3 GLC5        0.0000 
     49 CA         16.8210  210.3830   19.0030 C.3       9 GLL5        0.0000 
     50 CA         18.5840  213.2940   21.2750 C.3       6 GLP5        0.0000 
     51 CA         17.3121  211.3574   17.3361 C.3       3 GLC5        0.0000 
     52 CA         18.5490  211.8050   16.0340 C.3       6 GLP5        0.0000 
     53 CA         17.7375  211.5973   21.0545 C.3       3 GLC5        0.0000 
     54 CA         17.2770  209.7970   20.2390 C.3       9 GLL5        0.0000 
     55 CA         15.0776  213.2291   19.2581 C.3       3 GLC5        0.0000 
     56 CA         14.8390  211.3660   20.1410 C.3       9 GLL5        0.0000 
     57 CA         15.0710  215.0570   19.3090 C.3       6 GLP5        0.0000 
     58 CA         16.8227  212.1827   21.0215 C.3       3 GLC5        0.0000 
     59 CA         15.5590  215.9565   23.5877 C.3       3 GLC5        0.0000 
     60 CA         16.5680  214.5620   24.5330 C.3       9 GLL5        0.0000 
     61 CA         15.1090  217.7220   22.9080 C.3       6 GLP5        0.0000 
     62 CA         17.6773  213.6675   23.0511 C.3       3 GLC5        0.0000 
     63 CA         15.4500  213.8200   24.0020 C.3       9 GLL5        0.0000 
@<TRIPOS>BOND
@<TRIPOS>SUBSTRUCTURE
     1 ALC1       15 GROUP        1 X    ALC  0     ROOT ALC X 1
     2 SEC2        1 GROUP        1 X    SEC  0     **** SEC X 2
     3 GLC5        4 GROUP        1 X    GLC  0     **** GLC X 6
     4 ALP1       17 GROUP        1 Y    ALP  0     ROOT ALP Y 8
     5 SEP2        3 GROUP        1 Y    SEP  0     **** SEP Y 9
     6 GLP5        6 GROUP        1 Y    GLP  0     **** GLP Y 13
     7 ALL1       16 GROUP        1 Z    ALL  0     ROOT ALL Z 15
     8 SEL2        2 GROUP        1 Z    SEL  0     **** SEL Z 16
     9 GLL5        5 GROUP        1 Z    GLL  0     **** GLL Z 20
@<TRIPOS>SET

