#    Name: 1u1g_BBB_4_ligand
#    Modification time : Tue Mar 25 05:59:18 2014

@<TRIPOS>MOLECULE
1u1g_BBB_4_ligand
   51    53     1     0     0
SMALL
NO_CHARGES


@<TRIPOS>ATOM
      1 OAC        10.2150  210.2530   21.0460 O.3       1 BBB6300     0.0000 
      2 CAN         8.9500  209.9550   20.4540 C.3       1 BBB6300     0.0000 
      3 CAO         9.0220  210.0500   18.9290 C.3       1 BBB6300     0.0000 
      4 OAT         9.5000  211.3440   18.4720 O.3       1 BBB6300     0.0000 
      5 CAR         9.9950  211.3750   17.1190 C.3       1 BBB6300     0.0000 
      6 NBC        11.2660  210.8220   16.8500 N.am      1 BBB6300     0.0000 
      7 CBB        11.3930  209.5720   16.1610 C.2       1 BBB6300     0.0000 
      8 OAB        10.4270  208.8870   15.8110 O.2       1 BBB6300     0.0000 
      9 NAS        12.6930  209.0600   15.9200 N.am      1 BBB6300     0.0000 
     10 CBA        13.8530  209.7550   16.3640 C.2       1 BBB6300     0.0000 
     11 OAA        14.9400  209.2030   16.1360 O.2       1 BBB6300     0.0000 
     12 CAY        12.4530  211.5190   17.2900 C.2       1 BBB6300     0.0000 
     13 CAZ        13.7660  211.0060   17.0680 C.2       1 BBB6300     0.0000 
     14 CAQ        15.0550  211.7170   17.6060 C.3       1 BBB6300     0.0000 
     15 CAW        15.6040  211.1560   18.9410 C.ar      1 BBB6300     0.0000 
     16 CAK        16.8210  210.3830   19.0030 C.ar      1 BBB6300     0.0000 
     17 CAH        17.2770  209.7970   20.2390 C.ar      1 BBB6300     0.0000 
     18 CAL        16.5050  210.0040   21.4290 C.ar      1 BBB6300     0.0000 
     19 CAM        14.8390  211.3660   20.1410 C.ar      1 BBB6300     0.0000 
     20 CAX        15.2840  210.7770   21.3950 C.ar      1 BBB6300     0.0000 
     21 OAU        14.5200  210.9080   22.5420 O.3       1 BBB6300     0.0000 
     22 CAP        14.2150  211.6740   23.8160 C.3       1 BBB6300     0.0000 
     23 CAV        15.3020  212.4150   24.3300 C.ar      1 BBB6300     0.0000 
     24 CAJ        15.4500  213.8200   24.0020 C.ar      1 BBB6300     0.0000 
     25 CAG        16.5680  214.5620   24.5330 C.ar      1 BBB6300     0.0000 
     26 CAE        17.5320  213.8910   25.3870 C.ar      1 BBB6300     0.0000 
     27 CAF        17.3880  212.4910   25.7160 C.ar      1 BBB6300     0.0000 
     28 CAI        16.2680  211.7520   25.1840 C.ar      1 BBB6300     0.0000 
     29 OAD        12.3080  212.7200   17.9140 O.3       1 BBB6300     0.0000 
     30 H           8.1679  210.6517   20.7941 H         1 BBB6300     0.0000 
     31 H           8.6117  208.9383   20.7083 H         1 BBB6300     0.0000 
     32 H           8.0138  209.8394   18.5292 H         1 BBB6300     0.0000 
     33 H           9.6803  209.2384   18.5704 H         1 BBB6300     0.0000 
     34 H           9.9654  212.4590   16.7500 H         1 BBB6300     0.0000 
     35 H           9.2145  210.8843   16.4392 H         1 BBB6300     0.0000 
     36 H          12.8021  208.1719   15.4162 H         1 BBB6300     0.0000 
     37 H          14.8300  212.7869   17.7335 H         1 BBB6300     0.0000 
     38 H          15.8380  211.6384   16.8364 H         1 BBB6300     0.0000 
     39 H          17.3708  210.2484   18.1529 H         1 BBB6300     0.0000 
     40 H          18.1214  209.2538   20.2619 H         1 BBB6300     0.0000 
     41 H          16.8162  209.6037   22.3118 H         1 BBB6300     0.0000 
     42 H          13.9959  211.9185   20.1209 H         1 BBB6300     0.0000 
     43 H          13.8366  210.9330   24.5651 H         1 BBB6300     0.0000 
     44 H          13.3364  212.3343   23.6028 H         1 BBB6300     0.0000 
     45 H          14.7752  214.2719   23.4072 H         1 BBB6300     0.0000 
     46 H          16.6824  215.5375   24.3155 H         1 BBB6300     0.0000 
     47 H          18.3190  214.4165   25.7576 H         1 BBB6300     0.0000 
     48 H          18.0611  212.0375   26.3091 H         1 BBB6300     0.0000 
     49 H          16.1548  210.7734   25.4049 H         1 BBB6300     0.0000 
     50 H          10.0059  210.8649   21.8088 H         1 BBB6300     0.0000 
     51 H          13.0395  212.7475   18.5954 H         1 BBB6300     0.0000 
@<TRIPOS>BOND
     1    2    1 1    
     2   50    1 1    
     3    3    2 1    
     4   30    2 1    
     5   31    2 1    
     6    4    3 1    
     7   32    3 1    
     8   33    3 1    
     9    5    4 1    
    10    6    5 1    
    11   34    5 1    
    12   35    5 1    
    13    7    6 1    
    14   12    6 1    
    15    8    7 2    
    16    9    7 1    
    17   10    9 1    
    18   36    9 1    
    19   11   10 2    
    20   13   10 1    
    21   13   12 2    
    22   29   12 1    
    23   14   13 1    
    24   15   14 1    
    25   37   14 1    
    26   38   14 1    
    27   16   15 ar   
    28   19   15 ar   
    29   17   16 ar   
    30   39   16 1    
    31   18   17 ar   
    32   40   17 1    
    33   20   18 ar   
    34   41   18 1    
    35   20   19 ar   
    36   42   19 1    
    37   21   20 1    
    38   22   21 1    
    39   23   22 1    
    40   43   22 1    
    41   44   22 1    
    42   24   23 ar   
    43   28   23 ar   
    44   25   24 ar   
    45   45   24 1    
    46   26   25 ar   
    47   46   25 1    
    48   27   26 ar   
    49   47   26 1    
    50   28   27 ar   
    51   48   27 1    
    52   49   28 1    
    53   51   29 1    
@<TRIPOS>SUBSTRUCTURE
     1 BBB6300     1 GROUP   
@<TRIPOS>SET

