#    Name: 4JC5_1_CAVITY_N1_6.mol2
#    Modification time : Tue Mar 11 07:44:26 2014

@<TRIPOS>MOLECULE
4JC5_1_CAVITY_N1_6.mol2
   82     0     5     0     0
SMALL
NO_CHARGES


@<TRIPOS>ATOM
      1 CA        -38.7992   -0.5398   21.1289 C.3       4 GLY6        0.0000 
      2 O         -38.0244   -1.8216   21.2111 O.2       2 ALA2        0.0000 
      3 N         -39.6625   -1.1306   20.0540 N.2       2 ALA2        0.0000 
      4 CA        -38.8877   -2.4124   20.1361 C.3       4 GLY6        0.0000 
      5 CA        -37.8482   -0.0318   20.0860 C.3       4 GLY6        0.0000 
      6 CA        -37.0734   -1.3136   20.1682 C.3       4 GLY6        0.0000 
      7 OG        -39.4864    0.6591   18.9289 O.2       1 SER1        0.0000 
      8 CA        -38.7116   -0.6226   19.0110 C.3       4 GLY6        0.0000 
      9 CA        -37.9367   -1.9044   19.0932 C.3       4 GLY6        0.0000 
     10 OG        -40.3497    0.0683   17.8539 O.2       1 SER1        0.0000 
     11 OG        -39.5749   -1.2135   17.9361 O.2       1 SER1        0.0000 
     12 CA        -41.9879    0.7592   16.6967 C.3       4 GLY6        0.0000 
     13 CA        -41.2131   -0.5225   16.7789 C.3       4 GLY6        0.0000 
     14 CA        -36.1225   -0.8056   19.1253 C.3       4 GLY6        0.0000 
     15 CA        -37.7606   -0.1147   17.9681 C.3       4 GLY6        0.0000 
     16 CA        -36.9858   -1.3964   18.0503 C.3       4 GLY6        0.0000 
     17 CA        -40.1736    1.8580   16.7288 C.3       4 GLY6        0.0000 
     18 CA        -39.3988    0.5763   16.8110 C.3       4 GLY6        0.0000 
     19 OG        -38.6239   -0.7055   16.8932 O.2       1 SER1        0.0000 
     20 CA        -41.0369    1.2672   15.6538 C.3       4 GLY6        0.0000 
     21 CA        -40.2621   -0.0145   15.7360 C.3       4 GLY6        0.0000 
     22 OG        -39.4873   -1.2963   15.8182 O.2       1 SER1        0.0000 
     23 CA        -41.1254   -0.6054   14.6610 C.3       4 GLY6        0.0000 
     24 CA        -36.8097    0.3933   16.9252 C.3       4 GLY6        0.0000 
     25 N         -36.0348   -0.8884   17.0074 N.2       2 ALA2        0.0000 
     26 CA        -39.2227    2.3660   15.6859 C.3       4 GLY6        0.0000 
     27 CA        -38.4478    1.0843   15.7681 C.3       4 GLY6        0.0000 
     28 DU        -37.6730   -0.1975   15.8503 H         5 CUB7        0.0000 
     29 OG        -36.8982   -1.4792   15.9324 O.2       1 SER1        0.0000 
     30 O         -36.1233   -2.7610   16.0146 O.2       2 ALA2        0.0000 
     31 OG        -40.0860    1.7752   14.6109 O.2       1 SER1        0.0000 
     32 OG        -39.3112    0.4934   14.6931 O.2       1 SER1        0.0000 
     33 OG        -38.5363   -0.7883   14.7753 O.2       1 SER1        0.0000 
     34 OG        -37.7615   -2.0701   14.8575 O.2       1 SER1        0.0000 
     35 OG        -36.9867   -3.3518   14.9396 O.2       1 SER1        0.0000 
     36 CA        -40.1745   -0.0974   13.6181 C.3       4 GLY6        0.0000 
     37 CZ        -39.3997   -1.3791   13.7003 C.ar      3 PHE5        0.0000 
     38 CZ        -38.6248   -2.6609   13.7825 C.ar      3 PHE5        0.0000 
     39 N         -37.4084    3.4648   15.7180 N.2       2 ALA2        0.0000 
     40 CA        -36.6336    2.1831   15.8001 C.3       4 GLY6        0.0000 
     41 N         -35.8587    0.9013   15.8823 N.2       2 ALA2        0.0000 
     42 N         -38.2717    2.8740   14.6430 N.2       2 ALA2        0.0000 
     43 DU        -37.4969    1.5922   14.7252 H         5 CUB7        0.0000 
     44 DU        -36.7221    0.3105   14.8073 H         5 CUB7        0.0000 
     45 O         -35.9472   -0.9712   14.8895 O.2       2 ALA2        0.0000 
     46 OG        -39.1350    2.2832   13.5680 O.2       1 SER1        0.0000 
     47 OG        -38.3602    1.0014   13.6502 O.2       1 SER1        0.0000 
     48 N         -37.5854   -0.2803   13.7324 N.2       2 ALA2        0.0000 
     49 CA        -36.8105   -1.5621   13.8145 C.3       4 GLY6        0.0000 
     50 CZ        -36.0357   -2.8438   13.8967 C.ar      3 PHE5        0.0000 
     51 N         -39.2235    0.4106   12.5752 N.2       2 ALA2        0.0000 
     52 CA        -38.4487   -0.8711   12.6574 C.3       4 GLY6        0.0000 
     53 CZ        -37.2323    5.2546   14.5929 C.ar      3 PHE5        0.0000 
     54 CZ        -36.4574    3.9728   14.6751 C.ar      3 PHE5        0.0000 
     55 CA        -35.6826    2.6911   14.7572 C.3       4 GLY6        0.0000 
     56 N         -34.9078    1.4093   14.8394 N.2       2 ALA2        0.0000 
     57 N         -34.1329    0.1276   14.9216 N.2       2 ALA2        0.0000 
     58 CA        -38.0956    4.6637   13.5179 C.3       4 GLY6        0.0000 
     59 DU        -37.3208    3.3820   13.6001 H         5 CUB7        0.0000 
     60 DU        -36.5459    2.1002   13.6823 H         5 CUB7        0.0000 
     61 N         -35.7711    0.8185   13.7644 N.2       2 ALA2        0.0000 
     62 N         -34.9963   -0.4633   13.8466 N.2       2 ALA2        0.0000 
     63 O         -34.2214   -1.7450   13.9288 O.2       2 ALA2        0.0000 
     64 OG        -38.9589    4.0729   12.4429 O.2       1 SER1        0.0000 
     65 OG        -38.1841    2.7912   12.5251 O.2       1 SER1        0.0000 
     66 CA        -37.4093    1.5094   12.6073 C.3       4 GLY6        0.0000 
     67 N         -36.6344    0.2277   12.6895 N.2       2 ALA2        0.0000 
     68 N         -35.8596   -1.0541   12.7716 N.2       2 ALA2        0.0000 
     69 OG        -35.5065    4.4808   13.6322 O.2       1 SER1        0.0000 
     70 OG        -34.7317    3.1990   13.7143 O.2       1 SER1        0.0000 
     71 O         -33.9568    1.9173   13.7965 O.2       2 ALA2        0.0000 
     72 OG        -36.3698    3.8900   12.5572 O.2       1 SER1        0.0000 
     73 OG        -35.5950    2.6082   12.6394 O.2       1 SER1        0.0000 
     74 N         -34.8202    1.3265   12.7215 N.2       2 ALA2        0.0000 
     75 N         -34.0453    0.0447   12.8037 N.2       2 ALA2        0.0000 
     76 OG        -38.0080    4.5809   11.4000 O.2       1 SER1        0.0000 
     77 CA        -37.2332    3.2992   11.4822 C.3       4 GLY6        0.0000 
     78 CA        -36.4583    2.0174   11.5644 C.3       4 GLY6        0.0000 
     79 OG        -34.6440    3.1162   11.5965 O.2       1 SER1        0.0000 
     80 O         -33.8692    1.8345   11.6786 O.2       2 ALA2        0.0000 
     81 OG        -36.2822    3.8071   10.4393 O.2       1 SER1        0.0000 
     82 CA        -35.5074    2.5254   10.5215 C.3       4 GLY6        0.0000 
@<TRIPOS>BOND
@<TRIPOS>SUBSTRUCTURE
     1 SER1        7 GROUP   
     2 ALA2        2 GROUP   
     3 PHE5       37 GROUP   
     4 GLY6        1 GROUP   
     5 CUB7       28 GROUP   
@<TRIPOS>SET

