#    Name: 4jc5_1K5_1_INTS_M
#    Modification time : Tue Mar 25 05:44:55 2014

@<TRIPOS>MOLECULE
4jc5_1K5_1_INTS_M
   51     0     9     0     0
SMALL
NO_CHARGES


@<TRIPOS>ATOM
      1 CA        -37.7005    0.9160   17.4375 C.3       3 GLC5        0.0000 
      2 CA        -38.8340   -0.1380   15.8330 C.3       9 GLL5        0.0000 
      3 CA        -36.5670    1.9700   19.0420 C.3       6 GLP5        0.0000 
      4 CA        -41.2460    0.5340   20.2450 C.3       3 GLC5        0.0000 
      5 CA        -39.4610   -0.6650   19.8600 C.3       9 GLL5        0.0000 
      6 CA        -43.0310    1.7330   20.6300 C.3       6 GLP5        0.0000 
      7 N         -41.4355    0.9975   19.3540 N.am      1 SEC2        0.0000 
      8 N         -41.2610    0.2680   18.2690 N.am      7 SEL2        0.0000 
      9 N         -41.6100    1.7270   20.4390 N.am      4 SEP2        0.0000 
     10 CA        -36.5060    0.5010   17.4695 C.3       3 GLC5        0.0000 
     11 CA        -36.4450   -0.9680   15.8970 C.3       9 GLL5        0.0000 
     12 N         -38.3935   -3.4490   16.2555 N.am      1 SEC2        0.0000 
     13 N         -37.2890   -3.1720   15.8170 N.am      7 SEL2        0.0000 
     14 N         -39.4980   -3.7260   16.6940 N.am      4 SEP2        0.0000 
     15 NZ        -34.4385   -3.2605   15.1405 N.4       2 LYC4        0.0000 
     16 NZ        -35.4940   -2.7450   14.6090 N.4       8 LYL4        0.0000 
     17 NZ        -33.0040   -5.0500   15.5360 N.4       5 LYP4        0.0000 
     18 N         -34.4385   -3.2605   15.1405 N.am      1 SEC2        0.0000 
     19 N         -35.4940   -2.7450   14.6090 N.am      7 SEL2        0.0000 
     20 N         -33.3830   -3.7760   15.6720 N.am      4 SEP2        0.0000 
     21 CA        -41.3480    2.0533   12.7607 C.3       3 GLC5        0.0000 
     22 CA        -39.8560    0.6060   13.7640 C.3       9 GLL5        0.0000 
     23 CA        -42.2510    3.3590   11.4210 C.3       6 GLP5        0.0000 
     24 CA        -41.0600   -0.1577   12.6292 C.3       3 GLC5        0.0000 
     25 CA        -41.0340    0.8890   14.4370 C.3       9 GLL5        0.0000 
     26 CA        -41.6750   -1.0630   11.1580 C.3       6 GLP5        0.0000 
     27 CA        -38.2665   -2.7903   18.7583 C.3       3 GLC5        0.0000 
     28 CA        -37.0090   -1.3360   18.7850 C.3       9 GLL5        0.0000 
     29 CA        -39.3990   -4.1620   18.0510 C.3       6 GLP5        0.0000 
     30 CA        -36.8505    0.2757   19.2538 C.3       3 GLC5        0.0000 
     31 CA        -39.1855   -2.5400   19.1640 C.3       3 GLC5        0.0000 
     32 CA        -38.4830   -1.1710   20.6940 C.3       9 GLL5        0.0000 
     33 CA        -40.0775   -1.6470   21.7395 C.3       3 GLC5        0.0000 
     34 CA        -41.1830   -2.3760   23.2020 C.3       6 GLP5        0.0000 
     35 CA        -39.0440    0.3965   21.7180 C.3       3 GLC5        0.0000 
     36 CA        -39.1160    1.7110   23.1590 C.3       6 GLP5        0.0000 
     37 CA        -37.7695    0.5260   19.6595 C.3       3 GLC5        0.0000 
     38 CA        -41.3585   -1.2588   18.6602 C.3       3 GLC5        0.0000 
     39 CA        -43.3800   -1.9340   18.1390 C.3       6 GLP5        0.0000 
     40 CA        -38.9997   -2.4145   18.1320 C.3       3 GLC5        0.0000 
     41 CA        -39.2130   -0.5020   18.5030 C.3       9 GLL5        0.0000 
     42 CA        -37.5838    0.6515   18.6275 C.3       3 GLC5        0.0000 
     43 CA        -37.9880   -0.8320   17.9230 C.3       9 GLL5        0.0000 
     44 CA        -36.2665   -2.4531   19.0641 C.3       3 GLC5        0.0000 
     45 CA        -34.9720   -3.7810   19.4340 C.3       6 GLP5        0.0000 
     46 CA        -41.9334   -0.8986   15.8021 C.3       3 GLC5        0.0000 
     47 CA        -40.0340    0.1610   16.4800 C.3       9 GLL5        0.0000 
     48 CA        -43.3100   -2.2680   15.8050 C.3       6 GLP5        0.0000 
     49 CA        -41.0604    2.2614   16.3501 C.3       3 GLC5        0.0000 
     50 CA        -41.1250    0.6720   15.8000 C.3       9 GLL5        0.0000 
     51 CA        -41.5640    4.0520   16.9010 C.3       6 GLP5        0.0000 
@<TRIPOS>BOND
@<TRIPOS>SUBSTRUCTURE
     1 SEC2        7 GROUP        1 X    SEC  0     ROOT SEC X 2
     2 LYC4       15 GROUP        1 X    LYC  0     **** LYC X 4
     3 GLC5        1 GROUP        1 X    GLC  0     **** GLC X 6
     4 SEP2        9 GROUP        1 Y    SEP  0     ROOT SEP Y 9
     5 LYP4       17 GROUP        1 Y    LYP  0     **** LYP Y 11
     6 GLP5        3 GROUP        1 Y    GLP  0     **** GLP Y 13
     7 SEL2        8 GROUP        1 Z    SEL  0     ROOT SEL Z 16
     8 LYL4       16 GROUP        1 Z    LYL  0     **** LYL Z 18
     9 GLL5        2 GROUP        1 Z    GLL  0     **** GLL Z 20
@<TRIPOS>SET

