#    Name: 4jc5_1K5_1_ligand
#    Modification time : Tue Mar 25 05:44:56 2014

@<TRIPOS>MOLECULE
4jc5_1K5_1_ligand
   29    31     1     0     0
SMALL
NO_CHARGES


@<TRIPOS>ATOM
      1 C10       -38.8340   -0.1380   15.8330 C.ar      1 1K5401      0.0000 
      2 C13       -41.0340    0.8890   14.4370 C.ar      1 1K5401      0.0000 
      3 C01       -37.0090   -1.3360   18.7850 C.ar      1 1K5401      0.0000 
      4 C02       -37.2590   -1.5010   20.1460 C.ar      1 1K5401      0.0000 
      5 C03       -38.4830   -1.1710   20.6940 C.ar      1 1K5401      0.0000 
      6 C04       -39.4610   -0.6650   19.8600 C.ar      1 1K5401      0.0000 
      7 C05       -39.2130   -0.5020   18.5030 C.ar      1 1K5401      0.0000 
      8 C06       -37.9880   -0.8320   17.9230 C.ar      1 1K5401      0.0000 
      9 N07       -37.7120   -0.6720   16.5270 N.pl3     1 1K5401      0.0000 
     10 C08       -40.1930   -0.0230   17.7670 C.2       1 1K5401      0.0000 
     11 C09       -40.0340    0.1610   16.4800 C.ar      1 1K5401      0.0000 
     12 C11       -38.7600    0.0930   14.4480 C.ar      1 1K5401      0.0000 
     13 C12       -41.1250    0.6720   15.8000 C.ar      1 1K5401      0.0000 
     14 C14       -39.8560    0.6060   13.7640 C.ar      1 1K5401      0.0000 
     15 O15       -41.2610    0.2680   18.2690 O.2       1 1K5401      0.0000 
     16 C16       -36.4450   -0.9680   15.8970 C.3       1 1K5401      0.0000 
     17 O17       -37.2890   -3.1720   15.8170 O.co2     1 1K5401      0.0000 
     18 O18       -35.4940   -2.7450   14.6090 O.co2     1 1K5401      0.0000 
     19 C19       -36.4050   -2.3680   15.4110 C.2       1 1K5401      0.0000 
     20 H         -41.8441    1.2623   13.9191 H         1 1K5401      0.0000 
     21 H         -36.0811   -1.5909   18.4026 H         1 1K5401      0.0000 
     22 H         -36.5081   -1.8792   20.7544 H         1 1K5401      0.0000 
     23 H         -38.6607   -1.2978   21.6906 H         1 1K5401      0.0000 
     24 H         -40.3839   -0.4051   20.2446 H         1 1K5401      0.0000 
     25 H         -37.8892   -0.1205   13.9460 H         1 1K5401      0.0000 
     26 H         -41.9936    0.8880   16.3022 H         1 1K5401      0.0000 
     27 H         -39.7902    0.7766   12.7481 H         1 1K5401      0.0000 
     28 H         -35.6145   -0.8105   16.6073 H         1 1K5401      0.0000 
     29 H         -36.2686   -0.2871   15.0459 H         1 1K5401      0.0000 
@<TRIPOS>BOND
     1    9    1 1    
     2   11    1 ar   
     3   12    1 ar   
     4   13    2 ar   
     5   14    2 ar   
     6   20    2 1    
     7    4    3 ar   
     8    8    3 ar   
     9   21    3 1    
    10    5    4 ar   
    11   22    4 1    
    12    6    5 ar   
    13   23    5 1    
    14    7    6 ar   
    15   24    6 1    
    16    8    7 ar   
    17   10    7 1    
    18    9    8 1    
    19   16    9 1    
    20   11   10 1    
    21   15   10 2    
    22   13   11 ar   
    23   14   12 ar   
    24   25   12 1    
    25   26   13 1    
    26   27   14 1    
    27   19   16 1    
    28   28   16 1    
    29   29   16 1    
    30   19   17 ar   
    31   19   18 ar   
@<TRIPOS>SUBSTRUCTURE
     1 1K5401      1 GROUP   
@<TRIPOS>SET

