#    Name: 3tpt_ADP_1_INTS_M
#    Modification time : Mon Mar 24 20:47:41 2014

@<TRIPOS>MOLECULE
3tpt_ADP_1_INTS_M
   60     0    15     0     0
SMALL
NO_CHARGES


@<TRIPOS>ATOM
      1 NZ          0.5695    5.3200   15.9745 N.4       3 LYC4        0.0000 
      2 NZ         -0.6340    5.7070   15.8420 N.4      13 LYL4        0.0000 
      3 NZ          1.7730    4.9330   16.1070 N.4       8 LYP4        0.0000 
      4 N          -0.2750    6.6490   14.7015 N.am      2 SEC2        0.0000 
      5 N          -0.6340    5.7070   15.8420 N.am     12 SEL2        0.0000 
      6 N           0.0840    7.5910   13.5610 N.am      7 SEP2        0.0000 
      7 N           0.5695    5.3200   15.9745 N.am      2 SEC2        0.0000 
      8 N           1.7730    4.9330   16.1070 N.am      7 SEP2        0.0000 
      9 NZ         -2.6355    6.9310   18.7905 N.4       3 LYC4        0.0000 
     10 NZ         -2.6600    6.6930   17.3110 N.4      13 LYL4        0.0000 
     11 NZ         -2.6110    7.1690   20.2700 N.4       8 LYP4        0.0000 
     12 N          -2.6355    6.9310   18.7905 N.am      2 SEC2        0.0000 
     13 N          -2.6600    6.6930   17.3110 N.am     12 SEL2        0.0000 
     14 N          -2.6110    7.1690   20.2700 N.am      7 SEP2        0.0000 
     15 NZ         -2.6090    5.8405   20.0395 N.4       3 LYC4        0.0000 
     16 NZ         -2.6070    4.5120   19.8090 N.4      13 LYL4        0.0000 
     17 Zn         -3.8150    2.5595   16.7260 Zn        4 ZIC7        0.0000 
     18 Zn         -3.4190    3.0770   17.8980 Zn       14 ZIL7        0.0000 
     19 Zn         -4.2110    2.0420   15.5540 Zn        9 ZIP7        0.0000 
     20 N          -4.2850    3.9345   17.4340 N.am      2 SEC2        0.0000 
     21 N          -3.4190    3.0770   17.8980 N.am     12 SEL2        0.0000 
     22 N          -5.1510    4.7920   16.9700 N.am      7 SEP2        0.0000 
     23 CA         -0.5560    2.5780   15.8425 C.3       5 GLC5        0.0000 
     24 CA         -0.5120    1.9790   17.8960 C.3      15 GLL5        0.0000 
     25 CA         -0.6000    3.1770   13.7890 C.3      10 GLP5        0.0000 
     26 CA          0.6900    3.4780   17.7420 C.3       5 GLC5        0.0000 
     27 CA          1.8920    4.9770   17.5880 C.3      10 GLP5        0.0000 
     28 CA          0.7215   -1.1575   18.7015 C.3       5 GLC5        0.0000 
     29 CA         -0.6810    0.4840   18.1280 C.3      15 GLL5        0.0000 
     30 CA          2.1240   -2.7990   19.2750 C.3      10 GLP5        0.0000 
     31 CA         -0.0100   -0.1745   16.1680 C.3       5 GLC5        0.0000 
     32 CA          0.6610   -0.8330   14.2080 C.3      10 GLP5        0.0000 
     33 O          -4.1435   -0.9775   16.6350 O.2       1 ALC1        0.0000 
     34 O          -2.6180   -0.5090   16.9170 O.2      11 ALL1        0.0000 
     35 O          -5.6690   -1.4460   16.3530 O.2       6 ALP1        0.0000 
     36 CA          0.5375    1.2300   23.2905 C.3       5 GLC5        0.0000 
     37 CA         -1.5080    0.3860   23.5660 C.3      15 GLL5        0.0000 
     38 CA          2.5830    2.0740   23.0150 C.3      10 GLP5        0.0000 
     39 CA         -0.1220   -0.3420   26.3355 C.3       5 GLC5        0.0000 
     40 CA         -1.4100    0.0070   24.9670 C.3      15 GLL5        0.0000 
     41 CA          1.1660   -0.6910   27.7040 C.3      10 GLP5        0.0000 
     42 O          -1.1890    1.0970   27.1840 O.2       1 ALC1        0.0000 
     43 O          -1.7910    0.8530   25.9410 O.2      11 ALL1        0.0000 
     44 O          -0.5870    1.3410   28.4270 O.2       6 ALP1        0.0000 
     45 N          -0.7255   -1.8305   26.5745 N.am      2 SEC2        0.0000 
     46 N          -0.9080   -1.2590   25.3000 N.am     12 SEL2        0.0000 
     47 N          -0.5430   -2.4020   27.8490 N.am      7 SEP2        0.0000 
     48 CA          0.3260   -1.4155   26.0140 C.3       5 GLC5        0.0000 
     49 CA         -0.5140   -2.1400   24.3240 C.3      15 GLL5        0.0000 
     50 CA         -0.8635   -2.8290   26.4085 C.3       5 GLC5        0.0000 
     51 CA         -1.2130   -3.5180   28.4930 C.3      10 GLP5        0.0000 
     52 CA          0.2500   -3.9855   24.6600 C.3       5 GLC5        0.0000 
     53 CA          1.0140   -5.8310   24.9960 C.3      10 GLP5        0.0000 
     54 CA          1.3207    1.2278   18.1970 C.3       5 GLC5        0.0000 
     55 CA          3.2380    1.2240   18.3820 C.3      10 GLP5        0.0000 
     56 CA         -3.7005   -0.2702   19.2190 C.3       5 GLC5        0.0000 
     57 CA         -2.1160   -0.1230   18.2240 C.3      15 GLL5        0.0000 
     58 CA         -5.3730    0.1380   19.7190 C.3      10 GLP5        0.0000 
     59 CA          0.3593   -1.9115   19.4853 C.3       5 GLC5        0.0000 
     60 CA         -1.9400   -1.2340   19.2140 C.3      15 GLL5        0.0000 
@<TRIPOS>BOND
@<TRIPOS>SUBSTRUCTURE
     1 ALC1       33 GROUP        1 X    ALC  0     ROOT ALC X 1
     2 SEC2        4 GROUP        1 X    SEC  0     **** SEC X 2
     3 LYC4        1 GROUP        1 X    LYC  0     **** LYC X 4
     4 ZIC7       17 GROUP        1 X    ZIC  0     **** ZIC X 5
     5 GLC5       23 GROUP        1 X    GLC  0     **** GLC X 6
     6 ALP1       35 GROUP        1 Y    ALP  0     ROOT ALP Y 8
     7 SEP2        6 GROUP        1 Y    SEP  0     **** SEP Y 9
     8 LYP4        3 GROUP        1 Y    LYP  0     **** LYP Y 11
     9 ZIP7       19 GROUP        1 Y    ZIP  0     **** ZIP Y 12
    10 GLP5       25 GROUP        1 Y    GLP  0     **** GLP Y 13
    11 ALL1       34 GROUP        1 Z    ALL  0     ROOT ALL Z 15
    12 SEL2        5 GROUP        1 Z    SEL  0     **** SEL Z 16
    13 LYL4        2 GROUP        1 Z    LYL  0     **** LYL Z 18
    14 ZIL7       18 GROUP        1 Z    ZIL  0     **** ZIL Z 19
    15 GLL5       24 GROUP        1 Z    GLL  0     **** GLL Z 20
@<TRIPOS>SET

