#    Name: 3tpt_ADP_1_ligand
#    Modification time : Mon Mar 24 20:47:41 2014

@<TRIPOS>MOLECULE
3tpt_ADP_1_ligand
   39    41     1     0     0
SMALL
NO_CHARGES


@<TRIPOS>ATOM
      1 PB         -2.0100    5.8740   16.2930 P.3       1 ADP500      0.0000 
      2 O1B        -0.6340    5.7070   15.8420 O.co2     1 ADP500      0.0000 
      3 O2B        -2.6600    6.6930   17.3110 O.co2     1 ADP500      0.0000 
      4 O3B        -3.0740    4.9300   15.4480 O.co2     1 ADP500      0.0000 
      5 PA         -2.3010    3.7880   18.5410 P.3       1 ADP500      0.0000 
      6 O1A        -2.6070    4.5120   19.8090 O.co2     1 ADP500      0.0000 
      7 O2A        -3.4190    3.0770   17.8980 O.co2     1 ADP500      0.0000 
      8 O3A        -1.6330    4.6940   17.3190 O.3       1 ADP500      0.0000 
      9 O5'        -1.1010    2.8370   18.9000 O.3       1 ADP500      0.0000 
     10 C5'        -0.5120    1.9790   17.8960 C.3       1 ADP500      0.0000 
     11 C4'        -0.6810    0.4840   18.1280 C.3       1 ADP500      0.0000 
     12 O4'        -0.0280    0.0370   19.3730 O.3       1 ADP500      0.0000 
     13 C3'        -2.1160   -0.1230   18.2240 C.3       1 ADP500      0.0000 
     14 O3'        -2.6180   -0.5090   16.9170 O.3       1 ADP500      0.0000 
     15 C2'        -1.9400   -1.2340   19.2140 C.3       1 ADP500      0.0000 
     16 O2'        -1.5350   -2.4550   18.5390 O.3       1 ADP500      0.0000 
     17 C1'        -0.8710   -0.8140   20.1770 C.3       1 ADP500      0.0000 
     18 N9         -1.2390   -0.0600   21.4360 N.pl3     1 ADP500      0.0000 
     19 C8         -1.7660    1.2120   21.6570 C.2       1 ADP500      0.0000 
     20 N7         -1.9470    1.5280   22.9140 N.2       1 ADP500      0.0000 
     21 C5         -1.5080    0.3860   23.5660 C.ar      1 ADP500      0.0000 
     22 C6         -1.4100    0.0070   24.9670 C.ar      1 ADP500      0.0000 
     23 N6         -1.7910    0.8530   25.9410 N.pl3     1 ADP500      0.0000 
     24 N1         -0.9080   -1.2590   25.3000 N.ar      1 ADP500      0.0000 
     25 C2         -0.5140   -2.1400   24.3240 C.ar      1 ADP500      0.0000 
     26 N3         -0.5570   -1.9010   22.9620 N.ar      1 ADP500      0.0000 
     27 C4         -1.0730   -0.6010   22.6600 C.ar      1 ADP500      0.0000 
     28 H           0.5845    2.1830   17.8004 H         1 ADP500      0.0000 
     29 H          -0.9326    2.2125   16.8852 H         1 ADP500      0.0000 
     30 H          -0.1777   -0.0698   17.3007 H         1 ADP500      0.0000 
     31 H          -2.7225    0.6500   18.6863 H         1 ADP500      0.0000 
     32 H          -2.8553   -1.3733   19.7513 H         1 ADP500      0.0000 
     33 H          -0.2776   -1.6960   20.4416 H         1 ADP500      0.0000 
     34 H          -1.9782    1.8133   20.8746 H         1 ADP500      0.0000 
     35 H          -1.3139    0.7612   26.8151 H         1 ADP500      0.0000 
     36 H          -2.5174    1.4982   25.7041 H         1 ADP500      0.0000 
     37 H          -0.1415   -3.0934   24.6388 H         1 ADP500      0.0000 
     38 H          -3.6075   -0.5929   17.0345 H         1 ADP500      0.0000 
     39 H          -1.7271   -2.2916   17.5713 H         1 ADP500      0.0000 
@<TRIPOS>BOND
     1    2    1 ar   
     2    3    1 ar   
     3    4    1 ar   
     4    8    1 1    
     5    6    5 ar   
     6    7    5 ar   
     7    8    5 1    
     8    9    5 1    
     9   10    9 1    
    10   11   10 1    
    11   28   10 1    
    12   29   10 1    
    13   12   11 1    
    14   13   11 1    
    15   30   11 1    
    16   17   12 1    
    17   14   13 1    
    18   15   13 1    
    19   31   13 1    
    20   38   14 1    
    21   16   15 1    
    22   17   15 1    
    23   32   15 1    
    24   39   16 1    
    25   18   17 1    
    26   33   17 1    
    27   19   18 1    
    28   27   18 1    
    29   20   19 2    
    30   34   19 1    
    31   21   20 1    
    32   22   21 ar   
    33   27   21 ar   
    34   23   22 1    
    35   24   22 ar   
    36   35   23 1    
    37   36   23 1    
    38   25   24 ar   
    39   26   25 ar   
    40   37   25 1    
    41   27   26 ar   
@<TRIPOS>SUBSTRUCTURE
     1 ADP500      1 GROUP   
@<TRIPOS>SET

