#    Name: 2fl6_N5T_2_INTS_M
#    Modification time : Tue Mar 25 12:52:39 2014

@<TRIPOS>MOLECULE
2fl6_N5T_2_INTS_M
   67     0     3     0     0
SMALL
NO_CHARGES


@<TRIPOS>ATOM
      1 CA         39.7060   18.3315   52.9335 C.3       1 GLC5        0.0000 
      2 CA         38.4890   16.5080   52.5290 C.3       3 GLL5        0.0000 
      3 CA         40.9230   20.1550   53.3380 C.3       2 GLP5        0.0000 
      4 CA         35.2795   13.0125   52.6730 C.3       1 GLC5        0.0000 
      5 CA         36.2650   14.5540   52.3900 C.3       3 GLL5        0.0000 
      6 CA         34.2940   11.4710   52.9560 C.3       2 GLP5        0.0000 
      7 CA         35.1310   16.7880   54.7570 C.3       1 GLC5        0.0000 
      8 CA         36.2580   15.6100   53.3420 C.3       3 GLL5        0.0000 
      9 CA         34.0040   17.9660   56.1720 C.3       2 GLP5        0.0000 
     10 CA         39.8790   12.8450   51.4080 C.3       1 GLC5        0.0000 
     11 CA         40.3680   14.1700   50.1360 C.3       3 GLL5        0.0000 
     12 CA         39.3900   11.5200   52.6800 C.3       2 GLP5        0.0000 
     13 CA         39.4080   12.7520   47.2240 C.3       1 GLC5        0.0000 
     14 CA         41.0940   14.1830   47.6280 C.3       3 GLL5        0.0000 
     15 CA         37.7220   11.3210   46.8200 C.3       2 GLP5        0.0000 
     16 CA         43.6370   12.4830   48.1395 C.3       1 GLC5        0.0000 
     17 CA         42.0580   13.1910   47.1500 C.3       3 GLL5        0.0000 
     18 CA         45.2160   11.7750   49.1290 C.3       2 GLP5        0.0000 
     19 CA         42.9650   12.1485   43.8835 C.3       1 GLC5        0.0000 
     20 CA         42.0130   12.7870   45.7550 C.3       3 GLL5        0.0000 
     21 CA         43.9170   11.5100   42.0120 C.3       2 GLP5        0.0000 
     22 CA         40.7540   11.5365   44.6910 C.3       1 GLC5        0.0000 
     23 CA         41.0000   13.3890   44.8970 C.3       3 GLL5        0.0000 
     24 CA         40.5080    9.6840   44.4850 C.3       2 GLP5        0.0000 
     25 CA         38.0295   15.3015   47.3010 C.3       1 GLC5        0.0000 
     26 CA         40.0150   14.6930   46.7770 C.3       3 GLL5        0.0000 
     27 CA         36.0440   15.9100   47.8250 C.3       2 GLP5        0.0000 
     28 CA         45.0190   16.9425   47.7500 C.3       1 GLC5        0.0000 
     29 CA         44.5200   18.0300   49.1610 C.3       3 GLL5        0.0000 
     30 CA         45.5180   15.8550   46.3390 C.3       2 GLP5        0.0000 
     31 CA         44.7020   13.6270   49.3810 C.3       1 GLC5        0.0000 
     32 CA         44.1880   15.4790   49.6330 C.3       3 GLL5        0.0000 
     33 CA         44.8530   15.6670   47.9860 C.3       1 GLC5        0.0000 
     34 CA         38.4285   12.5165   51.6695 C.3       1 GLC5        0.0000 
     35 CA         37.4670   13.5130   50.6590 C.3       3 GLL5        0.0000 
     36 CA         35.9295   12.3995   50.5210 C.3       1 GLC5        0.0000 
     37 CA         34.3920   11.2860   50.3830 C.3       2 GLP5        0.0000 
     38 CA         37.1540   12.3995   49.3430 C.3       1 GLC5        0.0000 
     39 CA         36.8410   11.2860   48.0270 C.3       2 GLP5        0.0000 
     40 CA         36.7555   14.7115   49.2420 C.3       1 GLC5        0.0000 
     41 CA         35.6490   17.7505   55.1965 C.3       1 GLC5        0.0000 
     42 CA         37.2940   17.5350   54.2210 C.3       3 GLL5        0.0000 
     43 CA         36.8355   19.4685   54.3395 C.3       1 GLC5        0.0000 
     44 CA         36.3770   21.4020   54.4580 C.3       2 GLP5        0.0000 
     45 CA         38.6865   19.0355   54.3880 C.3       1 GLC5        0.0000 
     46 CA         40.0790   20.5360   54.5550 C.3       2 GLP5        0.0000 
     47 CA         37.5635   16.9868   50.5675 C.3       1 GLC5        0.0000 
     48 CA         36.6180   18.0060   49.0750 C.3       2 GLP5        0.0000 
     49 CA         39.2515   13.4533   51.9073 C.3       1 GLC5        0.0000 
     50 CA         38.5290   15.4270   51.5910 C.3       3 GLL5        0.0000 
     51 CA         37.4637   13.4410   53.2211 C.3       1 GLC5        0.0000 
     52 CA         37.4170   14.4940   51.5510 C.3       3 GLL5        0.0000 
     53 CA         38.3780   11.8150   53.7860 C.3       2 GLP5        0.0000 
     54 CA         35.5352   15.8925   51.1446 C.3       1 GLC5        0.0000 
     55 CA         34.5210   16.7180   49.6330 C.3       2 GLP5        0.0000 
     56 CA         38.3120   16.9860   49.7378 C.3       1 GLC5        0.0000 
     57 CA         39.6970   15.3460   50.6780 C.3       3 GLL5        0.0000 
     58 CA         42.9565   14.5125   46.4595 C.3       1 GLC5        0.0000 
     59 CA         44.3370   15.3380   45.5300 C.3       2 GLP5        0.0000 
     60 CA         41.6822   11.1290   46.0703 C.3       1 GLC5        0.0000 
     61 CA         41.3290    9.2690   45.6880 C.3       2 GLP5        0.0000 
     62 CA         42.9218   14.2130   45.4280 C.3       1 GLC5        0.0000 
     63 CA         40.5425   14.9715   43.6205 C.3       1 GLC5        0.0000 
     64 CA         40.6050   16.1060   42.1050 C.3       2 GLP5        0.0000 
     65 CA         38.6502   13.3005   45.9492 C.3       1 GLC5        0.0000 
     66 CA         39.9600   14.2850   45.3750 C.3       3 GLL5        0.0000 
     67 CA         37.0530   12.3360   45.9420 C.3       2 GLP5        0.0000 
@<TRIPOS>BOND
@<TRIPOS>SUBSTRUCTURE
     1 GLC5        1 GROUP        1 X    GLC  0     ROOT GLC X 6
     2 GLP5        3 GROUP        1 Y    GLP  0     ROOT GLP Y 13
     3 GLL5        2 GROUP        1 Z    GLL  0     ROOT GLL Z 20
@<TRIPOS>SET

