#    Name: 2fl6_N5T_2_ligand
#    Modification time : Tue Mar 25 12:52:39 2014

@<TRIPOS>MOLECULE
2fl6_N5T_2_ligand
   42    44     1     0     0
SMALL
NO_CHARGES


@<TRIPOS>ATOM
      1 C1         37.3410   16.5470   53.3610 C.ar      1 N5T605      0.0000 
      2 C2         38.4890   16.5080   52.5290 C.ar      1 N5T605      0.0000 
      3 C3         38.5290   15.4270   51.5910 C.ar      1 N5T605      0.0000 
      4 C4         37.4170   14.4940   51.5510 C.ar      1 N5T605      0.0000 
      5 C5         36.2650   14.5540   52.3900 C.ar      1 N5T605      0.0000 
      6 C6         36.2580   15.6100   53.3420 C.ar      1 N5T605      0.0000 
      7 C10        39.6970   15.3460   50.6780 C.2       1 N5T605      0.0000 
      8 C11        40.3150   16.5860   50.1230 C.3       1 N5T605      0.0000 
      9 N12        41.4870   16.1250   49.4020 N.am      1 N5T605      0.0000 
     10 C13        41.2010   14.7340   48.9990 C.3       1 N5T605      0.0000 
     11 C14        40.3680   14.1700   50.1360 C.2       1 N5T605      0.0000 
     12 C17        41.0940   14.1830   47.6280 C.ar      1 N5T605      0.0000 
     13 C19        42.0580   13.1910   47.1500 C.ar      1 N5T605      0.0000 
     14 C20        42.0130   12.7870   45.7550 C.ar      1 N5T605      0.0000 
     15 C21        41.0000   13.3890   44.8970 C.ar      1 N5T605      0.0000 
     16 C22        39.9600   14.2850   45.3750 C.ar      1 N5T605      0.0000 
     17 C23        40.0150   14.6930   46.7770 C.ar      1 N5T605      0.0000 
     18 C29        42.4210   17.1220   49.2070 C.2       1 N5T605      0.0000 
     19 N30        43.6950   16.8180   49.3180 N.am      1 N5T605      0.0000 
     20 C31        44.5200   18.0300   49.1610 C.3       1 N5T605      0.0000 
     21 C35        44.1880   15.4790   49.6330 C.3       1 N5T605      0.0000 
     22 O39        42.1290   18.3090   48.9470 O.2       1 N5T605      0.0000 
     23 F40        37.4670   13.5130   50.6590 F         1 N5T605      0.0000 
     24 F41        37.2940   17.5350   54.2210 F         1 N5T605      0.0000 
     25 H          39.2107   17.1738   52.5872 H         1 N5T605      0.0000 
     26 H          35.5265   13.9074   52.3134 H         1 N5T605      0.0000 
     27 H          35.4967   15.7027   54.0022 H         1 N5T605      0.0000 
     28 H          40.5896   17.2426   50.9314 H         1 N5T605      0.0000 
     29 H          39.6166   17.0692   49.4606 H         1 N5T605      0.0000 
     30 H          42.3116   14.2135   49.3894 H         1 N5T605      0.0000 
     31 H          40.3254   13.3287   50.3805 H         1 N5T605      0.0000 
     32 H          42.7314   12.8023   47.7739 H         1 N5T605      0.0000 
     33 H          42.6537   12.1194   45.3941 H         1 N5T605      0.0000 
     34 H          41.0241   13.1638   43.8863 H         1 N5T605      0.0000 
     35 H          39.2426   14.6074   44.7782 H         1 N5T605      0.0000 
     36 H          39.3274   15.3112   47.1524 H         1 N5T605      0.0000 
     37 H          45.4959   17.8283   49.2440 H         1 N5T605      0.0000 
     38 H          44.3842   18.4585   48.2677 H         1 N5T605      0.0000 
     39 H          44.3032   18.7190   49.8526 H         1 N5T605      0.0000 
     40 H          45.1867   15.4517   49.6768 H         1 N5T605      0.0000 
     41 H          43.8470   15.1558   50.5157 H         1 N5T605      0.0000 
     42 H          43.9063   14.8085   48.9466 H         1 N5T605      0.0000 
@<TRIPOS>BOND
     1    2    1 ar   
     2    6    1 ar   
     3   24    1 1    
     4    3    2 ar   
     5   25    2 1    
     6    4    3 ar   
     7    7    3 1    
     8    5    4 ar   
     9   23    4 1    
    10    6    5 ar   
    11   26    5 1    
    12   27    6 1    
    13    8    7 1    
    14   11    7 2    
    15    9    8 1    
    16   28    8 1    
    17   29    8 1    
    18   10    9 1    
    19   18    9 am   
    20   11   10 1    
    21   12   10 1    
    22   30   10 1    
    23   31   11 1    
    24   13   12 ar   
    25   17   12 ar   
    26   14   13 ar   
    27   32   13 1    
    28   15   14 ar   
    29   33   14 1    
    30   16   15 ar   
    31   34   15 1    
    32   17   16 ar   
    33   35   16 1    
    34   36   17 1    
    35   19   18 am   
    36   22   18 2    
    37   20   19 1    
    38   21   19 1    
    39   37   20 1    
    40   38   20 1    
    41   39   20 1    
    42   40   21 1    
    43   41   21 1    
    44   42   21 1    
@<TRIPOS>SUBSTRUCTURE
     1 N5T605      1 GROUP   
@<TRIPOS>SET

