#    Name: 1zb6_DIN_1_INTS_M
#    Modification time : Tue Mar 25 11:38:42 2014

@<TRIPOS>MOLECULE
1zb6_DIN_1_INTS_M
   17     0     3     0     0
SMALL
NO_CHARGES


@<TRIPOS>ATOM
      1 CA         26.5690   32.1075   12.0935 C.3       1 GLC5        0.0000 
      2 CA         27.4350   30.7960   10.4880 C.3       3 GLL5        0.0000 
      3 CA         25.7030   33.4190   13.6990 C.3       2 GLP5        0.0000 
      4 CA         24.9565   34.2440    7.9725 C.3       1 GLC5        0.0000 
      5 CA         26.0990   32.6630    7.5250 C.3       3 GLL5        0.0000 
      6 CA         23.8140   35.8250    8.4200 C.3       2 GLP5        0.0000 
      7 CA         24.7825   32.6317   10.4582 C.3       1 GLC5        0.0000 
      8 CA         26.1530   31.8810    8.7100 C.3       3 GLL5        0.0000 
      9 CA         24.0090   33.6280   11.9110 C.3       2 GLP5        0.0000 
     10 CA         24.8312   32.0517   11.3320 C.3       1 GLC5        0.0000 
     11 CA         25.0280   30.6270   10.4510 C.3       3 GLL5        0.0000 
     12 CA         28.9520   30.8300    7.0375 C.3       1 GLC5        0.0000 
     13 CA         28.5850   32.0990    8.6750 C.3       3 GLL5        0.0000 
     14 CA         29.3570   29.1800    5.9780 C.3       2 GLP5        0.0000 
     15 CA         27.4835   34.6574    6.7739 C.3       1 GLC5        0.0000 
     16 CA         27.2510   33.1380    6.9480 C.3       3 GLL5        0.0000 
     17 CA         27.3750   36.4340    6.1700 C.3       2 GLP5        0.0000 
@<TRIPOS>BOND
@<TRIPOS>SUBSTRUCTURE
     1 GLC5        1 GROUP        1 X    GLC  0     ROOT GLC X 6
     2 GLP5        3 GROUP        1 Y    GLP  0     ROOT GLP Y 13
     3 GLL5        2 GROUP        1 Z    GLL  0     ROOT GLL Z 20
@<TRIPOS>SET

