#    Name: 1zb6_DIN_1_ligand
#    Modification time : Tue Mar 25 11:38:43 2014

@<TRIPOS>MOLECULE
1zb6_DIN_1_ligand
   20    21     1     0     0
SMALL
NO_CHARGES


@<TRIPOS>ATOM
      1 C1         26.1530   31.8810    8.7100 C.ar      1 DIN401      0.0000 
      2 C2         24.9590   31.3900    9.3010 C.ar      1 DIN401      0.0000 
      3 C3         25.0280   30.6270   10.4510 C.ar      1 DIN401      0.0000 
      4 C4         26.2790   30.3240   11.0550 C.ar      1 DIN401      0.0000 
      5 C5         27.4350   30.7960   10.4880 C.ar      1 DIN401      0.0000 
      6 C6         28.5850   32.0990    8.6750 C.ar      1 DIN401      0.0000 
      7 C7         27.2510   33.1380    6.9480 C.ar      1 DIN401      0.0000 
      8 C8         26.0990   32.6630    7.5250 C.ar      1 DIN401      0.0000 
      9 O1         29.8570   31.8800    9.1550 O.3       1 DIN401      0.0000 
     10 O2         23.8390   30.1790   10.9830 O.3       1 DIN401      0.0000 
     11 C9         28.5090   32.8610    7.5190 C.ar      1 DIN401      0.0000 
     12 C10        27.4090   31.5840    9.3060 C.ar      1 DIN401      0.0000 
     13 H          24.0604   31.6094    8.8645 H         1 DIN401      0.0000 
     14 H          26.2925   29.7563   11.9061 H         1 DIN401      0.0000 
     15 H          28.3557   30.5857   10.9134 H         1 DIN401      0.0000 
     16 H          27.2116   33.7060    6.0858 H         1 DIN401      0.0000 
     17 H          25.1770   32.8640    7.1109 H         1 DIN401      0.0000 
     18 H          29.3564   33.2250    7.0752 H         1 DIN401      0.0000 
     19 H          29.7438   31.7565   10.1409 H         1 DIN401      0.0000 
     20 H          23.1848   30.2232   10.2279 H         1 DIN401      0.0000 
@<TRIPOS>BOND
     1    2    1 ar   
     2    8    1 ar   
     3   12    1 ar   
     4    3    2 ar   
     5   13    2 1    
     6    4    3 ar   
     7   10    3 1    
     8    5    4 ar   
     9   14    4 1    
    10   12    5 ar   
    11   15    5 1    
    12    9    6 1    
    13   11    6 ar   
    14   12    6 ar   
    15    8    7 ar   
    16   11    7 ar   
    17   16    7 1    
    18   17    8 1    
    19   19    9 1    
    20   20   10 1    
    21   18   11 1    
@<TRIPOS>SUBSTRUCTURE
     1 DIN401      1 GROUP   
@<TRIPOS>SET

