#    Name: 3rwq_3RW_1_INTS_M
#    Modification time : Tue Mar 25 12:04:31 2014

@<TRIPOS>MOLECULE
3rwq_3RW_1_INTS_M
   74     0     9     0     0
SMALL
NO_CHARGES


@<TRIPOS>ATOM
      1 CA         31.5060  -26.7770  -15.1815 C.3       3 GLC5        0.0000 
      2 CA         31.1340  -26.4380  -13.3250 C.3       9 GLL5        0.0000 
      3 CA         31.8780  -27.1160  -17.0380 C.3       6 GLP5        0.0000 
      4 CA         31.1300  -28.4010  -14.2270 C.3       3 GLC5        0.0000 
      5 CA         31.1260  -30.3640  -15.1290 C.3       6 GLP5        0.0000 
      6 CA         30.1390  -26.4230  -11.5820 C.3       3 GLC5        0.0000 
      7 CA         29.1440  -26.4080   -9.8390 C.3       6 GLP5        0.0000 
      8 CA         32.1200  -26.4145  -11.3730 C.3       3 GLC5        0.0000 
      9 CA         33.1060  -26.3910   -9.4210 C.3       6 GLP5        0.0000 
     10 N          35.0095  -30.3185   -9.7815 N.am      2 SEC2        0.0000 
     11 N          34.6670  -30.0230  -11.2340 N.am      8 SEL2        0.0000 
     12 N          35.3520  -30.6140   -8.3290 N.am      5 SEP2        0.0000 
     13 CA         30.6680  -27.3625  -11.0785 C.3       3 GLC5        0.0000 
     14 CA         32.1920  -28.3170  -12.3180 C.3       9 GLL5        0.0000 
     15 N          29.6350  -27.6175  -12.2650 N.am      2 SEC2        0.0000 
     16 N          31.0950  -27.6490  -12.7410 N.am      8 SEL2        0.0000 
     17 N          28.1750  -27.5860  -11.7890 N.am      5 SEP2        0.0000 
     18 CA         36.3945  -28.2365  -14.0850 C.3       3 GLC5        0.0000 
     19 CA         35.6510  -26.7790  -12.7400 C.3       9 GLL5        0.0000 
     20 CA         37.1380  -29.6940  -15.4300 C.3       6 GLP5        0.0000 
     21 O          30.6985  -30.1590  -11.6855 O.2       1 ALC1        0.0000 
     22 O          32.0490  -29.5190  -11.7360 O.2       7 ALL1        0.0000 
     23 O          29.3480  -30.7990  -11.6350 O.2       4 ALP1        0.0000 
     24 CA         32.6895  -26.7170  -15.1050 C.3       3 GLC5        0.0000 
     25 CA         33.5010  -26.3180  -13.1720 C.3       9 GLL5        0.0000 
     26 N          39.6455  -31.7375  -11.4825 N.am      2 SEC2        0.0000 
     27 N          38.9540  -30.5440  -11.0400 N.am      8 SEL2        0.0000 
     28 N          40.3370  -32.9310  -11.9250 N.am      5 SEP2        0.0000 
     29 CA         35.3140  -22.1660  -11.6870 C.3       3 GLC5        0.0000 
     30 CA         34.8440  -23.4180  -12.9440 C.3       9 GLL5        0.0000 
     31 CA         35.7840  -20.9140  -10.4300 C.3       6 GLP5        0.0000 
     32 CA         34.5470  -23.8875  -10.8200 C.3       3 GLC5        0.0000 
     33 CA         34.2500  -24.3570   -8.6960 C.3       6 GLP5        0.0000 
     34 CA         38.1870  -31.9325  -12.5045 C.3       3 GLC5        0.0000 
     35 CA         37.6330  -30.4800  -11.3290 C.3       9 GLL5        0.0000 
     36 CA         38.7410  -33.3850  -13.6800 C.3       6 GLP5        0.0000 
     37 CA         36.0655  -31.9395  -11.7740 C.3       3 GLC5        0.0000 
     38 CA         34.4980  -33.3990  -12.2190 C.3       6 GLP5        0.0000 
     39 CA         38.5005  -30.6795   -9.2635 C.3       3 GLC5        0.0000 
     40 CA         39.3680  -30.8790   -7.1980 C.3       6 GLP5        0.0000 
     41 CA         37.4590  -28.2580   -9.2190 C.3       3 GLC5        0.0000 
     42 CA         38.9490  -28.1970  -10.5730 C.3       9 GLL5        0.0000 
     43 CA         35.9690  -28.3190   -7.8650 C.3       6 GLP5        0.0000 
     44 CA         37.4530  -24.6240  -15.8625 C.3       3 GLC5        0.0000 
     45 CA         36.6390  -24.5920  -14.2470 C.3       9 GLL5        0.0000 
     46 CA         38.2670  -24.6560  -17.4780 C.3       6 GLP5        0.0000 
     47 CA         42.9400  -27.7305  -14.5180 C.3       3 GLC5        0.0000 
     48 CA         41.5760  -28.0150  -13.1700 C.3       9 GLL5        0.0000 
     49 CA         44.3040  -27.4460  -15.8660 C.3       6 GLP5        0.0000 
     50 CA         40.5005  -28.1285   -8.7255 C.3       3 GLC5        0.0000 
     51 CA         40.9930  -26.7660  -10.3020 C.3       9 GLL5        0.0000 
     52 CA         40.0080  -29.4910   -7.1490 C.3       6 GLP5        0.0000 
     53 CA         42.2875  -27.8090  -15.4830 C.3       3 GLC5        0.0000 
     54 CA         40.2710  -28.1720  -15.1000 C.3       9 GLL5        0.0000 
     55 CA         31.9915  -29.1777  -13.7745 C.3       3 GLC5        0.0000 
     56 CA         33.5220  -27.6660  -12.5220 C.3       9 GLL5        0.0000 
     57 CA         34.2090  -26.8625  -10.9610 C.3       3 GLC5        0.0000 
     58 CA         34.9730  -27.8890  -12.2620 C.3       9 GLL5        0.0000 
     59 CA         34.4982  -28.5938  -14.2995 C.3       3 GLC5        0.0000 
     60 CA         34.7490  -29.4100  -16.2070 C.3       6 GLP5        0.0000 
     61 CA         33.1425  -26.7729  -11.1085 C.3       3 GLC5        0.0000 
     62 CA         34.8550  -25.0468  -15.7602 C.3       3 GLC5        0.0000 
     63 CA         35.1570  -24.5750  -13.8820 C.3       9 GLL5        0.0000 
     64 CA         33.8120  -25.5100  -17.4560 C.3       6 GLP5        0.0000 
     65 CA         37.2122  -29.7843  -13.3585 C.3       3 GLC5        0.0000 
     66 CA         36.9400  -29.2690  -11.2450 C.3       9 GLL5        0.0000 
     67 CA         36.6277  -29.0968   -9.5760 C.3       3 GLC5        0.0000 
     68 CA         39.6485  -29.1513   -8.8840 C.3       3 GLC5        0.0000 
     69 CA         39.0463  -25.6202  -15.8725 C.3       3 GLC5        0.0000 
     70 CA         40.0030  -26.2270  -13.6990 C.3       9 GLL5        0.0000 
     71 CA         40.8287  -26.7750  -16.5968 C.3       3 GLC5        0.0000 
     72 CA         39.6480  -26.9420  -14.8350 C.3       9 GLL5        0.0000 
     73 CA         41.6980  -25.9930  -18.2260 C.3       6 GLP5        0.0000 
     74 CA         38.5487  -28.6255  -15.1988 C.3       3 GLC5        0.0000 
@<TRIPOS>BOND
@<TRIPOS>SUBSTRUCTURE
     1 ALC1       21 GROUP        1 X    ALC  0     ROOT ALC X 1
     2 SEC2       10 GROUP        1 X    SEC  0     **** SEC X 2
     3 GLC5        1 GROUP        1 X    GLC  0     **** GLC X 6
     4 ALP1       23 GROUP        1 Y    ALP  0     ROOT ALP Y 8
     5 SEP2       12 GROUP        1 Y    SEP  0     **** SEP Y 9
     6 GLP5        3 GROUP        1 Y    GLP  0     **** GLP Y 13
     7 ALL1       22 GROUP        1 Z    ALL  0     ROOT ALL Z 15
     8 SEL2       11 GROUP        1 Z    SEL  0     **** SEL Z 16
     9 GLL5        2 GROUP        1 Z    GLL  0     **** GLL Z 20
@<TRIPOS>SET

