#    Name: 3rwq_3RW_1_ligand
#    Modification time : Tue Mar 25 12:04:31 2014

@<TRIPOS>MOLECULE
3rwq_3RW_1_ligand
   52    55     1     0     0
SMALL
NO_CHARGES


@<TRIPOS>ATOM
      1 C1         31.1340  -26.4380  -13.3250 C.ar      1 3RW1        0.0000 
      2 N1         39.5550  -27.0330  -10.1830 N.pl3     1 3RW1        0.0000 
      3 O1         34.6670  -30.0230  -11.2340 O.2       1 3RW1        0.0000 
      4 C2         32.1920  -28.3170  -12.3180 C.ar      1 3RW1        0.0000 
      5 N2         31.0950  -27.6490  -12.7410 N.ar      1 3RW1        0.0000 
      6 C3         35.6510  -26.7790  -12.7400 C.2       1 3RW1        0.0000 
      7 N3         32.2830  -25.7740  -13.5420 N.ar      1 3RW1        0.0000 
      8 C4         34.9730  -27.8890  -12.2620 C.2       1 3RW1        0.0000 
      9 N4         34.7830  -25.8780  -13.2620 N.pl3     1 3RW1        0.0000 
     10 C5         33.5220  -27.6660  -12.5220 C.ar      1 3RW1        0.0000 
     11 N5         32.0490  -29.5190  -11.7360 N.pl3     1 3RW1        0.0000 
     12 C6         33.5010  -26.3180  -13.1720 C.ar      1 3RW1        0.0000 
     13 N6         38.9540  -30.5440  -11.0400 N.ar      1 3RW1        0.0000 
     14 C7         35.1570  -24.5750  -13.8820 C.3       1 3RW1        0.0000 
     15 N7         37.6250  -28.1550  -10.8690 N.ar      1 3RW1        0.0000 
     16 C8         34.8440  -23.4180  -12.9440 C.3       1 3RW1        0.0000 
     17 N8         41.2070  -28.6870  -14.2810 N.ar      1 3RW1        0.0000 
     18 C9         35.4600  -29.1460  -11.5660 C.2       1 3RW1        0.0000 
     19 C10        36.9400  -29.2690  -11.2450 C.ar      1 3RW1        0.0000 
     20 C11        37.6330  -30.4800  -11.3290 C.ar      1 3RW1        0.0000 
     21 C12        39.6290  -29.4260  -10.6650 C.ar      1 3RW1        0.0000 
     22 C13        38.9490  -28.1970  -10.5730 C.ar      1 3RW1        0.0000 
     23 C14        36.6390  -24.5920  -14.2470 C.3       1 3RW1        0.0000 
     24 C15        40.9910  -26.7690  -12.8560 C.ar      1 3RW1        0.0000 
     25 C16        40.0030  -26.2270  -13.6990 C.ar      1 3RW1        0.0000 
     26 C17        41.5760  -28.0150  -13.1700 C.ar      1 3RW1        0.0000 
     27 C18        41.3950  -26.0140  -11.5940 C.3       1 3RW1        0.0000 
     28 C19        39.6480  -26.9420  -14.8350 C.ar      1 3RW1        0.0000 
     29 C20        40.9930  -26.7660  -10.3020 C.3       1 3RW1        0.0000 
     30 C21        40.2710  -28.1720  -15.1000 C.ar      1 3RW1        0.0000 
     31 H          30.2209  -25.9884  -13.6267 H         1 3RW1        0.0000 
     32 H          38.9853  -26.2536   -9.7653 H         1 3RW1        0.0000 
     33 H          36.6164  -26.6764  -12.6989 H         1 3RW1        0.0000 
     34 H          31.1099  -29.8415  -11.6174 H         1 3RW1        0.0000 
     35 H          32.8944  -29.9841  -11.4733 H         1 3RW1        0.0000 
     36 H          34.5879  -24.4405  -14.7969 H         1 3RW1        0.0000 
     37 H          37.1107  -31.3301  -11.6184 H         1 3RW1        0.0000 
     38 H          40.6340  -29.4548  -10.4444 H         1 3RW1        0.0000 
     39 H          39.5685  -25.3399  -13.4757 H         1 3RW1        0.0000 
     40 H          42.2925  -28.3938  -12.5245 H         1 3RW1        0.0000 
     41 H          40.9161  -25.0307  -11.5881 H         1 3RW1        0.0000 
     42 H          42.4787  -25.8664  -11.5883 H         1 3RW1        0.0000 
     43 H          38.9391  -26.5816  -15.4781 H         1 3RW1        0.0000 
     44 H          41.5691  -27.7126  -10.2759 H         1 3RW1        0.0000 
     45 H          41.3505  -26.1641   -9.4426 H         1 3RW1        0.0000 
     46 H          39.9820  -28.6846  -15.9662 H         1 3RW1        0.0000 
     47 H          35.3390  -23.4971  -12.0787 H         1 3RW1        0.0000 
     48 H          35.0938  -22.5367  -13.3451 H         1 3RW1        0.0000 
     49 H          33.8701  -23.3733  -12.7216 H         1 3RW1        0.0000 
     50 H          37.2175  -24.7386  -13.4446 H         1 3RW1        0.0000 
     51 H          36.8526  -25.3194  -14.8991 H         1 3RW1        0.0000 
     52 H          36.9287  -23.7304  -14.6638 H         1 3RW1        0.0000 
@<TRIPOS>BOND
     1    5    1 ar   
     2    7    1 ar   
     3   31    1 1    
     4   22    2 1    
     5   29    2 1    
     6   32    2 1    
     7   18    3 2    
     8    5    4 ar   
     9   10    4 ar   
    10   11    4 1    
    11    8    6 2    
    12    9    6 1    
    13   33    6 1    
    14   12    7 ar   
    15   10    8 1    
    16   18    8 1    
    17   12    9 1    
    18   14    9 1    
    19   12   10 ar   
    20   34   11 1    
    21   35   11 1    
    22   20   13 ar   
    23   21   13 ar   
    24   16   14 1    
    25   23   14 1    
    26   36   14 1    
    27   19   15 ar   
    28   22   15 ar   
    29   47   16 1    
    30   48   16 1    
    31   49   16 1    
    32   26   17 ar   
    33   30   17 ar   
    34   19   18 1    
    35   20   19 ar   
    36   37   20 1    
    37   22   21 ar   
    38   38   21 1    
    39   50   23 1    
    40   51   23 1    
    41   52   23 1    
    42   25   24 ar   
    43   26   24 ar   
    44   27   24 1    
    45   28   25 ar   
    46   39   25 1    
    47   40   26 1    
    48   29   27 1    
    49   41   27 1    
    50   42   27 1    
    51   30   28 ar   
    52   43   28 1    
    53   44   29 1    
    54   45   29 1    
    55   46   30 1    
@<TRIPOS>SUBSTRUCTURE
     1 3RW1        1 GROUP   
@<TRIPOS>SET

