#    Name: 1bws_NDP_1_INTS_M
#    Modification time : Mon Mar 24 19:54:09 2014

@<TRIPOS>MOLECULE
1bws_NDP_1_INTS_M
   94     0    12     0     0
SMALL
NO_CHARGES


@<TRIPOS>ATOM
      1 N          66.5460   14.9195   28.8120 N.am      2 SEC2        0.0000 
      2 N          66.4390   15.2070   27.5210 N.am     10 SEL2        0.0000 
      3 N          66.6530   14.6320   30.1030 N.am      6 SEP2        0.0000 
      4 CA         70.6535   10.7040   26.8845 C.3       4 GLC5        0.0000 
      5 CA         69.6010   12.1240   25.8580 C.3      12 GLL5        0.0000 
      6 CA         71.7060    9.2840   27.9110 C.3       8 GLP5        0.0000 
      7 N          69.1345   10.2030   24.0550 N.am      2 SEC2        0.0000 
      8 N          70.1930   11.2580   24.8480 N.am     10 SEL2        0.0000 
      9 N          68.0760    9.1480   23.2620 N.am      6 SEP2        0.0000 
     10 CA         69.6430   13.6470   27.5655 C.3       4 GLC5        0.0000 
     11 CA         70.4840   13.3900   25.8730 C.3      12 GLL5        0.0000 
     12 CA         68.8020   13.9040   29.2580 C.3       8 GLP5        0.0000 
     13 CA         71.6080   10.4930   26.2835 C.3       4 GLC5        0.0000 
     14 CA         71.5100   11.7020   24.6560 C.3      12 GLL5        0.0000 
     15 CA         71.0875    9.6810   24.6450 C.3       4 GLC5        0.0000 
     16 CA         70.6650    7.6600   24.6340 C.3       8 GLP5        0.0000 
     17 CA         74.4765   11.9140   21.4710 C.3       4 GLC5        0.0000 
     18 CA         72.9330   10.3130   21.7100 C.3      12 GLL5        0.0000 
     19 CA         76.0200   13.5150   21.2320 C.3       8 GLP5        0.0000 
     20 CA         75.4950   11.0610   21.4930 C.3       4 GLC5        0.0000 
     21 CA         74.0530    9.6570   21.1400 C.3      12 GLL5        0.0000 
     22 CA         76.9370   12.4650   21.8460 C.3       8 GLP5        0.0000 
     23 CA         74.2395    7.6810   21.3360 C.3       4 GLC5        0.0000 
     24 CA         74.4260    5.7050   21.5320 C.3       8 GLP5        0.0000 
     25 O          75.4960    9.0970   19.2580 O.2       1 ALC1        0.0000 
     26 O          74.1650    9.4640   19.8190 O.2       9 ALL1        0.0000 
     27 O          76.8270    8.7300   18.6970 O.2       5 ALP1        0.0000 
     28 N          75.8105    7.9510   21.3480 N.am      2 SEC2        0.0000 
     29 N          75.0780    9.2800   21.9420 N.am     10 SEL2        0.0000 
     30 N          76.5430    6.6220   20.7540 N.am      6 SEP2        0.0000 
     31 CA         76.0125   11.1140   23.3025 C.3       4 GLC5        0.0000 
     32 CA         74.9710    9.5780   23.2510 C.3      12 GLL5        0.0000 
     33 CA         77.0540   12.6500   23.3540 C.3       8 GLP5        0.0000 
     34 CA         74.2875    7.9955   23.5000 C.3       4 GLC5        0.0000 
     35 CA         73.6040    6.4130   23.7490 C.3       8 GLP5        0.0000 
     36 CA         74.9865   11.5590   22.4465 C.3       4 GLC5        0.0000 
     37 CA         73.0360   10.6530   23.0470 C.3      12 GLL5        0.0000 
     38 CA         71.8505    9.1565   23.8405 C.3       4 GLC5        0.0000 
     39 N          64.8175   12.7060   29.8250 N.am      2 SEC2        0.0000 
     40 N          64.8370   12.6430   28.4920 N.am     10 SEL2        0.0000 
     41 N          64.7980   12.7690   31.1580 N.am      6 SEP2        0.0000 
     42 CA         63.5775    7.9965   27.1075 C.3       4 GLC5        0.0000 
     43 CA         63.4670    9.6460   25.6860 C.3      12 GLL5        0.0000 
     44 CA         63.6880    6.3470   28.5290 C.3       8 GLP5        0.0000 
     45 N          62.7895    7.9490   23.1910 N.am      2 SEC2        0.0000 
     46 N          62.8910    9.4020   23.4610 N.am     10 SEL2        0.0000 
     47 N          62.6880    6.4960   22.9210 N.am      6 SEP2        0.0000 
     48 O          61.8415    9.6375   22.5975 O.2       1 ALC1        0.0000 
     49 O          62.8910    9.4020   23.4610 O.2       9 ALL1        0.0000 
     50 O          60.7920    9.8730   21.7340 O.2       5 ALP1        0.0000 
     51 O          59.7855    7.2600   24.9140 O.2       1 ALC1        0.0000 
     52 O          60.8810    7.6620   24.7150 O.2       9 ALL1        0.0000 
     53 O          58.6900    6.8580   25.1130 O.2       5 ALP1        0.0000 
     54 CA         62.0375   10.0340   28.3815 C.3       4 GLC5        0.0000 
     55 CA         61.5470    8.8750   26.5800 C.3      12 GLL5        0.0000 
     56 CA         62.5280   11.1930   30.1830 C.3       8 GLP5        0.0000 
     57 CA         61.3355   11.0490   28.3125 C.3       4 GLC5        0.0000 
     58 CA         60.1430   10.9050   26.4420 C.3      12 GLL5        0.0000 
     59 CA         58.9535   11.6435   29.0035 C.3       4 GLC5        0.0000 
     60 CA         59.0700   11.6480   27.0070 C.3      12 GLL5        0.0000 
     61 CA         58.8370   11.6390   31.0000 C.3       8 GLP5        0.0000 
     62 CA         57.9325   11.6820   29.3945 C.3       4 GLC5        0.0000 
     63 CA         58.4420   11.1460   28.1370 C.3      12 GLL5        0.0000 
     64 CA         57.4230   12.2180   30.6520 C.3       8 GLP5        0.0000 
     65 NZ         73.2010   14.6500   21.2135 N.4       3 LYC4        0.0000 
     66 NZ         72.7970   14.9250   22.3480 N.4      11 LYL4        0.0000 
     67 NZ         74.3810   13.5490   19.3910 N.4       7 LYP4        0.0000 
     68 N          73.2010   14.6500   21.2135 N.am      2 SEC2        0.0000 
     69 N          72.7970   14.9250   22.3480 N.am     10 SEL2        0.0000 
     70 N          73.6050   14.3750   20.0790 N.am      6 SEP2        0.0000 
     71 CA         68.8235   13.0572   27.4970 C.3       4 GLC5        0.0000 
     72 CA         69.0470   10.1528   25.3940 C.3       4 GLC5        0.0000 
     73 CA         69.2490    8.0950   25.0520 C.3       8 GLP5        0.0000 
     74 CA         73.2943    8.4480   23.0637 C.3       4 GLC5        0.0000 
     75 CA         71.9990    8.8395   20.5985 C.3       4 GLC5        0.0000 
     76 CA         70.5050    7.6940   19.7720 C.3       8 GLP5        0.0000 
     77 CA         64.3804    9.6059   23.8806 C.3       4 GLC5        0.0000 
     78 CA         64.3280   10.8430   25.9570 C.3      12 GLL5        0.0000 
     79 CA         65.6420    9.1710   22.5180 C.3       8 GLP5        0.0000 
     80 CA         63.6939   11.3319   24.0561 C.3       4 GLC5        0.0000 
     81 CA         64.2690   12.6230   22.8690 C.3       8 GLP5        0.0000 
     82 CA         61.7050    8.0757   23.3682 C.3       4 GLC5        0.0000 
     83 CA         62.3400    9.8370   24.6650 C.3      12 GLL5        0.0000 
     84 CA         61.6640    6.7350   21.8350 C.3       8 GLP5        0.0000 
     85 CA         61.7638    7.0408   26.5365 C.3       4 GLC5        0.0000 
     86 CA         61.1520    8.9960   25.1380 C.3      12 GLL5        0.0000 
     87 CA         62.1780    5.1460   27.2140 C.3       8 GLP5        0.0000 
     88 CA         58.4793    9.5753   27.3777 C.3       4 GLC5        0.0000 
     89 CA         57.3520    7.8740   28.0310 C.3       8 GLP5        0.0000 
     90 CA         60.9797   10.4037   29.3167 C.3       4 GLC5        0.0000 
     91 CA         58.9120    9.9630   28.7540 C.3      12 GLL5        0.0000 
     92 CA         59.1343   10.6267   29.7253 C.3       4 GLC5        0.0000 
     93 CA         59.9510    9.2660   28.1470 C.3      12 GLL5        0.0000 
     94 CA         58.3330    8.8921   28.1636 C.3       4 GLC5        0.0000 
@<TRIPOS>BOND
@<TRIPOS>SUBSTRUCTURE
     1 ALC1       25 GROUP        1 X    ALC  0     ROOT ALC X 1
     2 SEC2        1 GROUP        1 X    SEC  0     **** SEC X 2
     3 LYC4       65 GROUP        1 X    LYC  0     **** LYC X 4
     4 GLC5        4 GROUP        1 X    GLC  0     **** GLC X 6
     5 ALP1       27 GROUP        1 Y    ALP  0     ROOT ALP Y 8
     6 SEP2        3 GROUP        1 Y    SEP  0     **** SEP Y 9
     7 LYP4       67 GROUP        1 Y    LYP  0     **** LYP Y 11
     8 GLP5        6 GROUP        1 Y    GLP  0     **** GLP Y 13
     9 ALL1       26 GROUP        1 Z    ALL  0     ROOT ALL Z 15
    10 SEL2        2 GROUP        1 Z    SEL  0     **** SEL Z 16
    11 LYL4       66 GROUP        1 Z    LYL  0     **** LYL Z 18
    12 GLL5        5 GROUP        1 Z    GLL  0     **** GLL Z 20
@<TRIPOS>SET

