#    Name: 1bws_NDP_1_ligand
#    Modification time : Mon Mar 24 19:54:09 2014

@<TRIPOS>MOLECULE
1bws_NDP_1_ligand
   74    78     1     0     0
SMALL
NO_CHARGES


@<TRIPOS>ATOM
      1 PA         66.6600   14.2570   26.3930 P.3       1 NDP322      0.0000 
      2 O1A        66.8860   14.7950   25.0470 O.co2     1 NDP322      0.0000 
      3 O2A        66.4390   15.2070   27.5210 O.co2     1 NDP322      0.0000 
      4 O5B        67.5240   13.0550   26.6920 O.3       1 NDP322      0.0000 
      5 C5B        68.0890   12.2970   25.6140 C.3       1 NDP322      0.0000 
      6 C4B        69.6010   12.1240   25.8580 C.3       1 NDP322      0.0000 
      7 O4B        70.1930   11.2580   24.8480 O.3       1 NDP322      0.0000 
      8 C3B        70.4840   13.3900   25.8730 C.3       1 NDP322      0.0000 
      9 O3B        71.1920   13.4360   27.0660 O.3       1 NDP322      0.0000 
     10 C2B        71.3730   13.2200   24.6260 C.3       1 NDP322      0.0000 
     11 O2B        72.6230   13.8860   24.6550 O.3       1 NDP322      0.0000 
     12 C1B        71.5100   11.7020   24.6560 C.3       1 NDP322      0.0000 
     13 N9A        71.8200   11.2240   23.3530 N.pl3     1 NDP322      0.0000 
     14 C8A        71.1040   11.3160   22.2000 C.2       1 NDP322      0.0000 
     15 N7A        71.7580   10.8350   21.1610 N.2       1 NDP322      0.0000 
     16 C5A        72.9330   10.3130   21.7100 C.ar      1 NDP322      0.0000 
     17 C6A        74.0530    9.6570   21.1400 C.ar      1 NDP322      0.0000 
     18 N6A        74.1650    9.4640   19.8190 N.pl3     1 NDP322      0.0000 
     19 N1A        75.0780    9.2800   21.9420 N.ar      1 NDP322      0.0000 
     20 C2A        74.9710    9.5780   23.2510 C.ar      1 NDP322      0.0000 
     21 N3A        74.0270   10.3020   23.8890 N.ar      1 NDP322      0.0000 
     22 C4A        73.0360   10.6530   23.0470 C.ar      1 NDP322      0.0000 
     23 O3         65.3360   13.5900   26.1290 O.3       1 NDP322      0.0000 
     24 PN         64.1830   13.1060   27.1910 P.3       1 NDP322      0.0000 
     25 O1N        63.1420   14.1690   27.2530 O.co2     1 NDP322      0.0000 
     26 O2N        64.8370   12.6430   28.4920 O.co2     1 NDP322      0.0000 
     27 O5D        63.5360   11.9430   26.4480 O.3       1 NDP322      0.0000 
     28 C5D        64.3280   10.8430   25.9570 C.3       1 NDP322      0.0000 
     29 C4D        63.4670    9.6460   25.6860 C.3       1 NDP322      0.0000 
     30 O4D        62.8370    9.3370   26.9080 O.3       1 NDP322      0.0000 
     31 C3D        62.3400    9.8370   24.6650 C.3       1 NDP322      0.0000 
     32 O3D        62.8910    9.4020   23.4610 O.3       1 NDP322      0.0000 
     33 C2D        61.1520    8.9960   25.1380 C.3       1 NDP322      0.0000 
     34 O2D        60.8810    7.6620   24.7150 O.3       1 NDP322      0.0000 
     35 C1D        61.5470    8.8750   26.5800 C.3       1 NDP322      0.0000 
     36 N1N        60.5980    9.7750   27.1090 N.pl3     1 NDP322      0.0000 
     37 C2N        60.1430   10.9050   26.4420 C.2       1 NDP322      0.0000 
     38 C3N        59.0700   11.6480   27.0070 C.2       1 NDP322      0.0000 
     39 C7N        58.4970   13.0170   26.5280 C.2       1 NDP322      0.0000 
     40 O7N        59.3580   13.7030   25.9720 O.2       1 NDP322      0.0000 
     41 N7N        57.2070   13.4000   26.9120 N.am      1 NDP322      0.0000 
     42 C4N        58.4420   11.1460   28.1370 C.3       1 NDP322      0.0000 
     43 C5N        58.9120    9.9630   28.7540 C.2       1 NDP322      0.0000 
     44 C6N        59.9510    9.2660   28.1470 C.2       1 NDP322      0.0000 
     45 P2B        73.1040   15.0690   23.8230 P.3       1 NDP322      0.0000 
     46 O1X        74.5000   15.3080   24.3080 O.co2     1 NDP322      0.0000 
     47 O2X        72.7970   14.9250   22.3480 O.co2     1 NDP322      0.0000 
     48 O3X        72.1630   16.2170   23.9580 O.co2     1 NDP322      0.0000 
     49 H          67.9654   12.8001   24.6534 H         1 NDP322      0.0000 
     50 H          67.6503   11.3002   25.5429 H         1 NDP322      0.0000 
     51 H          69.7394   11.6289   26.8377 H         1 NDP322      0.0000 
     52 H          69.8342   14.2184   25.7028 H         1 NDP322      0.0000 
     53 H          70.7553   13.4487   23.7770 H         1 NDP322      0.0000 
     54 H          72.1531   11.4053   25.3857 H         1 NDP322      0.0000 
     55 H          70.1889   11.7070   22.1677 H         1 NDP322      0.0000 
     56 H          75.0965    9.3990   19.4612 H         1 NDP322      0.0000 
     57 H          73.3070    9.4022   19.3090 H         1 NDP322      0.0000 
     58 H          75.7720    9.1712   23.8979 H         1 NDP322      0.0000 
     59 H          65.1021   10.5598   26.6880 H         1 NDP322      0.0000 
     60 H          64.8481   11.1188   25.0258 H         1 NDP322      0.0000 
     61 H          64.0810    8.8189   25.3719 H         1 NDP322      0.0000 
     62 H          62.0795   10.8634   24.6701 H         1 NDP322      0.0000 
     63 H          60.2762    9.6354   25.1553 H         1 NDP322      0.0000 
     64 H          61.3272    7.8949   26.9079 H         1 NDP322      0.0000 
     65 H          60.5583   11.2075   25.5669 H         1 NDP322      0.0000 
     66 H          56.7041   12.7466   27.4779 H         1 NDP322      0.0000 
     67 H          56.8986   14.2942   26.5876 H         1 NDP322      0.0000 
     68 H          57.3113   11.0137   27.9176 H         1 NDP322      0.0000 
     69 H          58.3881   11.9767   28.9439 H         1 NDP322      0.0000 
     70 H          58.4936    9.6398   29.6189 H         1 NDP322      0.0000 
     71 H          60.2034    8.3287   28.5371 H         1 NDP322      0.0000 
     72 H          72.1419   13.5953   26.7971 H         1 NDP322      0.0000 
     73 H          62.1718    9.5445   22.7809 H         1 NDP322      0.0000 
     74 H          60.1960    7.3207   25.3586 H         1 NDP322      0.0000 
@<TRIPOS>BOND
     1    2    1 ar   
     2    3    1 ar   
     3    4    1 1    
     4   23    1 1    
     5    5    4 1    
     6    6    5 1    
     7   49    5 1    
     8   50    5 1    
     9    7    6 1    
    10    8    6 1    
    11   51    6 1    
    12   12    7 1    
    13    9    8 1    
    14   10    8 1    
    15   52    8 1    
    16   72    9 1    
    17   11   10 1    
    18   12   10 1    
    19   53   10 1    
    20   45   11 1    
    21   13   12 1    
    22   54   12 1    
    23   14   13 1    
    24   22   13 1    
    25   15   14 2    
    26   55   14 1    
    27   16   15 1    
    28   17   16 ar   
    29   22   16 ar   
    30   18   17 1    
    31   19   17 ar   
    32   56   18 1    
    33   57   18 1    
    34   20   19 ar   
    35   21   20 ar   
    36   58   20 1    
    37   22   21 ar   
    38   24   23 1    
    39   25   24 ar   
    40   26   24 ar   
    41   27   24 1    
    42   28   27 1    
    43   29   28 1    
    44   59   28 1    
    45   60   28 1    
    46   30   29 1    
    47   31   29 1    
    48   61   29 1    
    49   35   30 1    
    50   32   31 1    
    51   33   31 1    
    52   62   31 1    
    53   73   32 1    
    54   34   33 1    
    55   35   33 1    
    56   63   33 1    
    57   74   34 1    
    58   36   35 1    
    59   64   35 1    
    60   37   36 1    
    61   44   36 1    
    62   38   37 2    
    63   65   37 1    
    64   39   38 1    
    65   42   38 1    
    66   40   39 2    
    67   41   39 am   
    68   66   41 1    
    69   67   41 1    
    70   43   42 1    
    71   68   42 1    
    72   69   42 1    
    73   44   43 2    
    74   70   43 1    
    75   71   44 1    
    76   46   45 ar   
    77   47   45 ar   
    78   48   45 ar   
@<TRIPOS>SUBSTRUCTURE
     1 NDP322      1 GROUP   
@<TRIPOS>SET

