#    Name: 3zku_HCV_1_INTS_M
#    Modification time : Tue Mar 25 03:37:55 2014

@<TRIPOS>MOLECULE
3zku_HCV_1_INTS_M
   46     0    12     0     0
SMALL
NO_CHARGES


@<TRIPOS>ATOM
      1 NZ         18.6035   35.7060    3.8785 N.4       2 LYC4        0.0000 
      2 NZ         17.3010   35.9760    4.3620 N.4      10 LYL4        0.0000 
      3 NZ         20.8940   35.5970    4.2110 N.4       6 LYP4        0.0000 
      4 N          18.6035   35.7060    3.8785 N.am      1 SEC2        0.0000 
      5 N          17.3010   35.9760    4.3620 N.am      9 SEL2        0.0000 
      6 N          19.9060   35.4360    3.3950 N.am      5 SEP2        0.0000 
      7 N          16.8280   34.9665    3.6680 N.am      1 SEC2        0.0000 
      8 N          16.3550   33.9570    2.9740 N.am      5 SEP2        0.0000 
      9 CA         16.2725   34.5240    6.8685 C.3       4 GLC5        0.0000 
     10 CA         15.8700   36.3120    6.2420 C.3      12 GLL5        0.0000 
     11 CA         16.6750   32.7360    7.4950 C.3       8 GLP5        0.0000 
     12 CA         14.3550   34.8645    6.0345 C.3       4 GLC5        0.0000 
     13 CA         12.8400   33.4170    5.8270 C.3       8 GLP5        0.0000 
     14 CA         16.3560   38.9840    4.9745 C.3       4 GLC5        0.0000 
     15 CA         15.0060   37.3880    5.6560 C.3      12 GLL5        0.0000 
     16 CA         17.7060   40.5800    4.2930 C.3       8 GLP5        0.0000 
     17 CA         13.2450   35.2950    6.1070 C.3       4 GLC5        0.0000 
     18 CA         13.6500   37.1730    6.3870 C.3      12 GLL5        0.0000 
     19 NZ         19.3765   36.6895    5.6725 N.4       2 LYC4        0.0000 
     20 NZ         18.0610   37.2550    5.9410 N.4      10 LYL4        0.0000 
     21 N          19.3765   36.6895    5.6725 N.am      1 SEC2        0.0000 
     22 N          18.0610   37.2550    5.9410 N.am      9 SEL2        0.0000 
     23 N          20.6920   36.1240    5.4040 N.am      5 SEP2        0.0000 
     24 CA         10.7570   38.3580    3.5225 C.3       4 GLC5        0.0000 
     25 CA         10.1070   39.9270    4.7830 C.3      12 GLL5        0.0000 
     26 CA         11.4070   36.7890    2.2620 C.3       8 GLP5        0.0000 
     27 CA          9.6765   42.3740    3.1925 C.3       4 GLC5        0.0000 
     28 CA         10.8180   41.2500    4.5340 C.3      12 GLL5        0.0000 
     29 CA          8.5350   43.4980    1.8510 C.3       8 GLP5        0.0000 
     30 Zn          8.5435   40.2015    1.6615 Zn        3 ZIC7        0.0000 
     31 Zn          9.3690   39.8310    2.4340 Zn       11 ZIL7        0.0000 
     32 Zn          7.7180   40.5720    0.8890 Zn        7 ZIP7        0.0000 
     33 CA          5.1405   41.5730    6.0930 C.3       4 GLC5        0.0000 
     34 CA          5.9970   40.8270    4.8740 C.3      12 GLL5        0.0000 
     35 CA          4.2840   42.3190    7.3120 C.3       8 GLP5        0.0000 
     36 CA          5.6285   40.7675    0.9910 C.3       4 GLC5        0.0000 
     37 CA          6.1970   39.8140    2.5230 C.3      12 GLL5        0.0000 
     38 CA          5.0600   41.7210   -0.5410 C.3       8 GLP5        0.0000 
     39 CA         13.2910   36.5752    4.3972 C.3       4 GLC5        0.0000 
     40 CA         12.2540   35.8700    2.7730 C.3       8 GLP5        0.0000 
     41 CA         11.9557   42.5008    4.6107 C.3       4 GLC5        0.0000 
     42 CA         12.9370   43.4540    3.9890 C.3       8 GLP5        0.0000 
     43 CA          7.5365   41.7060    2.5370 C.3       4 GLC5        0.0000 
     44 CA          6.8790   40.0140    3.9230 C.3      12 GLL5        0.0000 
     45 CA          4.4688   40.1151    3.9749 C.3       4 GLC5        0.0000 
     46 CA          2.6200   40.1130    4.4890 C.3       8 GLP5        0.0000 
@<TRIPOS>BOND
@<TRIPOS>SUBSTRUCTURE
     1 SEC2        4 GROUP        1 X    SEC  0     ROOT SEC X 2
     2 LYC4        1 GROUP        1 X    LYC  0     **** LYC X 4
     3 ZIC7       30 GROUP        1 X    ZIC  0     **** ZIC X 5
     4 GLC5        9 GROUP        1 X    GLC  0     **** GLC X 6
     5 SEP2        6 GROUP        1 Y    SEP  0     ROOT SEP Y 9
     6 LYP4        3 GROUP        1 Y    LYP  0     **** LYP Y 11
     7 ZIP7       32 GROUP        1 Y    ZIP  0     **** ZIP Y 12
     8 GLP5       11 GROUP        1 Y    GLP  0     **** GLP Y 13
     9 SEL2        5 GROUP        1 Z    SEL  0     ROOT SEL Z 16
    10 LYL4        2 GROUP        1 Z    LYL  0     **** LYL Z 18
    11 ZIL7       31 GROUP        1 Z    ZIL  0     **** ZIL Z 19
    12 GLL5       10 GROUP        1 Z    GLL  0     **** GLL Z 20
@<TRIPOS>SET

