#    Name: 3zku_HCV_1_ligand
#    Modification time : Tue Mar 25 03:37:55 2014

@<TRIPOS>MOLECULE
3zku_HCV_1_ligand
   50    49     1     0     0
SMALL
NO_CHARGES


@<TRIPOS>ATOM
      1 C8         12.3260   39.1500    5.5620 C.2       1 HCV1329     0.0000 
      2 O1         13.0250   39.8070    4.7920 O.2       1 HCV1329     0.0000 
      3 O2         17.3010   35.9760    4.3620 O.co2     1 HCV1329     0.0000 
      4 C9         12.9280   38.4600    6.7650 C.3       1 HCV1329     0.0000 
      5 C13        17.1800   36.4870    5.4320 C.2       1 HCV1329     0.0000 
      6 C12        15.8700   36.3120    6.2420 C.3       1 HCV1329     0.0000 
      7 C11        15.0060   37.3880    5.6560 C.3       1 HCV1329     0.0000 
      8 C10        13.6500   37.1730    6.3870 C.3       1 HCV1329     0.0000 
      9 N2         15.8900   36.5550    7.6850 N.4       1 HCV1329     0.0000 
     10 O3         18.0610   37.2550    5.9410 O.co2     1 HCV1329     0.0000 
     11 N1         11.0190   38.9400    5.3640 N.am      1 HCV1329     0.0000 
     12 C5         10.1070   39.9270    4.7830 C.3       1 HCV1329     0.0000 
     13 C6         10.8180   41.2500    4.5340 C.3       1 HCV1329     0.0000 
     14 C7         11.1310   41.8450    5.9310 C.3       1 HCV1329     0.0000 
     15 S          10.6210   40.7720    7.3020 S.3       1 HCV1329     0.0000 
     16 C4          9.3730   39.3240    3.5880 C.2       1 HCV1329     0.0000 
     17 O           9.3690   39.8310    2.4340 O.2       1 HCV1329     0.0000 
     18 N           8.5910   38.3030    3.9690 N.am      1 HCV1329     0.0000 
     19 C3          7.3330   38.6870    4.5750 C.3       1 HCV1329     0.0000 
     20 C1          6.8790   40.0140    3.9230 C.3       1 HCV1329     0.0000 
     21 C           5.9970   40.8270    4.8740 C.3       1 HCV1329     0.0000 
     22 C2          6.1970   39.8140    2.5230 C.3       1 HCV1329     0.0000 
     23 C14         7.4160   38.7780    6.0900 C.2       1 HCV1329     0.0000 
     24 O5          6.3630   38.8840    6.7090 O.co2     1 HCV1329     0.0000 
     25 O4          8.6160   38.7300    6.6830 O.co2     1 HCV1329     0.0000 
     26 H          12.1354   38.2257    7.4857 H         1 HCV1329     0.0000 
     27 H          13.6381   39.1362    7.2560 H         1 HCV1329     0.0000 
     28 H          15.4266   35.3801    5.9810 H         1 HCV1329     0.0000 
     29 H          14.8610   37.2359    4.6207 H         1 HCV1329     0.0000 
     30 H          15.3755   38.3467    5.9018 H         1 HCV1329     0.0000 
     31 H          13.0008   36.5667    5.7350 H         1 HCV1329     0.0000 
     32 H          13.8401   36.5792    7.2955 H         1 HCV1329     0.0000 
     33 H          10.5692   38.0217    5.6264 H         1 HCV1329     0.0000 
     34 H           9.3165   40.1319    5.5636 H         1 HCV1329     0.0000 
     35 H          10.1743   41.9199    4.0069 H         1 HCV1329     0.0000 
     36 H          11.7357   41.0821    4.0139 H         1 HCV1329     0.0000 
     37 H          10.5929   42.7515    6.1295 H         1 HCV1329     0.0000 
     38 H          12.1820   41.9677    6.1072 H         1 HCV1329     0.0000 
     39 H           8.8097   37.3390    3.8667 H         1 HCV1329     0.0000 
     40 H           6.5660   37.9403    4.3165 H         1 HCV1329     0.0000 
     41 H           7.7976   40.6145    3.7404 H         1 HCV1329     0.0000 
     42 H          16.5279   35.9453    8.1555 H         1 HCV1329     0.0000 
     43 H          16.1669   37.4915    7.9001 H         1 HCV1329     0.0000 
     44 H          14.9904   36.4132    8.0980 H         1 HCV1329     0.0000 
     45 H           6.4787   41.0611    5.7185 H         1 HCV1329     0.0000 
     46 H           5.6976   41.6864    4.4595 H         1 HCV1329     0.0000 
     47 H           5.1727   40.3253    5.1363 H         1 HCV1329     0.0000 
     48 H           6.8126   39.3735    1.8696 H         1 HCV1329     0.0000 
     49 H           5.3791   39.2421    2.5866 H         1 HCV1329     0.0000 
     50 H           5.9153   40.6845    2.1193 H         1 HCV1329     0.0000 
@<TRIPOS>BOND
     1    2    1 2    
     2    4    1 1    
     3   11    1 am   
     4    5    3 ar   
     5    8    4 1    
     6   26    4 1    
     7   27    4 1    
     8    6    5 1    
     9   10    5 ar   
    10    7    6 1    
    11    9    6 1    
    12   28    6 1    
    13    8    7 1    
    14   29    7 1    
    15   30    7 1    
    16   31    8 1    
    17   32    8 1    
    18   42    9 1    
    19   43    9 1    
    20   44    9 1    
    21   12   11 1    
    22   33   11 1    
    23   13   12 1    
    24   16   12 1    
    25   34   12 1    
    26   14   13 1    
    27   35   13 1    
    28   36   13 1    
    29   15   14 1    
    30   37   14 1    
    31   38   14 1    
    32   17   16 2    
    33   18   16 am   
    34   19   18 1    
    35   39   18 1    
    36   20   19 1    
    37   23   19 1    
    38   40   19 1    
    39   21   20 1    
    40   22   20 1    
    41   41   20 1    
    42   45   21 1    
    43   46   21 1    
    44   47   21 1    
    45   48   22 1    
    46   49   22 1    
    47   50   22 1    
    48   24   23 ar   
    49   25   23 ar   
@<TRIPOS>SUBSTRUCTURE
     1 HCV1329     1 GROUP   
@<TRIPOS>SET

