#    Name: 3byu_AM6_1_INTS_M
#    Modification time : Mon Mar 24 20:14:07 2014

@<TRIPOS>MOLECULE
3byu_AM6_1_INTS_M
  116     0     9     0     0
SMALL
NO_CHARGES


@<TRIPOS>ATOM
      1 CA         15.8400   -0.8680   44.1830 C.3       3 GLC5        0.0000 
      2 CA         15.5150   -1.7630   42.1840 C.3       9 GLL5        0.0000 
      3 CA         16.1650    0.0270   46.1820 C.3       6 GLP5        0.0000 
      4 CA         13.8450   -1.8350   41.0360 C.3       3 GLC5        0.0000 
      5 CA         12.1750   -1.9070   39.8880 C.3       6 GLP5        0.0000 
      6 CA         14.6500   -1.6905   39.9140 C.3       3 GLC5        0.0000 
      7 CA         16.0080   -0.7930   41.2340 C.3       9 GLL5        0.0000 
      8 CA         13.2920   -2.5880   38.5940 C.3       6 GLP5        0.0000 
      9 CA         11.3885    4.4035   33.6490 C.3       3 GLC5        0.0000 
     10 CA         11.1300    3.3030   35.4990 C.3       9 GLL5        0.0000 
     11 CA         11.6470    5.5040   31.7990 C.3       6 GLP5        0.0000 
     12 CA         10.1530    4.6890   35.4455 C.3       3 GLC5        0.0000 
     13 CA          9.1760    6.0750   35.3920 C.3       6 GLP5        0.0000 
     14 CA         11.2010    0.0155   37.0490 C.3       3 GLC5        0.0000 
     15 CA         11.5220    1.3120   35.2520 C.3       9 GLL5        0.0000 
     16 CA         10.8800   -1.2810   38.8460 C.3       6 GLP5        0.0000 
     17 CA          9.9015    0.6490   34.3890 C.3       3 GLC5        0.0000 
     18 CA          8.2810   -0.0140   33.5260 C.3       6 GLP5        0.0000 
     19 CA         12.3710    4.2240   33.3880 C.3       3 GLC5        0.0000 
     20 CA         13.0950    2.9440   34.9770 C.3       9 GLL5        0.0000 
     21 CA         14.5340    3.9835   34.0070 C.3       3 GLC5        0.0000 
     22 CA         15.9730    5.0230   33.0370 C.3       6 GLP5        0.0000 
     23 CA         17.3565   -1.7630   38.9695 C.3       3 GLC5        0.0000 
     24 CA         17.3920   -0.6740   40.9050 C.3       9 GLL5        0.0000 
     25 CA         17.3210   -2.8520   37.0340 C.3       6 GLP5        0.0000 
     26 CA         20.1150   -4.4825   42.2960 C.3       3 GLC5        0.0000 
     27 CA         18.8380   -3.4970   43.0680 C.3       9 GLL5        0.0000 
     28 CA         21.3920   -5.4680   41.5240 C.3       6 GLP5        0.0000 
     29 CA         19.2175   -4.9205   44.3640 C.3       3 GLC5        0.0000 
     30 CA         19.5970   -6.3440   45.6600 C.3       6 GLP5        0.0000 
     31 N          23.6240   -4.2715   37.4755 N.am      2 SEC2        0.0000 
     32 N          23.1340   -3.3940   38.5690 N.am      8 SEL2        0.0000 
     33 N          24.1140   -5.1490   36.3820 N.am      5 SEP2        0.0000 
     34 CA         22.4650   -5.1360   38.2385 C.3       3 GLC5        0.0000 
     35 CA         21.8460   -3.2760   38.8860 C.3       9 GLL5        0.0000 
     36 CA         23.0840   -6.9960   37.5910 C.3       6 GLP5        0.0000 
     37 CA         22.3890   -3.1325   36.8330 C.3       3 GLC5        0.0000 
     38 CA         22.9320   -2.9890   34.7800 C.3       6 GLP5        0.0000 
     39 CA         24.1585   -2.7150   42.0515 C.3       3 GLC5        0.0000 
     40 CA         22.4320   -1.9440   40.9170 C.3       9 GLL5        0.0000 
     41 CA         25.8850   -3.4860   43.1860 C.3       6 GLP5        0.0000 
     42 CA         22.4815   -1.8300   42.9450 C.3       3 GLC5        0.0000 
     43 CA         22.5310   -1.7160   44.9730 C.3       6 GLP5        0.0000 
     44 CA         24.9310   -3.1465   41.2930 C.3       3 GLC5        0.0000 
     45 CA         23.9770   -2.8070   39.4000 C.3       9 GLL5        0.0000 
     46 CA         22.6845   -4.1375   40.4620 C.3       3 GLC5        0.0000 
     47 CA         24.1885   -2.9290   37.2650 C.3       3 GLC5        0.0000 
     48 CA         24.4000   -3.0510   35.1300 C.3       6 GLP5        0.0000 
     49 CA         22.9645   -1.5420   38.2665 C.3       3 GLC5        0.0000 
     50 CA         21.9520   -0.2770   37.1330 C.3       6 GLP5        0.0000 
     51 O          19.2875   -3.7145   40.0655 O.2       1 ALC1        0.0000 
     52 O          20.1570   -2.4150   40.3940 O.2       7 ALL1        0.0000 
     53 O          18.4180   -5.0140   39.7370 O.2       4 ALP1        0.0000 
     54 O          25.9205   -3.3500   37.9740 O.2       1 ALC1        0.0000 
     55 O          25.2210   -2.8840   39.1070 O.2       7 ALL1        0.0000 
     56 O          26.6200   -3.8160   36.8410 O.2       4 ALP1        0.0000 
     57 N          16.5825    2.4525   38.6775 N.am      2 SEC2        0.0000 
     58 N          16.2740    0.9610   38.7930 N.am      8 SEL2        0.0000 
     59 N          16.8910    3.9440   38.5620 N.am      5 SEP2        0.0000 
     60 CA         13.9305   -0.8560   37.5665 C.3       3 GLC5        0.0000 
     61 CA         14.5690    0.8760   36.5390 C.3       9 GLL5        0.0000 
     62 CA         15.8455   -0.4595   36.2435 C.3       3 GLC5        0.0000 
     63 CA         17.1220   -1.7950   35.9480 C.3       6 GLP5        0.0000 
     64 CA         25.8830   -2.0545   41.6075 C.3       3 GLC5        0.0000 
     65 CA         25.8810   -0.6230   40.0290 C.3       9 GLL5        0.0000 
     66 CA         29.5160    0.0955   38.7645 C.3       3 GLC5        0.0000 
     67 CA         30.8280   -0.0750   40.3670 C.3       9 GLL5        0.0000 
     68 CA         28.2040    0.2660   37.1620 C.3       6 GLP5        0.0000 
     69 CA         14.5265   -3.3217   43.1523 C.3       3 GLC5        0.0000 
     70 CA         16.4110   -2.6680   42.8290 C.3       9 GLL5        0.0000 
     71 CA         13.0900   -4.4280   43.7980 C.3       6 GLP5        0.0000 
     72 CA         16.0350   -3.4443   41.4072 C.3       3 GLC5        0.0000 
     73 CA         16.1070   -4.6730   40.3080 C.3       6 GLP5        0.0000 
     74 CA         16.4035   -2.7033   40.6887 C.3       3 GLC5        0.0000 
     75 CA         12.9027   -0.0645   39.6977 C.3       3 GLC5        0.0000 
     76 CA         14.0420    1.4690   39.0110 C.3       9 GLL5        0.0000 
     77 CA         14.3052    3.5395   39.3962 C.3       3 GLC5        0.0000 
     78 CA         14.9800    5.3010   39.2850 C.3       6 GLP5        0.0000 
     79 CA         12.0070    1.6292   41.3212 C.3       3 GLC5        0.0000 
     80 CA         13.2190    2.0870   40.0040 C.3       9 GLL5        0.0000 
     81 CA         11.3750    0.8170   42.8280 C.3       6 GLP5        0.0000 
     82 CA         11.3872    0.7792   38.8907 C.3       3 GLC5        0.0000 
     83 CA         12.0590    2.7960   39.6250 C.3       9 GLL5        0.0000 
     84 CA         13.4373    4.0702   39.1103 C.3       3 GLC5        0.0000 
     85 CA         11.7300    2.8830   38.2460 C.3       9 GLL5        0.0000 
     86 CA         11.9998    0.3153   38.1208 C.3       3 GLC5        0.0000 
     87 CA         12.5280    2.2750   37.1970 C.3       9 GLL5        0.0000 
     88 CA         14.0498    3.6063   38.3402 C.3       3 GLC5        0.0000 
     89 CA         13.7110    1.5480   37.5940 C.3       9 GLL5        0.0000 
     90 CA         15.8395    2.0550   36.7648 C.3       3 GLC5        0.0000 
     91 CA         17.5390    2.8980   36.4630 C.3       6 GLP5        0.0000 
     92 CA          9.7180    2.5793   34.9695 C.3       3 GLC5        0.0000 
     93 CA         12.0700    2.4480   35.7070 C.3       9 GLL5        0.0000 
     94 CA          7.8360    2.2830   34.3360 C.3       6 GLP5        0.0000 
     95 CA         12.2197    1.7420   33.3871 C.3       3 GLC5        0.0000 
     96 CA         11.9940    1.0720   31.5460 C.3       6 GLP5        0.0000 
     97 CA         17.5565   -2.6599   44.6450 C.3       3 GLC5        0.0000 
     98 CA         17.7970   -2.5650   42.4910 C.3       9 GLL5        0.0000 
     99 CA         17.1420   -2.2630   46.4260 C.3       6 GLP5        0.0000 
    100 CA         17.2695   -3.7300   41.4276 C.3       3 GLC5        0.0000 
    101 CA         21.7159   -3.9474   40.8610 C.3       3 GLC5        0.0000 
    102 CA         21.4490   -2.5430   40.0720 C.3       9 GLL5        0.0000 
    103 CA         21.9959   -1.3519   38.6655 C.3       3 GLC5        0.0000 
    104 CA         27.9423    0.0230   38.7903 C.3       3 GLC5        0.0000 
    105 CA         27.0160    0.1090   40.4560 C.3       9 GLL5        0.0000 
    106 CA         28.3735   -2.2277   41.8653 C.3       3 GLC5        0.0000 
    107 CA         28.3450   -0.5490   40.3810 C.3       9 GLL5        0.0000 
    108 CA         28.3320   -3.2000   43.5950 C.3       6 GLP5        0.0000 
    109 CA         28.0475   -1.0470   38.4180 C.3       3 GLC5        0.0000 
    110 CA         28.4850   -1.9620   39.8900 C.3       9 GLL5        0.0000 
    111 CA         26.2940   -2.9340   41.3490 C.3       3 GLC5        0.0000 
    112 CA         27.2970   -2.7580   39.4580 C.3       9 GLL5        0.0000 
    113 CA         27.0995   -0.5242   38.4798 C.3       3 GLC5        0.0000 
    114 CA         26.1090   -2.0060   39.5660 C.3       9 GLL5        0.0000 
    115 CA         25.1629   -0.0257   38.5641 C.3       3 GLC5        0.0000 
    116 CA         24.0470    1.0800   37.2240 C.3       6 GLP5        0.0000 
@<TRIPOS>BOND
@<TRIPOS>SUBSTRUCTURE
     1 ALC1       51 GROUP        1 X    ALC  0     ROOT ALC X 1
     2 SEC2       31 GROUP        1 X    SEC  0     **** SEC X 2
     3 GLC5        1 GROUP        1 X    GLC  0     **** GLC X 6
     4 ALP1       53 GROUP        1 Y    ALP  0     ROOT ALP Y 8
     5 SEP2       33 GROUP        1 Y    SEP  0     **** SEP Y 9
     6 GLP5        3 GROUP        1 Y    GLP  0     **** GLP Y 13
     7 ALL1       52 GROUP        1 Z    ALL  0     ROOT ALL Z 15
     8 SEL2       32 GROUP        1 Z    SEL  0     **** SEL Z 16
     9 GLL5        2 GROUP        1 Z    GLL  0     **** GLL Z 20
@<TRIPOS>SET

