#    Name: 3byu_AM6_1_ligand
#    Modification time : Mon Mar 24 20:14:07 2014

@<TRIPOS>MOLECULE
3byu_AM6_1_ligand
   77    81     1     0     0
SMALL
NO_CHARGES


@<TRIPOS>ATOM
      1 C9         16.4110   -2.6680   42.8290 C.ar      1 AM61        0.0000 
      2 C10        15.5150   -1.7630   42.1840 C.ar      1 AM61        0.0000 
      3 C11        16.0080   -0.7930   41.2340 C.ar      1 AM61        0.0000 
      4 N3         15.0810   -0.0140   40.5860 N.am      1 AM61        0.0000 
      5 C7         15.2360    0.7860   39.4390 C.2       1 AM61        0.0000 
      6 C14        14.0420    1.4690   39.0110 C.ar      1 AM61        0.0000 
      7 C15        13.2190    2.0870   40.0040 C.ar      1 AM61        0.0000 
      8 C19        12.0590    2.7960   39.6250 C.ar      1 AM61        0.0000 
      9 C18        11.7300    2.8830   38.2460 C.ar      1 AM61        0.0000 
     10 C17        12.5280    2.2750   37.1970 C.ar      1 AM61        0.0000 
     11 C16        13.7110    1.5480   37.5940 C.ar      1 AM61        0.0000 
     12 C20        12.0700    2.4480   35.7070 C.3       1 AM61        0.0000 
     13 F1         11.1300    3.3030   35.4990 F         1 AM61        0.0000 
     14 F3         11.5220    1.3120   35.2520 F         1 AM61        0.0000 
     15 F2         13.0950    2.9440   34.9770 F         1 AM61        0.0000 
     16 C12        17.3920   -0.6740   40.9050 C.ar      1 AM61        0.0000 
     17 C13        18.2550   -1.5890   41.5620 C.ar      1 AM61        0.0000 
     18 C21        17.7970   -2.5650   42.4910 C.ar      1 AM61        0.0000 
     19 C22        18.8380   -3.4970   43.0680 C.3       1 AM61        0.0000 
     20 N1         23.1340   -3.3940   38.5690 N.ar      1 AM61        0.0000 
     21 C23        21.8460   -3.2760   38.8860 C.ar      1 AM61        0.0000 
     22 C24        21.4490   -2.5430   40.0720 C.ar      1 AM61        0.0000 
     23 C25        22.4320   -1.9440   40.9170 C.ar      1 AM61        0.0000 
     24 N4         23.6340   -2.1080   40.5390 N.ar      1 AM61        0.0000 
     25 C26        23.9770   -2.8070   39.4000 C.ar      1 AM61        0.0000 
     26 N6         20.1570   -2.4150   40.3940 N.am      1 AM61        0.0000 
     27 C8         19.6470   -1.4760   41.2770 C.2       1 AM61        0.0000 
     28 O2         20.2570   -0.5640   41.8300 O.2       1 AM61        0.0000 
     29 N7         25.2210   -2.8840   39.1070 N.pl3     1 AM61        0.0000 
     30 O1         16.2740    0.9610   38.7930 O.2       1 AM61        0.0000 
     31 C27        14.5690    0.8760   36.5390 C.3       1 AM61        0.0000 
     32 C28        27.0160    0.1090   40.4560 C.ar      1 AM61        0.0000 
     33 C29        28.3450   -0.5490   40.3810 C.ar      1 AM61        0.0000 
     34 C30        28.4850   -1.9620   39.8900 C.ar      1 AM61        0.0000 
     35 C31        27.2970   -2.7580   39.4580 C.ar      1 AM61        0.0000 
     36 C5         26.1090   -2.0060   39.5660 C.ar      1 AM61        0.0000 
     37 C32        25.8810   -0.6230   40.0290 C.ar      1 AM61        0.0000 
     38 C1         30.1370    1.0030   42.9610 C.3       1 AM61        0.0000 
     39 N2         31.4820    0.7410   42.3210 N.4       1 AM61        0.0000 
     40 C3         31.5920   -0.5110   41.4800 C.3       1 AM61        0.0000 
     41 C4         30.8280   -0.0750   40.3670 C.3       1 AM61        0.0000 
     42 N5         29.3840    0.2420   40.7710 N.3       1 AM61        0.0000 
     43 C6         29.3780    1.4240   41.7860 C.3       1 AM61        0.0000 
     44 C2         32.1540    0.3250   43.5220 C.3       1 AM61        0.0000 
     45 H          16.0868   -3.3417   43.4854 H         1 AM61        0.0000 
     46 H          14.5193   -1.7956   42.3902 H         1 AM61        0.0000 
     47 H          14.0734   -0.0064   41.0141 H         1 AM61        0.0000 
     48 H          13.4783    2.0104   40.9875 H         1 AM61        0.0000 
     49 H          11.4699    3.2356   40.3197 H         1 AM61        0.0000 
     50 H          10.8797    3.4042   37.9614 H         1 AM61        0.0000 
     51 H          17.7212   -0.0014   40.2652 H         1 AM61        0.0000 
     52 H          21.0886   -3.6884   38.3198 H         1 AM61        0.0000 
     53 H          22.1146   -1.4440   41.7357 H         1 AM61        0.0000 
     54 H          19.4459   -3.0808   39.9448 H         1 AM61        0.0000 
     55 H          25.5791   -3.6702   38.4755 H         1 AM61        0.0000 
     56 H          26.9571    1.0409   40.8019 H         1 AM61        0.0000 
     57 H          29.3978   -2.3768   39.8528 H         1 AM61        0.0000 
     58 H          27.3779   -3.6517   39.1567 H         1 AM61        0.0000 
     59 H          24.9654   -0.2496   40.0303 H         1 AM61        0.0000 
     60 H          30.2296    1.7856   43.6631 H         1 AM61        0.0000 
     61 H          29.7596    0.1035   43.3640 H         1 AM61        0.0000 
     62 H          31.9017    1.5556   41.9243 H         1 AM61        0.0000 
     63 H          31.1379   -1.3100   41.9982 H         1 AM61        0.0000 
     64 H          32.6068   -0.6716   41.2400 H         1 AM61        0.0000 
     65 H          30.7865   -0.8392   39.5719 H         1 AM61        0.0000 
     66 H          31.2494    0.8373   39.9109 H         1 AM61        0.0000 
     67 H          29.8326    2.2761   41.3016 H         1 AM61        0.0000 
     68 H          28.3486    1.6409   42.0326 H         1 AM61        0.0000 
     69 H          19.7548   -3.2849   42.7296 H         1 AM61        0.0000 
     70 H          18.8738   -3.4417   44.0658 H         1 AM61        0.0000 
     71 H          18.6527   -4.4514   42.8338 H         1 AM61        0.0000 
     72 H          15.5057    1.2262   36.5438 H         1 AM61        0.0000 
     73 H          14.6249   -0.1124   36.6801 H         1 AM61        0.0000 
     74 H          14.2067    1.0207   35.6182 H         1 AM61        0.0000 
     75 H          33.0515   -0.0707   43.3273 H         1 AM61        0.0000 
     76 H          32.3007    1.0897   44.1494 H         1 AM61        0.0000 
     77 H          31.6306   -0.3664   44.0200 H         1 AM61        0.0000 
@<TRIPOS>BOND
     1    2    1 ar   
     2   18    1 ar   
     3   45    1 1    
     4    3    2 ar   
     5   46    2 1    
     6    4    3 1    
     7   16    3 ar   
     8    5    4 am   
     9   47    4 1    
    10    6    5 1    
    11   30    5 2    
    12    7    6 ar   
    13   11    6 ar   
    14    8    7 ar   
    15   48    7 1    
    16    9    8 ar   
    17   49    8 1    
    18   10    9 ar   
    19   50    9 1    
    20   11   10 ar   
    21   12   10 1    
    22   31   11 1    
    23   13   12 1    
    24   14   12 1    
    25   15   12 1    
    26   17   16 ar   
    27   51   16 1    
    28   18   17 ar   
    29   27   17 1    
    30   19   18 1    
    31   69   19 1    
    32   70   19 1    
    33   71   19 1    
    34   21   20 ar   
    35   25   20 ar   
    36   22   21 ar   
    37   52   21 1    
    38   23   22 ar   
    39   26   22 1    
    40   24   23 ar   
    41   53   23 1    
    42   25   24 ar   
    43   29   25 1    
    44   27   26 am   
    45   54   26 1    
    46   28   27 2    
    47   36   29 1    
    48   55   29 1    
    49   72   31 1    
    50   73   31 1    
    51   74   31 1    
    52   33   32 ar   
    53   37   32 ar   
    54   56   32 1    
    55   34   33 ar   
    56   42   33 1    
    57   35   34 ar   
    58   57   34 1    
    59   36   35 ar   
    60   58   35 1    
    61   37   36 ar   
    62   59   37 1    
    63   39   38 1    
    64   43   38 1    
    65   60   38 1    
    66   61   38 1    
    67   40   39 1    
    68   44   39 1    
    69   62   39 1    
    70   41   40 1    
    71   63   40 1    
    72   64   40 1    
    73   42   41 1    
    74   65   41 1    
    75   66   41 1    
    76   43   42 1    
    77   67   43 1    
    78   68   43 1    
    79   75   44 1    
    80   76   44 1    
    81   77   44 1    
@<TRIPOS>SUBSTRUCTURE
     1 AM61        1 GROUP   
@<TRIPOS>SET

