#    Name: 2OKC_2_CAVITY_N1_6.mol2
#    Modification time : Tue Mar 11 03:02:13 2014

@<TRIPOS>MOLECULE
2OKC_2_CAVITY_N1_6.mol2
   88     0     6     0     0
SMALL
NO_CHARGES


@<TRIPOS>ATOM
      1 NZ         41.6974   49.4043   74.1122 N.2       3 LYS4        0.0000 
      2 N          40.2790   49.2236   74.5654 N.2       2 ALA2        0.0000 
      3 N          38.8606   49.0428   75.0186 N.2       2 ALA2        0.0000 
      4 CA         40.2757   47.8339   74.0007 C.3       5 GLY6        0.0000 
      5 CA         42.1886   50.2590   75.9906 C.3       5 GLY6        0.0000 
      6 N          40.7702   50.0782   76.4438 N.2       2 ALA2        0.0000 
      7 N          40.7669   48.6886   75.8791 N.2       2 ALA2        0.0000 
      8 N          39.3485   48.5078   76.3323 N.2       2 ALA2        0.0000 
      9 CZ         40.7282   53.2536   72.6143 C.ar      4 PHE5        0.0000 
     10 CZ         39.3098   53.0728   73.0675 C.ar      4 PHE5        0.0000 
     11 N          37.8914   52.8921   73.5207 N.2       2 ALA2        0.0000 
     12 N          40.7249   51.8640   72.0496 N.2       2 ALA2        0.0000 
     13 CA         39.3065   51.6832   72.5028 C.3       5 GLY6        0.0000 
     14 CA         37.8881   51.5024   72.9560 C.3       5 GLY6        0.0000 
     15 CA         36.4696   51.3217   73.4092 C.3       5 GLY6        0.0000 
     16 N          42.1400   50.6551   71.0317 N.2       2 ALA2        0.0000 
     17 N          40.7216   50.4743   71.4849 N.2       2 ALA2        0.0000 
     18 CA         39.3032   50.2936   71.9381 C.3       5 GLY6        0.0000 
     19 O          43.5551   49.4462   70.0138 O.2       2 ALA2        0.0000 
     20 CZ         42.1367   49.2654   70.4670 C.ar      4 PHE5        0.0000 
     21 CA         40.7183   49.0847   70.9202 C.3       5 GLY6        0.0000 
     22 CZ         41.2161   52.7186   73.9280 C.ar      4 PHE5        0.0000 
     23 CZ         39.7977   52.5378   74.3812 C.ar      4 PHE5        0.0000 
     24 NZ         41.2128   51.3290   73.3633 N.2       3 LYS4        0.0000 
     25 N          39.7944   51.1482   73.8165 N.2       2 ALA2        0.0000 
     26 NZ         42.6279   50.1201   72.3454 N.2       3 LYS4        0.0000 
     27 NZ         41.2095   49.9393   72.7986 N.2       3 LYS4        0.0000 
     28 CA         39.7911   49.7586   73.2518 C.3       5 GLY6        0.0000 
     29 CA         38.3726   49.5778   73.7050 C.3       5 GLY6        0.0000 
     30 CA         42.6246   48.7305   71.7807 C.3       5 GLY6        0.0000 
     31 CA         41.2062   48.5497   72.2339 C.3       5 GLY6        0.0000 
     32 NZ         41.7007   50.7940   74.6769 N.2       3 LYS4        0.0000 
     33 N          40.2823   50.6132   75.1301 N.2       2 ALA2        0.0000 
     34 N          38.3373   55.5325   71.0049 N.2       2 ALA2        0.0000 
     35 OG         39.7524   54.3236   69.9869 O.2       1 SER1        0.0000 
     36 N          38.3340   54.1428   70.4402 N.2       2 ALA2        0.0000 
     37 N          36.9156   53.9621   70.8934 N.2       2 ALA2        0.0000 
     38 N          35.4971   53.7813   71.3466 N.2       2 ALA2        0.0000 
     39 N          39.7491   52.9339   69.4223 N.2       2 ALA2        0.0000 
     40 DU         38.3307   52.7532   69.8755 H         6 CUB7        0.0000 
     41 DU         36.9122   52.5724   70.3287 H         6 CUB7        0.0000 
     42 N          35.4938   52.3916   70.7819 N.2       2 ALA2        0.0000 
     43 O          39.7457   51.5443   68.8576 O.2       2 ALA2        0.0000 
     44 CA         38.3273   51.3635   69.3108 C.3       5 GLY6        0.0000 
     45 CA         36.9089   51.1828   69.7640 C.3       5 GLY6        0.0000 
     46 CA         35.4905   51.0020   70.2172 C.3       5 GLY6        0.0000 
     47 O          41.1608   50.3354   67.8397 O.2       2 ALA2        0.0000 
     48 O          39.7424   50.1547   68.2929 O.2       2 ALA2        0.0000 
     49 CA         38.3240   49.9739   68.7461 C.3       5 GLY6        0.0000 
     50 NZ         42.5759   49.1266   66.8217 N.2       3 LYS4        0.0000 
     51 CZ         41.1575   48.9458   67.2750 C.ar      4 PHE5        0.0000 
     52 CZ         39.7391   48.7650   67.7282 C.ar      4 PHE5        0.0000 
     53 OG         40.2436   55.1782   71.8653 O.2       1 SER1        0.0000 
     54 N          38.8252   54.9975   72.3185 N.2       2 ALA2        0.0000 
     55 OG         40.2403   53.7886   71.3006 O.2       1 SER1        0.0000 
     56 N          38.8219   53.6078   71.7538 N.2       2 ALA2        0.0000 
     57 N          37.4035   53.4271   72.2070 N.2       2 ALA2        0.0000 
     58 N          40.2370   52.3990   70.7359 N.2       2 ALA2        0.0000 
     59 DU         38.8186   52.2182   71.1891 H         6 CUB7        0.0000 
     60 CA         37.4001   52.0374   71.6423 C.3       5 GLY6        0.0000 
     61 CA         35.9817   51.8566   72.0955 C.3       5 GLY6        0.0000 
     62 N          40.2337   51.0093   70.1712 N.2       2 ALA2        0.0000 
     63 CA         38.8152   50.8285   70.6244 C.3       5 GLY6        0.0000 
     64 N          43.0672   49.9812   68.7001 N.2       2 ALA2        0.0000 
     65 N          41.6488   49.8004   69.1533 N.2       2 ALA2        0.0000 
     66 CA         40.2303   49.6197   69.6065 C.3       5 GLY6        0.0000 
     67 CZ         43.0639   48.5916   68.1354 C.ar      4 PHE5        0.0000 
     68 O          40.1950   55.5743   66.9064 O.2       2 ALA2        0.0000 
     69 O          40.1917   54.1847   66.3417 O.2       2 ALA2        0.0000 
     70 O          40.1883   52.7951   65.7770 O.2       2 ALA2        0.0000 
     71 CA         41.2581   49.5432   77.7575 C.3       5 GLY6        0.0000 
     72 O          39.8397   49.3625   78.2107 O.2       2 ALA2        0.0000 
     73 N          41.2548   48.1536   77.1928 N.2       2 ALA2        0.0000 
     74 N          39.8364   47.9728   77.6460 N.2       2 ALA2        0.0000 
     75 O          40.6829   55.0394   68.2201 O.2       2 ALA2        0.0000 
     76 CA         39.2645   54.8586   68.6733 C.3       5 GLY6        0.0000 
     77 CA         37.8461   54.6778   69.1265 C.3       5 GLY6        0.0000 
     78 CA         36.4276   54.4970   69.5797 C.3       5 GLY6        0.0000 
     79 O          39.2612   53.4689   68.1086 O.2       2 ALA2        0.0000 
     80 CA         37.8427   53.2882   68.5618 C.3       5 GLY6        0.0000 
     81 N          36.4243   53.1074   69.0150 N.2       2 ALA2        0.0000 
     82 O          39.2578   52.0793   67.5439 O.2       2 ALA2        0.0000 
     83 CA         37.8394   51.8985   67.9971 C.3       5 GLY6        0.0000 
     84 O          40.6729   50.8704   66.5260 O.2       2 ALA2        0.0000 
     85 O          39.2545   50.6897   66.9792 O.2       2 ALA2        0.0000 
     86 O          37.8361   50.5089   67.4324 O.2       2 ALA2        0.0000 
     87 O          40.6696   49.4808   65.9613 O.2       2 ALA2        0.0000 
     88 N          39.2512   49.3000   66.4145 N.2       2 ALA2        0.0000 
@<TRIPOS>BOND
@<TRIPOS>SUBSTRUCTURE
     1 SER1       35 GROUP   
     2 ALA2        2 GROUP   
     3 LYS4        1 GROUP   
     4 PHE5        9 GROUP   
     5 GLY6        4 GROUP   
     6 CUB7       40 GROUP   
@<TRIPOS>SET

