#    Name: 2okc_SAM_2_INTS_M
#    Modification time : Tue Mar 25 22:51:57 2014

@<TRIPOS>MOLECULE
2okc_SAM_2_INTS_M
   79     0    12     0     0
SMALL
NO_CHARGES


@<TRIPOS>ATOM
      1 O          40.8435   46.1980   80.5785 O.2       1 ALC1        0.0000 
      2 O          42.0360   46.2300   80.1910 O.2       9 ALL1        0.0000 
      3 O          39.6510   46.1660   80.9660 O.2       5 ALP1        0.0000 
      4 O          42.3535   45.6645   78.7845 O.2       1 ALC1        0.0000 
      5 O          42.6710   45.0990   77.3780 O.2       5 ALP1        0.0000 
      6 N          42.9105   48.9965   83.1720 N.am      2 SEC2        0.0000 
      7 N          42.8950   49.5130   81.5020 N.am     10 SEL2        0.0000 
      8 N          42.9260   48.4800   84.8420 N.am      6 SEP2        0.0000 
      9 N          43.9195   50.3495   80.7885 N.am      2 SEC2        0.0000 
     10 N          44.9440   51.1860   80.0750 N.am      6 SEP2        0.0000 
     11 N          43.6695   50.1800   82.2490 N.am      2 SEC2        0.0000 
     12 N          44.4440   50.8470   82.9960 N.am      6 SEP2        0.0000 
     13 NZ         43.2185   48.0515   83.4950 N.4       3 LYC4        0.0000 
     14 NZ         43.5110   47.6230   82.1480 N.4      11 LYL4        0.0000 
     15 NZ         43.7830   48.8100   85.7870 N.4       7 LYP4        0.0000 
     16 N          43.2185   48.0515   83.4950 N.am      2 SEC2        0.0000 
     17 N          43.5110   47.6230   82.1480 N.am     10 SEL2        0.0000 
     18 N          43.9775   49.2350   82.5720 N.am      2 SEC2        0.0000 
     19 N          45.0465   47.5120   82.4325 N.am      2 SEC2        0.0000 
     20 N          46.5820   47.4010   82.7170 N.am      6 SEP2        0.0000 
     21 CA         40.5415   49.6240   80.4200 C.3       4 GLC5        0.0000 
     22 CA         41.3620   48.4070   79.3180 C.3      12 GLL5        0.0000 
     23 CA         39.7210   50.8410   81.5220 C.3       8 GLP5        0.0000 
     24 CA         40.0955   46.2320   78.1225 C.3       4 GLC5        0.0000 
     25 CA         41.1760   48.1550   77.8170 C.3      12 GLL5        0.0000 
     26 CA         39.0150   44.3090   78.4280 C.3       8 GLP5        0.0000 
     27 CA         39.9645   51.0690   77.7095 C.3       4 GLC5        0.0000 
     28 CA         39.9330   49.2510   77.1490 C.3      12 GLL5        0.0000 
     29 CA         39.9960   52.8870   78.2700 C.3       8 GLP5        0.0000 
     30 CA         38.6970   46.4310   78.0825 C.3       4 GLC5        0.0000 
     31 CA         38.3790   48.5530   77.7370 C.3      12 GLL5        0.0000 
     32 CA         39.2815   48.0545   73.5555 C.3       4 GLC5        0.0000 
     33 CA         39.9340   48.9200   75.3600 C.3      12 GLL5        0.0000 
     34 CA         38.6290   47.1890   71.7510 C.3       8 GLP5        0.0000 
     35 CA         42.6320   50.8820   76.2660 C.3       4 GLC5        0.0000 
     36 CA         41.0430   51.1500   74.6960 C.3      12 GLL5        0.0000 
     37 CA         44.2210   50.6140   77.8360 C.3       8 GLP5        0.0000 
     38 O          43.3030   51.3190   74.9395 O.2       1 ALC1        0.0000 
     39 O          42.0970   51.6550   75.4920 O.2       9 ALL1        0.0000 
     40 O          44.5090   50.9830   74.3870 O.2       5 ALP1        0.0000 
     41 N          43.1865   52.6925   72.8705 N.am      2 SEC2        0.0000 
     42 N          41.8460   52.7460   72.8630 N.am     10 SEL2        0.0000 
     43 N          44.5270   52.6390   72.8780 N.am      6 SEP2        0.0000 
     44 CA         42.1190   48.2215   72.7895 C.3       4 GLC5        0.0000 
     45 CA         41.6890   50.2980   72.5660 C.3      12 GLL5        0.0000 
     46 CA         42.5490   46.1450   73.0130 C.3       8 GLP5        0.0000 
     47 CA         40.1590   48.7435   72.1585 C.3       4 GLC5        0.0000 
     48 CA         44.0835   49.4460   66.5005 C.3       4 GLC5        0.0000 
     49 CA         42.2780   49.1940   67.8130 C.3      12 GLL5        0.0000 
     50 CA         45.8890   49.6980   65.1880 C.3       8 GLP5        0.0000 
     51 O          42.6160   48.9305   65.3970 O.2       1 ALC1        0.0000 
     52 O          41.7170   49.1560   66.6080 O.2       9 ALL1        0.0000 
     53 O          43.5150   48.7050   64.1860 O.2       5 ALP1        0.0000 
     54 N          44.6210   48.1025   66.9990 N.am      2 SEC2        0.0000 
     55 N          43.5800   48.7800   67.9550 N.am     10 SEL2        0.0000 
     56 N          45.6620   47.4250   66.0430 N.am      6 SEP2        0.0000 
     57 CA         45.4350   49.6780   70.5420 C.3       4 GLC5        0.0000 
     58 CA         44.2030   48.7790   69.1930 C.3      12 GLL5        0.0000 
     59 CA         46.6670   50.5770   71.8910 C.3       8 GLP5        0.0000 
     60 CA         44.3965   50.5900   68.5485 C.3       4 GLC5        0.0000 
     61 CA         44.5900   52.4010   67.9040 C.3       8 GLP5        0.0000 
     62 CA         45.0460   49.2385   67.1905 C.3       4 GLC5        0.0000 
     63 CA         44.6915   47.0810   68.2870 C.3       4 GLC5        0.0000 
     64 CA         45.1800   45.3830   67.3810 C.3       8 GLP5        0.0000 
     65 N          44.5980   50.5520   70.2080 N.am      2 SEC2        0.0000 
     66 N          43.5300   49.2070   70.3230 N.am     10 SEL2        0.0000 
     67 N          45.6660   51.8970   70.0930 N.am      6 SEP2        0.0000 
     68 CA         42.4020   47.8905   71.6015 C.3       4 GLC5        0.0000 
     69 CA         42.2550   49.6360   70.1900 C.3      12 GLL5        0.0000 
     70 CA         40.7620   47.0487   81.0172 C.3       4 GLC5        0.0000 
     71 CA         39.5960   46.0880   82.3890 C.3       8 GLP5        0.0000 
     72 CA         42.8865   49.3481   78.2836 C.3       4 GLC5        0.0000 
     73 CA         42.4940   47.6120   79.9730 C.3      12 GLL5        0.0000 
     74 CA         41.5267   47.7097   74.0140 C.3       4 GLC5        0.0000 
     75 CA         41.0750   49.6290   74.6700 C.3      12 GLL5        0.0000 
     76 CA         40.8787   53.0580   74.9118 C.3       4 GLC5        0.0000 
     77 CA         40.6680   54.7620   75.8730 C.3       8 GLP5        0.0000 
     78 CA         43.3451   50.9635   68.5946 C.3       4 GLC5        0.0000 
     79 CA         41.6130   49.6380   68.9480 C.3      12 GLL5        0.0000 
@<TRIPOS>BOND
@<TRIPOS>SUBSTRUCTURE
     1 ALC1        1 GROUP        1 X    ALC  0     ROOT ALC X 1
     2 SEC2        6 GROUP        1 X    SEC  0     **** SEC X 2
     3 LYC4       13 GROUP        1 X    LYC  0     **** LYC X 4
     4 GLC5       21 GROUP        1 X    GLC  0     **** GLC X 6
     5 ALP1        3 GROUP        1 Y    ALP  0     ROOT ALP Y 8
     6 SEP2        8 GROUP        1 Y    SEP  0     **** SEP Y 9
     7 LYP4       15 GROUP        1 Y    LYP  0     **** LYP Y 11
     8 GLP5       23 GROUP        1 Y    GLP  0     **** GLP Y 13
     9 ALL1        2 GROUP        1 Z    ALL  0     ROOT ALL Z 15
    10 SEL2        7 GROUP        1 Z    SEL  0     **** SEL Z 16
    11 LYL4       14 GROUP        1 Z    LYL  0     **** LYL Z 18
    12 GLL5       22 GROUP        1 Z    GLL  0     **** GLL Z 20
@<TRIPOS>SET

