#    Name: 2okc_SAM_2_ligand
#    Modification time : Tue Mar 25 22:51:57 2014

@<TRIPOS>MOLECULE
2okc_SAM_2_ligand
   50    52     1     0     0
SMALL
NO_CHARGES


@<TRIPOS>ATOM
      1 N          42.0360   46.2300   80.1910 N.4       1 SAM500      0.0000 
      2 CA         42.4940   47.6120   79.9730 C.3       1 SAM500      0.0000 
      3 C          42.9670   48.2930   81.2800 C.2       1 SAM500      0.0000 
      4 O          42.8950   49.5130   81.5020 O.co2     1 SAM500      0.0000 
      5 OXT        43.5110   47.6230   82.1480 O.co2     1 SAM500      0.0000 
      6 CB         41.3620   48.4070   79.3180 C.3       1 SAM500      0.0000 
      7 CG         41.1760   48.1550   77.8170 C.3       1 SAM500      0.0000 
      8 SD         39.9330   49.2510   77.1490 S.3       1 SAM500      0.0000 
      9 CE         38.3790   48.5530   77.7370 C.3       1 SAM500      0.0000 
     10 C5'        39.9340   48.9200   75.3600 C.3       1 SAM500      0.0000 
     11 C4'        41.0750   49.6290   74.6700 C.3       1 SAM500      0.0000 
     12 O4'        41.0830   49.2590   73.3180 O.3       1 SAM500      0.0000 
     13 C3'        41.0430   51.1500   74.6960 C.3       1 SAM500      0.0000 
     14 O3'        42.0970   51.6550   75.4920 O.3       1 SAM500      0.0000 
     15 C2'        41.1360   51.5580   73.2050 C.3       1 SAM500      0.0000 
     16 O2'        41.8460   52.7460   72.8630 O.3       1 SAM500      0.0000 
     17 C1'        41.6890   50.2980   72.5660 C.3       1 SAM500      0.0000 
     18 N9         41.3890   50.1340   71.1190 N.pl3     1 SAM500      0.0000 
     19 C8         40.2320   50.4240   70.4530 C.2       1 SAM500      0.0000 
     20 N7         40.3770   50.1170   69.1430 N.2       1 SAM500      0.0000 
     21 C5         41.6130   49.6380   68.9480 C.ar      1 SAM500      0.0000 
     22 C6         42.2780   49.1940   67.8130 C.ar      1 SAM500      0.0000 
     23 N6         41.7170   49.1560   66.6080 N.pl3     1 SAM500      0.0000 
     24 N1         43.5800   48.7800   67.9550 N.ar      1 SAM500      0.0000 
     25 C2         44.2030   48.7790   69.1930 C.ar      1 SAM500      0.0000 
     26 N3         43.5300   49.2070   70.3230 N.ar      1 SAM500      0.0000 
     27 C4         42.2550   49.6360   70.1900 C.ar      1 SAM500      0.0000 
     28 H          43.3346   47.6106   79.2755 H         1 SAM500      0.0000 
     29 H          41.5460   49.4863   79.4764 H         1 SAM500      0.0000 
     30 H          40.4139   48.1718   79.8373 H         1 SAM500      0.0000 
     31 H          40.7884   47.1883   77.5999 H         1 SAM500      0.0000 
     32 H          42.0403   48.3905   77.2429 H         1 SAM500      0.0000 
     33 H          38.9649   49.2663   75.0697 H         1 SAM500      0.0000 
     34 H          40.0014   47.8532   75.3317 H         1 SAM500      0.0000 
     35 H          42.0157   49.3103   75.1357 H         1 SAM500      0.0000 
     36 H          40.0662   51.4409   75.0440 H         1 SAM500      0.0000 
     37 H          40.0715   51.5997   72.8587 H         1 SAM500      0.0000 
     38 H          42.7588   50.2870   72.7353 H         1 SAM500      0.0000 
     39 H          39.4351   50.7922   70.8618 H         1 SAM500      0.0000 
     40 H          40.7910   49.5278   66.5418 H         1 SAM500      0.0000 
     41 H          42.2717   48.7591   65.8767 H         1 SAM500      0.0000 
     42 H          45.1829   48.4541   69.2716 H         1 SAM500      0.0000 
     43 H          41.0583   46.1909   80.3971 H         1 SAM500      0.0000 
     44 H          42.1890   45.6567   79.3860 H         1 SAM500      0.0000 
     45 H          42.5141   45.7964   80.9548 H         1 SAM500      0.0000 
     46 H          38.2462   47.6165   77.4125 H         1 SAM500      0.0000 
     47 H          38.3385   48.5257   78.7358 H         1 SAM500      0.0000 
     48 H          37.5916   49.0853   77.4262 H         1 SAM500      0.0000 
     49 H          42.9335   51.3857   75.0148 H         1 SAM500      0.0000 
     50 H          41.2375   53.2417   72.2433 H         1 SAM500      0.0000 
@<TRIPOS>BOND
     1    2    1 1    
     2   43    1 1    
     3   44    1 1    
     4   45    1 1    
     5    3    2 1    
     6    6    2 1    
     7   28    2 1    
     8    4    3 ar   
     9    5    3 ar   
    10    7    6 1    
    11   29    6 1    
    12   30    6 1    
    13    8    7 1    
    14   31    7 1    
    15   32    7 1    
    16    9    8 1    
    17   10    8 1    
    18   46    9 1    
    19   47    9 1    
    20   48    9 1    
    21   11   10 1    
    22   33   10 1    
    23   34   10 1    
    24   12   11 1    
    25   13   11 1    
    26   35   11 1    
    27   17   12 1    
    28   14   13 1    
    29   15   13 1    
    30   36   13 1    
    31   49   14 1    
    32   16   15 1    
    33   17   15 1    
    34   37   15 1    
    35   50   16 1    
    36   18   17 1    
    37   38   17 1    
    38   19   18 1    
    39   27   18 1    
    40   20   19 2    
    41   39   19 1    
    42   21   20 1    
    43   22   21 ar   
    44   27   21 ar   
    45   23   22 1    
    46   24   22 ar   
    47   40   23 1    
    48   41   23 1    
    49   25   24 ar   
    50   26   25 ar   
    51   42   25 1    
    52   27   26 ar   
@<TRIPOS>SUBSTRUCTURE
     1 SAM500      1 GROUP   
@<TRIPOS>SET

