#    Name: 3k73_NAD_4_INTS_M
#    Modification time : Mon Mar 24 18:51:44 2014

@<TRIPOS>MOLECULE
3k73_NAD_4_INTS_M
   82     0     9     0     0
SMALL
NO_CHARGES


@<TRIPOS>ATOM
      1 N           7.3645  -34.5305   20.9810 N.am      2 SEC2        0.0000 
      2 N           8.8010  -34.5660   21.0870 N.am      8 SEL2        0.0000 
      3 N           5.9280  -34.4950   20.8750 N.am      5 SEP2        0.0000 
      4 CA          7.8230  -40.4515   21.5855 C.3       3 GLC5        0.0000 
      5 CA          9.0650  -38.9500   21.8120 C.3       9 GLL5        0.0000 
      6 CA          6.5810  -41.9530   21.3590 C.3       6 GLP5        0.0000 
      7 CA          9.2375  -37.4485   24.9525 C.3       3 GLC5        0.0000 
      8 CA          9.7910  -38.5860   23.1100 C.3       9 GLL5        0.0000 
      9 CA          8.6840  -36.3110   26.7950 C.3       6 GLP5        0.0000 
     10 O           8.7795  -39.6550   25.0770 O.2       1 ALC1        0.0000 
     11 O           8.8110  -38.2720   24.0670 O.2       7 ALL1        0.0000 
     12 O           8.7480  -41.0380   26.0870 O.2       4 ALP1        0.0000 
     13 O           8.0505  -39.4455   24.3000 O.2       1 ALC1        0.0000 
     14 O           7.2900  -40.6190   24.5330 O.2       4 ALP1        0.0000 
     15 O           9.6600  -40.4960   25.5115 O.2       1 ALC1        0.0000 
     16 O          10.5720  -39.9540   24.9360 O.2       7 ALL1        0.0000 
     17 O           8.9310  -40.2865   24.7345 O.2       1 ALC1        0.0000 
     18 CA          8.1525  -41.3910   22.0735 C.3       3 GLC5        0.0000 
     19 CA          9.7240  -40.8290   22.7880 C.3       9 GLL5        0.0000 
     20 CA          9.4605  -42.2130   21.1945 C.3       3 GLC5        0.0000 
     21 CA          9.1970  -43.5970   19.6010 C.3       6 GLP5        0.0000 
     22 CA         11.5785  -44.0330   24.2510 C.3       3 GLC5        0.0000 
     23 CA         11.1390  -44.2390   22.4190 C.3       9 GLL5        0.0000 
     24 CA         12.0180  -43.8270   26.0830 C.3       6 GLP5        0.0000 
     25 CA         12.2020  -45.1865   24.0545 C.3       3 GLC5        0.0000 
     26 CA         12.2310  -45.0350   22.0620 C.3       9 GLL5        0.0000 
     27 CA         12.1730  -45.3380   26.0470 C.3       6 GLP5        0.0000 
     28 CA         12.3635  -46.8705   23.1610 C.3       3 GLC5        0.0000 
     29 CA         12.4960  -48.7060   24.2600 C.3       6 GLP5        0.0000 
     30 O          12.4555  -47.6860   21.8225 O.2       1 ALC1        0.0000 
     31 O          12.0710  -46.3180   21.7360 O.2       7 ALL1        0.0000 
     32 O          12.8400  -49.0540   21.9090 O.2       4 ALP1        0.0000 
     33 CA         13.3515  -43.0550   23.6030 C.3       3 GLC5        0.0000 
     34 CA         13.4220  -42.9470   21.6460 C.3       9 GLL5        0.0000 
     35 CA         13.2810  -43.1630   25.5600 C.3       6 GLP5        0.0000 
     36 CA         11.8365  -42.9190   20.2305 C.3       3 GLC5        0.0000 
     37 CA         10.2510  -42.8910   18.8150 C.3       6 GLP5        0.0000 
     38 CA         13.8905  -43.5015   19.5835 C.3       3 GLC5        0.0000 
     39 CA         14.3590  -44.0560   17.5210 C.3       6 GLP5        0.0000 
     40 CA         12.2670  -42.9850   23.9575 C.3       3 GLC5        0.0000 
     41 CA         11.2530  -42.8070   22.3550 C.3       9 GLL5        0.0000 
     42 N           5.8790  -34.9650   18.4010 N.am      2 SEC2        0.0000 
     43 N           7.2610  -35.1730   18.5330 N.am      8 SEL2        0.0000 
     44 N           4.4970  -34.7570   18.2690 N.am      5 SEP2        0.0000 
     45 CA          7.0155  -35.9270   15.9890 C.3       3 GLC5        0.0000 
     46 CA          8.8110  -37.0880   16.5640 C.3       9 GLL5        0.0000 
     47 CA          5.2200  -34.7660   15.4140 C.3       6 GLP5        0.0000 
     48 CA          7.7360  -39.2735   15.7755 C.3       3 GLC5        0.0000 
     49 CA          9.0210  -37.5770   15.1360 C.3       9 GLL5        0.0000 
     50 CA          6.4510  -40.9700   16.4150 C.3       6 GLP5        0.0000 
     51 N           7.2885  -38.0455   14.0950 N.am      2 SEC2        0.0000 
     52 N           8.1470  -36.9280   14.2420 N.am      8 SEL2        0.0000 
     53 N           6.4300  -39.1630   13.9480 N.am      5 SEP2        0.0000 
     54 CA          7.0435  -35.4285   14.3830 C.3       3 GLC5        0.0000 
     55 CA          8.8670  -36.0910   13.3520 C.3       9 GLL5        0.0000 
     56 CA          9.3285  -37.4995   11.9055 C.3       3 GLC5        0.0000 
     57 CA          9.7900  -38.9080   10.4590 C.3       6 GLP5        0.0000 
     58 CA          6.7215  -34.2675   14.7155 C.3       3 GLC5        0.0000 
     59 CA          8.2230  -33.7690   14.0170 C.3       9 GLL5        0.0000 
     60 O           6.0770  -30.1570   13.2170 O.2       1 ALC1        0.0000 
     61 O           7.4650  -30.2040   13.9920 O.2       7 ALL1        0.0000 
     62 O           4.6890  -30.1100   12.4420 O.2       4 ALP1        0.0000 
     63 O           7.3510  -28.7565   14.0795 O.2       1 ALC1        0.0000 
     64 O           7.2370  -27.3090   14.1670 O.2       4 ALP1        0.0000 
     65 CA          6.3215  -34.7125   13.6980 C.3       3 GLC5        0.0000 
     66 CA          7.4230  -34.6590   11.9820 C.3       9 GLL5        0.0000 
     67 CA          9.4465  -39.9990   19.7840 C.3       3 GLC5        0.0000 
     68 CA          9.2650  -37.9700   20.6620 C.3       9 GLL5        0.0000 
     69 CA          9.7280  -41.5380   18.3310 C.3       6 GLP5        0.0000 
     70 CA          7.8410  -37.5775   22.0933 C.3       3 GLC5        0.0000 
     71 CA          6.2040  -36.6320   22.0130 C.3       6 GLP5        0.0000 
     72 CA         10.3330  -43.6595   20.9494 C.3       3 GLC5        0.0000 
     73 CA         10.8855  -38.9263   15.2323 C.3       3 GLC5        0.0000 
     74 CA         12.0490  -40.4300   15.5710 C.3       6 GLP5        0.0000 
     75 CA          6.5367  -31.7448   10.7542 C.3       3 GLC5        0.0000 
     76 CA          6.8160  -32.4560   12.5760 C.3       9 GLL5        0.0000 
     77 CA          6.2910  -30.5090    9.3830 C.3       6 GLP5        0.0000 
     78 CA          4.9197  -32.6833   11.3448 C.3       3 GLC5        0.0000 
     79 CA          3.0570  -32.3860   10.5640 C.3       6 GLP5        0.0000 
     80 CA          5.7039  -33.2398   13.7366 C.3       3 GLC5        0.0000 
     81 CA          6.7490  -33.5050   11.6750 C.3       9 GLL5        0.0000 
     82 CA          4.4430  -33.4660   15.0600 C.3       6 GLP5        0.0000 
@<TRIPOS>BOND
@<TRIPOS>SUBSTRUCTURE
     1 ALC1       10 GROUP        1 X    ALC  0     ROOT ALC X 1
     2 SEC2        1 GROUP        1 X    SEC  0     **** SEC X 2
     3 GLC5        4 GROUP        1 X    GLC  0     **** GLC X 6
     4 ALP1       12 GROUP        1 Y    ALP  0     ROOT ALP Y 8
     5 SEP2        3 GROUP        1 Y    SEP  0     **** SEP Y 9
     6 GLP5        6 GROUP        1 Y    GLP  0     **** GLP Y 13
     7 ALL1       11 GROUP        1 Z    ALL  0     ROOT ALL Z 15
     8 SEL2        2 GROUP        1 Z    SEL  0     **** SEL Z 16
     9 GLL5        5 GROUP        1 Z    GLL  0     **** GLL Z 20
@<TRIPOS>SET

