#    Name: 3k73_NAD_4_ligand
#    Modification time : Mon Mar 24 18:51:45 2014

@<TRIPOS>MOLECULE
3k73_NAD_4_ligand
   70    74     1     0     0
SMALL
NO_CHARGES


@<TRIPOS>ATOM
      1 PA          9.8860  -35.4210   20.5040 P.3       1 NAD0        0.0000 
      2 O1A         8.8010  -34.5660   21.0870 O.co2     1 NAD0        0.0000 
      3 O2A        11.2500  -34.8900   20.5000 O.co2     1 NAD0        0.0000 
      4 O5B         9.8560  -36.8300   21.2380 O.3       1 NAD0        0.0000 
      5 C5B         9.2650  -37.9700   20.6620 C.3       1 NAD0        0.0000 
      6 C4B         9.0650  -38.9500   21.8120 C.3       1 NAD0        0.0000 
      7 O4B         9.5910  -40.2110   21.5210 O.3       1 NAD0        0.0000 
      8 C3B         9.7910  -38.5860   23.1100 C.3       1 NAD0        0.0000 
      9 O3B         8.8110  -38.2720   24.0670 O.3       1 NAD0        0.0000 
     10 C2B        10.5780  -39.8200   23.5240 C.3       1 NAD0        0.0000 
     11 O2B        10.5720  -39.9540   24.9360 O.3       1 NAD0        0.0000 
     12 C1B         9.7240  -40.8290   22.7880 C.3       1 NAD0        0.0000 
     13 N9A        10.0750  -42.2800   22.7330 N.pl3     1 NAD0        0.0000 
     14 C8A         9.2530  -43.3850   23.0210 C.2       1 NAD0        0.0000 
     15 N7A         9.8910  -44.5900   22.8330 N.2       1 NAD0        0.0000 
     16 C5A        11.1390  -44.2390   22.4190 C.ar      1 NAD0        0.0000 
     17 C6A        12.2310  -45.0350   22.0620 C.ar      1 NAD0        0.0000 
     18 N6A        12.0710  -46.3180   21.7360 N.pl3     1 NAD0        0.0000 
     19 N1A        13.3790  -44.3550   21.6730 N.ar      1 NAD0        0.0000 
     20 C2A        13.4220  -42.9470   21.6460 C.ar      1 NAD0        0.0000 
     21 N3A        12.3520  -42.1420   21.9750 N.ar      1 NAD0        0.0000 
     22 C4A        11.2530  -42.8070   22.3550 C.ar      1 NAD0        0.0000 
     23 O3          9.6160  -35.8160   18.9830 O.3       1 NAD0        0.0000 
     24 PN          8.6710  -34.9390   18.0600 P.3       1 NAD0        0.0000 
     25 O1N         9.2050  -33.5760   17.9300 O.co2     1 NAD0        0.0000 
     26 O2N         7.2610  -35.1730   18.5330 O.co2     1 NAD0        0.0000 
     27 O5D         8.8520  -35.6810   16.6250 O.3       1 NAD0        0.0000 
     28 C5D         8.8110  -37.0880   16.5640 C.3       1 NAD0        0.0000 
     29 C4D         9.0210  -37.5770   15.1360 C.3       1 NAD0        0.0000 
     30 O4D         8.1470  -36.9280   14.2420 O.3       1 NAD0        0.0000 
     31 C3D        10.4230  -37.2680   14.6510 C.3       1 NAD0        0.0000 
     32 O3D        10.7250  -38.2030   13.6430 O.3       1 NAD0        0.0000 
     33 C2D        10.2350  -35.9230   14.0040 C.3       1 NAD0        0.0000 
     34 O2D        11.2520  -35.6240   13.0850 O.3       1 NAD0        0.0000 
     35 C1D         8.8670  -36.0910   13.3520 C.3       1 NAD0        0.0000 
     36 N1N         8.1650  -34.7960   13.1330 N.pl3     1 NAD0        0.0000 
     37 C2N         8.2230  -33.7690   14.0170 C.ar      1 NAD0        0.0000 
     38 C3N         7.5450  -32.5880   13.7270 C.ar      1 NAD0        0.0000 
     39 C7N         7.8640  -31.3480   14.4890 C.2       1 NAD0        0.0000 
     40 O7N         8.5740  -31.4320   15.6990 O.2       1 NAD0        0.0000 
     41 N7N         7.4650  -30.2040   13.9920 N.am      1 NAD0        0.0000 
     42 C4N         6.8160  -32.4560   12.5760 C.ar      1 NAD0        0.0000 
     43 C5N         6.7490  -33.5050   11.6750 C.ar      1 NAD0        0.0000 
     44 C6N         7.4230  -34.6590   11.9820 C.ar      1 NAD0        0.0000 
     45 H           9.9028  -38.4447   19.9278 H         1 NAD0        0.0000 
     46 H           8.2950  -37.7633   20.2288 H         1 NAD0        0.0000 
     47 H           8.0109  -39.0276   22.0487 H         1 NAD0        0.0000 
     48 H          10.4581  -37.7942   22.9057 H         1 NAD0        0.0000 
     49 H          11.5129  -39.7665   23.0626 H         1 NAD0        0.0000 
     50 H           8.6922  -40.7322   23.2737 H         1 NAD0        0.0000 
     51 H           8.3264  -43.2899   23.3225 H         1 NAD0        0.0000 
     52 H          11.2165  -46.5507   21.2715 H         1 NAD0        0.0000 
     53 H          12.8199  -46.9321   21.9853 H         1 NAD0        0.0000 
     54 H          14.3288  -42.4953   21.3563 H         1 NAD0        0.0000 
     55 H           7.8433  -37.4895   16.9117 H         1 NAD0        0.0000 
     56 H           9.5921  -37.5526   17.1905 H         1 NAD0        0.0000 
     57 H           8.8882  -38.6454   15.1082 H         1 NAD0        0.0000 
     58 H          11.0686  -37.2151   15.4332 H         1 NAD0        0.0000 
     59 H          10.1222  -35.2004   14.7898 H         1 NAD0        0.0000 
     60 H           9.0216  -36.5962   12.4077 H         1 NAD0        0.0000 
     61 H           8.7550  -33.8451   14.8925 H         1 NAD0        0.0000 
     62 H           7.7410  -29.3853   14.4955 H         1 NAD0        0.0000 
     63 H           6.9209  -30.2539   13.1545 H         1 NAD0        0.0000 
     64 H           6.3134  -31.5767   12.3733 H         1 NAD0        0.0000 
     65 H           6.2143  -33.4162   10.8131 H         1 NAD0        0.0000 
     66 H           7.3725  -35.4696   11.3154 H         1 NAD0        0.0000 
     67 H           8.3089  -39.1245   24.2125 H         1 NAD0        0.0000 
     68 H           9.6056  -39.9434   25.1928 H         1 NAD0        0.0000 
     69 H          11.0165  -37.6539   12.8597 H         1 NAD0        0.0000 
     70 H          12.0807  -35.5319   13.6371 H         1 NAD0        0.0000 
@<TRIPOS>BOND
     1    2    1 ar   
     2    3    1 ar   
     3    4    1 1    
     4   23    1 1    
     5    5    4 1    
     6    6    5 1    
     7   45    5 1    
     8   46    5 1    
     9    7    6 1    
    10    8    6 1    
    11   47    6 1    
    12   12    7 1    
    13    9    8 1    
    14   10    8 1    
    15   48    8 1    
    16   67    9 1    
    17   11   10 1    
    18   12   10 1    
    19   49   10 1    
    20   68   11 1    
    21   13   12 1    
    22   50   12 1    
    23   14   13 1    
    24   22   13 1    
    25   15   14 2    
    26   51   14 1    
    27   16   15 1    
    28   17   16 ar   
    29   22   16 ar   
    30   18   17 1    
    31   19   17 ar   
    32   52   18 1    
    33   53   18 1    
    34   20   19 ar   
    35   21   20 ar   
    36   54   20 1    
    37   22   21 ar   
    38   24   23 1    
    39   25   24 ar   
    40   26   24 ar   
    41   27   24 1    
    42   28   27 1    
    43   29   28 1    
    44   55   28 1    
    45   56   28 1    
    46   30   29 1    
    47   31   29 1    
    48   57   29 1    
    49   35   30 1    
    50   32   31 1    
    51   33   31 1    
    52   58   31 1    
    53   69   32 1    
    54   34   33 1    
    55   35   33 1    
    56   59   33 1    
    57   70   34 1    
    58   36   35 1    
    59   60   35 1    
    60   37   36 ar   
    61   44   36 ar   
    62   38   37 ar   
    63   61   37 1    
    64   39   38 1    
    65   42   38 ar   
    66   40   39 2    
    67   41   39 am   
    68   62   41 1    
    69   63   41 1    
    70   43   42 ar   
    71   64   42 1    
    72   44   43 ar   
    73   65   43 1    
    74   66   44 1    
@<TRIPOS>SUBSTRUCTURE
     1 NAD0        1 GROUP   
@<TRIPOS>SET

