#    Name: 3qyw_6PB_1_INTS_M
#    Modification time : Tue Mar 25 10:22:23 2014

@<TRIPOS>MOLECULE
3qyw_6PB_1_INTS_M
   48     0     9     0     0
SMALL
NO_CHARGES


@<TRIPOS>ATOM
      1 CA        -19.2775   15.0635   41.0925 C.3       3 GLC5        0.0000 
      2 CA        -18.5670   13.6490   42.3930 C.3       9 GLL5        0.0000 
      3 CA        -19.9880   16.4780   39.7920 C.3       6 GLP5        0.0000 
      4 CA        -18.5895   12.7935   40.3230 C.3       3 GLC5        0.0000 
      5 CA        -18.6120   11.9380   38.2530 C.3       6 GLP5        0.0000 
      6 CA        -20.2385   13.2400   41.3790 C.3       3 GLC5        0.0000 
      7 CA        -21.9100   12.8310   40.3650 C.3       6 GLP5        0.0000 
      8 CA        -18.8455   11.8840   43.6025 C.3       3 GLC5        0.0000 
      9 CA        -19.1240   10.1190   44.8120 C.3       6 GLP5        0.0000 
     10 CA        -16.9830   12.6370   43.4560 C.3       3 GLC5        0.0000 
     11 CA        -15.3990   11.6250   44.5190 C.3       6 GLP5        0.0000 
     12 O         -20.6690   13.3330   43.6260 O.2       1 ALC1        0.0000 
     13 O         -19.7550   14.2480   42.9010 O.2       7 ALL1        0.0000 
     14 O         -21.5830   12.4180   44.3510 O.2       4 ALP1        0.0000 
     15 N         -19.6305   11.3700   42.4645 N.am      2 SEC2        0.0000 
     16 N         -18.5790   12.3740   41.9840 N.am      8 SEL2        0.0000 
     17 N         -20.6820   10.3660   42.9450 N.am      5 SEP2        0.0000 
     18 CA        -18.2745   10.9615   43.1525 C.3       3 GLC5        0.0000 
     19 CA        -17.4250   11.8040   41.4930 C.3       9 GLL5        0.0000 
     20 CA        -14.6710   12.6385   40.1375 C.3       3 GLC5        0.0000 
     21 CA        -16.2510   12.5250   41.4230 C.3       9 GLL5        0.0000 
     22 CA        -13.0910   12.7520   38.8520 C.3       6 GLP5        0.0000 
     23 CA        -16.9220   17.3255   41.6585 C.3       3 GLC5        0.0000 
     24 CA        -15.2330   16.1410   41.7460 C.3       9 GLL5        0.0000 
     25 CA        -18.6110   18.5100   41.5710 C.3       6 GLP5        0.0000 
     26 CA        -16.4995   18.7005   41.5790 C.3       3 GLC5        0.0000 
     27 CA        -14.3880   18.8910   41.5870 C.3       9 GLL5        0.0000 
     28 CA        -15.2205   20.5245   40.9095 C.3       3 GLC5        0.0000 
     29 CA        -16.0530   22.1580   40.2320 C.3       6 GLP5        0.0000 
     30 CA        -13.3660   20.4100   40.5080 C.3       3 GLC5        0.0000 
     31 CA        -12.3440   21.9290   39.4290 C.3       6 GLP5        0.0000 
     32 CA        -12.2875   18.9080   40.9040 C.3       3 GLC5        0.0000 
     33 CA        -10.1870   18.9250   40.2210 C.3       6 GLP5        0.0000 
     34 CA        -11.5130   17.6895   41.0540 C.3       3 GLC5        0.0000 
     35 CA        -12.8390   16.4540   41.8870 C.3       9 GLL5        0.0000 
     36 CA        -13.3100   16.8960   39.9340 C.3       3 GLC5        0.0000 
     37 CA        -13.7810   17.3380   37.9810 C.3       6 GLP5        0.0000 
     38 CA        -17.7250   12.0512   39.8555 C.3       3 GLC5        0.0000 
     39 CA        -16.1185   11.8948   42.9885 C.3       3 GLC5        0.0000 
     40 CA        -15.7456   15.7477   39.9682 C.3       3 GLC5        0.0000 
     41 CA        -16.2670   13.8840   41.8640 C.3       9 GLL5        0.0000 
     42 CA        -16.0420   16.2620   38.1330 C.3       6 GLP5        0.0000 
     43 CA        -14.0185   17.6363   39.8257 C.3       3 GLC5        0.0000 
     44 CA        -14.1240   16.9780   41.7540 C.3       9 GLL5        0.0000 
     45 CA        -13.3178   13.7723   40.4094 C.3       3 GLC5        0.0000 
     46 CA        -12.6680   15.0820   42.0050 C.3       9 GLL5        0.0000 
     47 CA        -15.0604   12.9535   43.2245 C.3       3 GLC5        0.0000 
     48 CA        -13.7780   14.2380   41.9990 C.3       9 GLL5        0.0000 
@<TRIPOS>BOND
@<TRIPOS>SUBSTRUCTURE
     1 ALC1       12 GROUP        1 X    ALC  0     ROOT ALC X 1
     2 SEC2       15 GROUP        1 X    SEC  0     **** SEC X 2
     3 GLC5        1 GROUP        1 X    GLC  0     **** GLC X 6
     4 ALP1       14 GROUP        1 Y    ALP  0     ROOT ALP Y 8
     5 SEP2       17 GROUP        1 Y    SEP  0     **** SEP Y 9
     6 GLP5        3 GROUP        1 Y    GLP  0     **** GLP Y 13
     7 ALL1       13 GROUP        1 Z    ALL  0     ROOT ALL Z 15
     8 SEL2       16 GROUP        1 Z    SEL  0     **** SEL Z 16
     9 GLL5        2 GROUP        1 Z    GLL  0     **** GLL Z 20
@<TRIPOS>SET

