#    Name: 3qyw_6PB_1_ligand
#    Modification time : Tue Mar 25 10:22:23 2014

@<TRIPOS>MOLECULE
3qyw_6PB_1_ligand
   25    27     1     0     0
SMALL
NO_CHARGES


@<TRIPOS>ATOM
      1 N1        -17.4300   14.3800   42.3330 N.ar      1 6PB359      0.0000 
      2 C2        -18.5670   13.6490   42.3930 C.ar      1 6PB359      0.0000 
      3 N2        -19.7550   14.2480   42.9010 N.pl3     1 6PB359      0.0000 
      4 N3        -18.5790   12.3740   41.9840 N.ar      1 6PB359      0.0000 
      5 C4        -17.4250   11.8040   41.4930 C.ar      1 6PB359      0.0000 
      6 C5        -16.2510   12.5250   41.4230 C.ar      1 6PB359      0.0000 
      7 C6        -16.2670   13.8840   41.8640 C.ar      1 6PB359      0.0000 
      8 N7        -15.2960   11.6810   40.9060 N.pl3     1 6PB359      0.0000 
      9 C8        -15.8570   10.4780   40.6560 C.2       1 6PB359      0.0000 
     10 N9        -17.1600   10.5400   41.0130 N.2       1 6PB359      0.0000 
     11 C61       -15.0640   14.7680   41.8580 C.ar      1 6PB359      0.0000 
     12 C62       -15.2330   16.1410   41.7460 C.ar      1 6PB359      0.0000 
     13 C63       -14.1240   16.9780   41.7540 C.ar      1 6PB359      0.0000 
     14 BR63      -14.3880   18.8910   41.5870 Br        1 6PB359      0.0000 
     15 C64       -12.8390   16.4540   41.8870 C.ar      1 6PB359      0.0000 
     16 C65       -12.6680   15.0820   42.0050 C.ar      1 6PB359      0.0000 
     17 C66       -13.7780   14.2380   41.9990 C.ar      1 6PB359      0.0000 
     18 H         -20.5724   13.6718   42.9024 H         1 6PB359      0.0000 
     19 H         -19.6718   15.1943   43.2135 H         1 6PB359      0.0000 
     20 H         -14.3747   11.9234   40.7516 H         1 6PB359      0.0000 
     21 H         -15.4085    9.7098   40.2879 H         1 6PB359      0.0000 
     22 H         -16.1769   16.5388   41.6572 H         1 6PB359      0.0000 
     23 H         -12.0277   17.0805   41.8972 H         1 6PB359      0.0000 
     24 H         -11.7242   14.6848   42.0970 H         1 6PB359      0.0000 
     25 H         -13.6520   13.2227   42.0985 H         1 6PB359      0.0000 
@<TRIPOS>BOND
     1    2    1 ar   
     2    7    1 ar   
     3    3    2 1    
     4    4    2 ar   
     5   18    3 1    
     6   19    3 1    
     7    5    4 ar   
     8    6    5 ar   
     9   10    5 1    
    10    7    6 ar   
    11    8    6 1    
    12   11    7 1    
    13    9    8 1    
    14   20    8 1    
    15   10    9 2    
    16   21    9 1    
    17   12   11 ar   
    18   17   11 ar   
    19   13   12 ar   
    20   22   12 1    
    21   14   13 1    
    22   15   13 ar   
    23   16   15 ar   
    24   23   15 1    
    25   17   16 ar   
    26   24   16 1    
    27   25   17 1    
@<TRIPOS>SUBSTRUCTURE
     1 6PB359      1 GROUP   
@<TRIPOS>SET

