#    Name: 3lp2_LP9_1_INTS_M
#    Modification time : Mon Mar 24 21:58:14 2014

@<TRIPOS>MOLECULE
3lp2_LP9_1_INTS_M
   65     0     6     0     0
SMALL
NO_CHARGES


@<TRIPOS>ATOM
      1 N           6.1965    7.9590   25.8825 N.am      1 SEC2        0.0000 
      2 N           7.1270    6.5730   26.0080 N.am      5 SEL2        0.0000 
      3 N           5.2660    9.3450   25.7570 N.am      3 SEP2        0.0000 
      4 CA          6.0700    8.2740   28.2025 C.3       2 GLC5        0.0000 
      5 CA          7.6650    6.8560   28.3270 C.3       6 GLL5        0.0000 
      6 CA          4.4750    9.6920   28.0780 C.3       4 GLP5        0.0000 
      7 CA          6.4155    8.7440   26.8685 C.3       2 GLC5        0.0000 
      8 CA          7.8680    7.1390   26.9630 C.3       6 GLL5        0.0000 
      9 CA          4.9630   10.3490   26.7740 C.3       4 GLP5        0.0000 
     10 CA         10.9715   13.5820   20.1025 C.3       2 GLC5        0.0000 
     11 CA         11.0620   15.4580   21.1120 C.3       6 GLL5        0.0000 
     12 CA         10.8810   11.7060   19.0930 C.3       4 GLP5        0.0000 
     13 CA         10.6825   16.7295   22.6010 C.3       2 GLC5        0.0000 
     14 CA         10.3030   18.0010   24.0900 C.3       4 GLP5        0.0000 
     15 CA          9.9105   15.7830   18.4600 C.3       2 GLC5        0.0000 
     16 CA         11.3480   15.2760   19.6210 C.3       6 GLL5        0.0000 
     17 CA          8.4730   16.2900   17.2990 C.3       4 GLP5        0.0000 
     18 CA         13.1195   15.3830   18.8425 C.3       2 GLC5        0.0000 
     19 CA         14.8910   15.4900   18.0640 C.3       4 GLP5        0.0000 
     20 CA         11.6870   13.6580   18.9930 C.3       2 GLC5        0.0000 
     21 CA         12.0260   12.0400   18.3650 C.3       4 GLP5        0.0000 
     22 CA         12.1650   16.2915   23.6350 C.3       2 GLC5        0.0000 
     23 CA         13.1160   15.3540   22.5070 C.3       6 GLL5        0.0000 
     24 CA         11.2140   17.2290   24.7630 C.3       4 GLP5        0.0000 
     25 CA         14.6455   15.2990   19.8880 C.3       2 GLC5        0.0000 
     26 CA         14.4000   15.1080   21.7120 C.3       6 GLL5        0.0000 
     27 CA         16.3335   15.1440   21.4870 C.3       2 GLC5        0.0000 
     28 CA         18.2670   15.1800   21.2620 C.3       4 GLP5        0.0000 
     29 CA         13.8830   13.6570   20.3855 C.3       2 GLC5        0.0000 
     30 CA         13.3660   12.2060   19.0590 C.3       4 GLP5        0.0000 
     31 CA          9.0570    6.0685   25.7728 C.3       2 GLC5        0.0000 
     32 CA          9.1360    8.3570   25.2210 C.3       6 GLL5        0.0000 
     33 CA          9.1120    3.9440   25.6580 C.3       4 GLP5        0.0000 
     34 CA          8.2662    8.8945   23.8573 C.3       2 GLC5        0.0000 
     35 CA          6.8950    8.9800   22.6690 C.3       4 GLP5        0.0000 
     36 CA          9.3675   11.4025   25.4930 C.3       2 GLC5        0.0000 
     37 CA         10.1390    9.2610   24.8700 C.3       6 GLL5        0.0000 
     38 CA          8.2170   13.2600   25.6040 C.3       4 GLP5        0.0000 
     39 CA         11.3341    8.2550   24.3174 C.3       2 GLC5        0.0000 
     40 CA         10.8970    9.8290   25.8940 C.3       6 GLL5        0.0000 
     41 CA         12.4010    7.1910   23.1650 C.3       4 GLP5        0.0000 
     42 CA          7.0395    8.0465   25.1378 C.3       2 GLC5        0.0000 
     43 CA          8.8680    8.0290   26.5540 C.3       6 GLL5        0.0000 
     44 CA          5.7110    8.5090   23.5170 C.3       4 GLP5        0.0000 
     45 CA          8.4393    5.4708   26.6515 C.3       2 GLC5        0.0000 
     46 CA         11.3390    9.4087   22.1065 C.3       2 GLC5        0.0000 
     47 CA         10.8350   10.7820   23.2190 C.3       6 GLL5        0.0000 
     48 CA         11.1700    7.8740   21.0880 C.3       4 GLP5        0.0000 
     49 CA          8.6247   10.1248   22.8828 C.3       2 GLC5        0.0000 
     50 CA          8.4300   12.9770   22.3313 C.3       2 GLC5        0.0000 
     51 CA          9.8740   11.7570   22.9740 C.3       6 GLL5        0.0000 
     52 CA          6.7880   13.5600   21.8900 C.3       4 GLP5        0.0000 
     53 CA          9.2646   12.7051   24.2189 C.3       2 GLC5        0.0000 
     54 CA         10.2700   13.0310   22.5710 C.3       6 GLL5        0.0000 
     55 CA         13.8283   11.8845   24.2428 C.3       2 GLC5        0.0000 
     56 CA         12.5380   12.3930   22.6260 C.3       6 GLL5        0.0000 
     57 CA         15.2970   12.0200   25.6570 C.3       4 GLP5        0.0000 
     58 CA         12.7456   12.1037   20.9123 C.3       2 GLC5        0.0000 
     59 CA         12.1810   11.1050   23.0310 C.3       6 GLL5        0.0000 
     60 CA         14.8105   16.3595   23.2757 C.3       2 GLC5        0.0000 
     61 CA         15.8630   17.4880   24.4420 C.3       4 GLP5        0.0000 
     62 CA          7.1892    3.9815   26.3810 C.3       2 GLC5        0.0000 
     63 CA          5.0820    4.0420   26.3600 C.3       6 GLL5        0.0000 
     64 CA          4.2127    5.7910   27.3325 C.3       2 GLC5        0.0000 
     65 CA          3.1590    7.5630   27.5610 C.3       4 GLP5        0.0000 
@<TRIPOS>BOND
@<TRIPOS>SUBSTRUCTURE
     1 SEC2        1 GROUP        1 X    SEC  0     ROOT SEC X 2
     2 GLC5        4 GROUP        1 X    GLC  0     **** GLC X 6
     3 SEP2        3 GROUP        1 Y    SEP  0     ROOT SEP Y 9
     4 GLP5        6 GROUP        1 Y    GLP  0     **** GLP Y 13
     5 SEL2        2 GROUP        1 Z    SEL  0     ROOT SEL Z 16
     6 GLL5        5 GROUP        1 Z    GLL  0     **** GLL Z 20
@<TRIPOS>SET

