#    Name: 3lp2_LP9_1_ligand
#    Modification time : Mon Mar 24 21:58:14 2014

@<TRIPOS>MOLECULE
3lp2_LP9_1_ligand
   53    55     1     0     0
SMALL
NO_CHARGES


@<TRIPOS>ATOM
      1 C           9.1360    8.3570   25.2210 C.ar      1 LP9601      0.0000 
      2 N          10.6280    9.5030   27.1800 N.ar      1 LP9601      0.0000 
      3 O           7.1270    6.5730   26.0080 O.3       1 LP9601      0.0000 
      4 C1         10.1390    9.2610   24.8700 C.ar      1 LP9601      0.0000 
      5 C2         10.8970    9.8290   25.8940 C.ar      1 LP9601      0.0000 
      6 C3          9.6550    8.6320   27.5390 C.ar      1 LP9601      0.0000 
      7 C4          8.8680    8.0290   26.5540 C.ar      1 LP9601      0.0000 
      8 N5          9.4170    8.3290   28.8380 N.am      1 LP9601      0.0000 
      9 C6          8.4670    7.4770   29.2980 C.2       1 LP9601      0.0000 
     10 C7          7.6650    6.8560   28.3270 C.2       1 LP9601      0.0000 
     11 C8          7.8680    7.1390   26.9630 C.2       1 LP9601      0.0000 
     12 C9          6.5810    5.8980   28.7420 C.2       1 LP9601      0.0000 
     13 O10         5.7460    6.1670   29.5950 O.2       1 LP9601      0.0000 
     14 O11         8.3010    7.2370   30.5980 O.2       1 LP9601      0.0000 
     15 O12        10.2340    8.9650   29.7690 O.3       1 LP9601      0.0000 
     16 O13        10.4050    9.5750   23.5960 O.3       1 LP9601      0.0000 
     17 C14        10.8350   10.7820   23.2190 C.ar      1 LP9601      0.0000 
     18 C15         9.8740   11.7570   22.9740 C.ar      1 LP9601      0.0000 
     19 C16        10.2700   13.0310   22.5710 C.ar      1 LP9601      0.0000 
     20 C17        11.6010   13.4030   22.3740 C.ar      1 LP9601      0.0000 
     21 C18        12.5380   12.3930   22.6260 C.ar      1 LP9601      0.0000 
     22 C19        12.1810   11.1050   23.0310 C.ar      1 LP9601      0.0000 
     23 N20        11.9240   14.6600   21.9940 N.pl3     1 LP9601      0.0000 
     24 C21        11.0620   15.4580   21.1120 C.3       1 LP9601      0.0000 
     25 C22        11.3480   15.2760   19.6210 C.3       1 LP9601      0.0000 
     26 C23        13.1160   15.3540   22.5070 C.3       1 LP9601      0.0000 
     27 C24        14.4000   15.1080   21.7120 C.3       1 LP9601      0.0000 
     28 O25         6.6790    4.7470   28.0640 O.3       1 LP9601      0.0000 
     29 C26         5.0820    4.0420   26.3600 C.3       1 LP9601      0.0000 
     30 C27         5.4510    3.9960   27.8480 C.3       1 LP9601      0.0000 
     31 H           8.5698    7.9129   24.4701 H         1 LP9601      0.0000 
     32 H          11.6507   10.4887   25.6543 H         1 LP9601      0.0000 
     33 H           8.8780   11.5408   23.0890 H         1 LP9601      0.0000 
     34 H           9.5232   13.7551   22.4054 H         1 LP9601      0.0000 
     35 H          13.5545   12.6159   22.5045 H         1 LP9601      0.0000 
     36 H          12.9059   10.3972   23.1902 H         1 LP9601      0.0000 
     37 H          11.1634   16.5378   21.3494 H         1 LP9601      0.0000 
     38 H           9.9948   15.2072   21.2877 H         1 LP9601      0.0000 
     39 H          13.3070   15.0575   23.5628 H         1 LP9601      0.0000 
     40 H          12.9375   16.4524   22.5343 H         1 LP9601      0.0000 
     41 H           4.6227    4.4211   28.4157 H         1 LP9601      0.0000 
     42 H           5.5712    2.9509   28.1350 H         1 LP9601      0.0000 
     43 H          12.2859   15.5337   19.3886 H         1 LP9601      0.0000 
     44 H          11.2248   14.3265   19.3324 H         1 LP9601      0.0000 
     45 H          10.7417   15.8352   19.0556 H         1 LP9601      0.0000 
     46 H          15.1786   15.5991   22.1027 H         1 LP9601      0.0000 
     47 H          14.6448   14.1386   21.6925 H         1 LP9601      0.0000 
     48 H          14.3116   15.4071   20.7619 H         1 LP9601      0.0000 
     49 H           5.8005    3.6480   25.7868 H         1 LP9601      0.0000 
     50 H           4.2428    3.5326   26.1696 H         1 LP9601      0.0000 
     51 H           4.9347    4.9788   26.0427 H         1 LP9601      0.0000 
     52 H           7.1155    5.5987   26.2328 H         1 LP9601      0.0000 
     53 H          10.9439    9.4139   29.2263 H         1 LP9601      0.0000 
@<TRIPOS>BOND
     1    4    1 ar   
     2    7    1 ar   
     3   31    1 1    
     4    5    2 ar   
     5    6    2 ar   
     6   11    3 1    
     7   52    3 1    
     8    5    4 ar   
     9   16    4 1    
    10   32    5 1    
    11    7    6 ar   
    12    8    6 1    
    13   11    7 1    
    14    9    8 am   
    15   15    8 1    
    16   10    9 1    
    17   14    9 2    
    18   11   10 2    
    19   12   10 1    
    20   13   12 2    
    21   28   12 1    
    22   53   15 1    
    23   17   16 1    
    24   18   17 ar   
    25   22   17 ar   
    26   19   18 ar   
    27   33   18 1    
    28   20   19 ar   
    29   34   19 1    
    30   21   20 ar   
    31   23   20 1    
    32   22   21 ar   
    33   35   21 1    
    34   36   22 1    
    35   24   23 1    
    36   26   23 1    
    37   25   24 1    
    38   37   24 1    
    39   38   24 1    
    40   43   25 1    
    41   44   25 1    
    42   45   25 1    
    43   27   26 1    
    44   39   26 1    
    45   40   26 1    
    46   46   27 1    
    47   47   27 1    
    48   48   27 1    
    49   30   28 1    
    50   30   29 1    
    51   49   29 1    
    52   50   29 1    
    53   51   29 1    
    54   41   30 1    
    55   42   30 1    
@<TRIPOS>SUBSTRUCTURE
     1 LP9601      1 GROUP   
@<TRIPOS>SET

