#    Name: 3cid_318_1_INTS_M
#    Modification time : Mon Mar 24 21:31:02 2014

@<TRIPOS>MOLECULE
3cid_318_1_INTS_M
  104     0    12     0     0
SMALL
NO_CHARGES


@<TRIPOS>ATOM
      1 CA         28.1735   11.8315   18.1060 C.3       4 GLC5        0.0000 
      2 CA         26.7270   11.0100   18.9990 C.3      12 GLL5        0.0000 
      3 CA         29.6200   12.6530   17.2130 C.3       8 GLP5        0.0000 
      4 CA         27.1025   10.1095   17.5810 C.3       4 GLC5        0.0000 
      5 CA         27.4780    9.2090   16.1630 C.3       8 GLP5        0.0000 
      6 CA         20.9735   12.7520   18.6240 C.3       4 GLC5        0.0000 
      7 CA         22.8010   13.5990   18.3320 C.3      12 GLL5        0.0000 
      8 CA         19.1460   11.9050   18.9160 C.3       8 GLP5        0.0000 
      9 CA         23.7655   14.9095   19.1480 C.3       4 GLC5        0.0000 
     10 CA         24.7300   16.2200   19.9640 C.3       8 GLP5        0.0000 
     11 CA         21.8425   15.0640   18.1110 C.3       4 GLC5        0.0000 
     12 CA         20.8840   16.5290   17.8900 C.3       8 GLP5        0.0000 
     13 CA         22.3365   12.5540   17.0990 C.3       4 GLC5        0.0000 
     14 CA         21.8720   11.5090   15.8660 C.3       8 GLP5        0.0000 
     15 O          24.8205   11.0680   23.4360 O.2       1 ALC1        0.0000 
     16 O          23.5910   11.8970   23.3320 O.2       9 ALL1        0.0000 
     17 O          26.0500   10.2390   23.5400 O.2       5 ALP1        0.0000 
     18 O          21.3830    8.1060   23.1730 O.2       1 ALC1        0.0000 
     19 O          20.9670    9.2440   23.8110 O.2       9 ALL1        0.0000 
     20 O          21.7990    6.9680   22.5350 O.2       5 ALP1        0.0000 
     21 OD1        22.5770    9.0035   26.6585 O.co2     3 ASC3        0.0000 
     22 OD1        21.1990   10.2000   26.5800 O.co2    11 ASL3        0.0000 
     23 OD1        23.9550    7.8070   26.7370 O.co2     7 ASP3        0.0000 
     24 OD1        22.3285    9.9730   27.0625 O.co2     3 ASC3        0.0000 
     25 OD1        23.4580    9.7460   27.5450 O.co2     7 ASP3        0.0000 
     26 CA         20.4610    8.5830   26.9360 C.3       4 GLC5        0.0000 
     27 CA         19.8950   10.6620   27.1280 C.3      12 GLL5        0.0000 
     28 CA         21.0270    6.5040   26.7440 C.3       8 GLP5        0.0000 
     29 CA         18.3980    9.9030   27.9425 C.3       4 GLC5        0.0000 
     30 CA         16.9010    9.1440   28.7570 C.3       8 GLP5        0.0000 
     31 CA         20.3305   10.1455   28.9700 C.3       4 GLC5        0.0000 
     32 CA         20.7660    9.6290   30.8120 C.3       8 GLP5        0.0000 
     33 CA         22.3030    8.5210   20.5475 C.3       4 GLC5        0.0000 
     34 CA         22.7830   10.1150   21.8290 C.3      12 GLL5        0.0000 
     35 CA         21.8230    6.9270   19.2660 C.3       8 GLP5        0.0000 
     36 N          19.6570   13.7530   23.6515 N.am      2 SEC2        0.0000 
     37 N          19.8560   12.3420   24.0230 N.am     10 SEL2        0.0000 
     38 N          19.4580   15.1640   23.2800 N.am      6 SEP2        0.0000 
     39 CA         17.3975   10.5230   27.4810 C.3       4 GLC5        0.0000 
     40 CA         17.8940   11.9020   26.2050 C.3      12 GLL5        0.0000 
     41 CA         15.6770    7.7425   25.6985 C.3       4 GLC5        0.0000 
     42 CA         15.9510    9.3020   24.1190 C.3      12 GLL5        0.0000 
     43 CA         15.4030    6.1830   27.2780 C.3       8 GLP5        0.0000 
     44 CA         24.7535   14.2710   19.3035 C.3       4 GLC5        0.0000 
     45 CA         24.7770   12.3220   18.6430 C.3      12 GLL5        0.0000 
     46 N          21.9295   15.0205   22.7610 N.am      2 SEC2        0.0000 
     47 N          22.2300   13.6970   23.2940 N.am     10 SEL2        0.0000 
     48 N          21.6290   16.3440   22.2280 N.am      6 SEP2        0.0000 
     49 CA         26.9245   14.2245   25.9980 C.3       4 GLC5        0.0000 
     50 CA         26.8060   15.6630   24.3320 C.3      12 GLL5        0.0000 
     51 CA         27.0430   12.7860   27.6640 C.3       8 GLP5        0.0000 
     52 CA         22.5315   15.6535   24.8420 C.3       4 GLC5        0.0000 
     53 CA         24.3680   15.2890   24.4530 C.3      12 GLL5        0.0000 
     54 CA         20.6950   16.0180   25.2310 C.3       8 GLP5        0.0000 
     55 CA         23.2795   17.3210   25.6985 C.3       4 GLC5        0.0000 
     56 CA         25.3460   17.3680   25.4640 C.3      12 GLL5        0.0000 
     57 CA         21.2130   17.2740   25.9330 C.3       8 GLP5        0.0000 
     58 CA         25.8350   16.6310   27.4625 C.3       4 GLC5        0.0000 
     59 CA         26.3240   15.8940   29.4610 C.3       8 GLP5        0.0000 
     60 N          29.4055   12.7795   24.9520 N.am      2 SEC2        0.0000 
     61 N          29.1970   13.7760   24.0390 N.am     10 SEL2        0.0000 
     62 N          29.6140   11.7830   25.8650 N.am      6 SEP2        0.0000 
     63 N          30.4600   13.1475   24.0050 N.am      2 SEC2        0.0000 
     64 N          31.7230   12.5190   23.9710 N.am      6 SEP2        0.0000 
     65 CA         30.8645   13.0695   23.4370 C.3       4 GLC5        0.0000 
     66 CA         29.8820   13.3510   21.5020 C.3      12 GLL5        0.0000 
     67 CA         31.8470   12.7880   25.3720 C.3       8 GLP5        0.0000 
     68 CA         31.3820   11.1800   19.9910 C.3       4 GLC5        0.0000 
     69 CA         29.8700   11.8790   21.0530 C.3      12 GLL5        0.0000 
     70 CA         32.8940   10.4810   18.9290 C.3       8 GLP5        0.0000 
     71 CA         30.2295    9.1670   21.2560 C.3       4 GLC5        0.0000 
     72 CA         29.1490   10.9200   22.0440 C.3      12 GLL5        0.0000 
     73 CA         31.3100    7.4140   20.4680 C.3       8 GLP5        0.0000 
     74 CA         28.2345   10.9320   24.0005 C.3       4 GLC5        0.0000 
     75 CA         27.3200   10.9440   25.9570 C.3       8 GLP5        0.0000 
     76 CA         20.7890   10.5729   21.8764 C.3       4 GLC5        0.0000 
     77 CA         22.4460   11.0200   23.0130 C.3      12 GLL5        0.0000 
     78 CA         19.0780   10.7930   21.0260 C.3       8 GLP5        0.0000 
     79 CA         17.0192   12.9070   22.6950 C.3       4 GLC5        0.0000 
     80 CA         16.2090   12.1360   24.3190 C.3      12 GLL5        0.0000 
     81 CA         18.2710   13.9630   21.5540 C.3       8 GLP5        0.0000 
     82 CA         15.4117   10.6455   21.3298 C.3       4 GLC5        0.0000 
     83 CA         15.3260   11.5660   23.3530 C.3      12 GLL5        0.0000 
     84 CA         15.5620   10.4330   19.3560 C.3       8 GLP5        0.0000 
     85 CA         17.4825    8.2027   23.7107 C.3       4 GLC5        0.0000 
     86 CA         18.5720    6.8180   22.8200 C.3       8 GLP5        0.0000 
     87 CA         21.3053   12.7747   20.2485 C.3       4 GLC5        0.0000 
     88 CA         22.7790   11.9180   20.0300 C.3      12 GLL5        0.0000 
     89 CA         19.5030   13.2740   20.9870 C.3       8 GLP5        0.0000 
     90 CA         23.4367   14.0852   20.3045 C.3       4 GLC5        0.0000 
     91 CA         23.7660   15.8950   21.0990 C.3       8 GLP5        0.0000 
     92 CA         25.7108    9.0868   19.4646 C.3       4 GLC5        0.0000 
     93 CA         25.4670   11.2940   19.3340 C.3      12 GLL5        0.0000 
     94 CA         25.9630    7.3110   19.1570 C.3       8 GLP5        0.0000 
     95 CA         24.4703   14.8637   22.3227 C.3       4 GLC5        0.0000 
     96 CA         25.8210   13.6180   23.3410 C.3      12 GLL5        0.0000 
     97 CA         26.8568   12.4830   24.7203 C.3       4 GLC5        0.0000 
     98 CA         25.3260   15.4697   22.5390 C.3       4 GLC5        0.0000 
     99 CA         26.9660   14.4260   23.6260 C.3      12 GLL5        0.0000 
    100 CA         24.3522   15.7933   22.8485 C.3       4 GLC5        0.0000 
    101 CA         29.7480   12.6340   19.2453 C.3       4 GLC5        0.0000 
    102 CA         28.7400   13.5745   18.7570 C.3       4 GLC5        0.0000 
    103 CA         28.1520   14.9720   19.7840 C.3      12 GLL5        0.0000 
    104 CA         26.5065   15.7985   20.1677 C.3       4 GLC5        0.0000 
@<TRIPOS>BOND
@<TRIPOS>SUBSTRUCTURE
     1 ALC1       15 GROUP        1 X    ALC  0     ROOT ALC X 1
     2 SEC2       36 GROUP        1 X    SEC  0     **** SEC X 2
     3 ASC3       21 GROUP        1 X    ASC  0     **** ASC X 3
     4 GLC5        1 GROUP        1 X    GLC  0     **** GLC X 6
     5 ALP1       17 GROUP        1 Y    ALP  0     ROOT ALP Y 8
     6 SEP2       38 GROUP        1 Y    SEP  0     **** SEP Y 9
     7 ASP3       23 GROUP        1 Y    ASP  0     **** ASP Y 10
     8 GLP5        3 GROUP        1 Y    GLP  0     **** GLP Y 13
     9 ALL1       16 GROUP        1 Z    ALL  0     ROOT ALL Z 15
    10 SEL2       37 GROUP        1 Z    SEL  0     **** SEL Z 16
    11 ASL3       22 GROUP        1 Z    ASL  0     **** ASL Z 17
    12 GLL5        2 GROUP        1 Z    GLL  0     **** GLL Z 20
@<TRIPOS>SET

