#    Name: 3cid_318_1_ligand
#    Modification time : Mon Mar 24 21:31:02 2014

@<TRIPOS>MOLECULE
3cid_318_1_ligand
   83    86     1     0     0
SMALL
NO_CHARGES


@<TRIPOS>ATOM
      1 F1         26.7270   11.0100   18.9990 F         1 318501      0.0000 
      2 F2         22.8010   13.5990   18.3320 F         1 318501      0.0000 
      3 N1         23.5910   11.8970   23.3320 N.am      1 318501      0.0000 
      4 C1         22.4460   11.0200   23.0130 C.3       1 318501      0.0000 
      5 C2         21.9880   10.1610   24.2360 C.3       1 318501      0.0000 
      6 O1         20.9670    9.2440   23.8110 O.3       1 318501      0.0000 
      7 C3         21.4300   11.0400   25.3780 C.3       1 318501      0.0000 
      8 N2         21.1990   10.2000   26.5800 N.4       1 318501      0.0000 
      9 C4         19.8950   10.6620   27.1280 C.3       1 318501      0.0000 
     10 N3         19.2830   11.4570   26.0690 N.am      1 318501      0.0000 
     11 C5         20.1010   11.7020   25.0450 C.2       1 318501      0.0000 
     12 C6         22.7830   10.1150   21.8290 C.3       1 318501      0.0000 
     13 C7         23.3530   13.2240   23.4450 C.2       1 318501      0.0000 
     14 O2         19.8560   12.3420   24.0230 O.2       1 318501      0.0000 
     15 C8         17.8940   11.9020   26.2050 C.3       1 318501      0.0000 
     16 C9         16.9640   11.2900   25.1840 C.ar      1 318501      0.0000 
     17 C10        16.2090   12.1360   24.3190 C.ar      1 318501      0.0000 
     18 C11        15.3260   11.5660   23.3530 C.ar      1 318501      0.0000 
     19 C12        15.1970   10.1500   23.2540 C.ar      1 318501      0.0000 
     20 C13        15.9510    9.3020   24.1190 C.ar      1 318501      0.0000 
     21 C14        16.8350    9.8730   25.0840 C.ar      1 318501      0.0000 
     22 C15        23.4730   10.8860   20.7250 C.ar      1 318501      0.0000 
     23 C16        22.7790   11.9180   20.0300 C.ar      1 318501      0.0000 
     24 C17        23.4360   12.6330   18.9900 C.ar      1 318501      0.0000 
     25 C18        24.7770   12.3220   18.6430 C.ar      1 318501      0.0000 
     26 C19        25.4670   11.2940   19.3340 C.ar      1 318501      0.0000 
     27 C20        24.8200   10.5730   20.3780 C.ar      1 318501      0.0000 
     28 O3         22.2300   13.6970   23.2940 O.2       1 318501      0.0000 
     29 C21        24.5280   14.0470   23.7520 C.ar      1 318501      0.0000 
     30 C22        25.8210   13.6180   23.3410 C.ar      1 318501      0.0000 
     31 C23        26.9660   14.4260   23.6260 C.ar      1 318501      0.0000 
     32 C24        26.8060   15.6630   24.3320 C.ar      1 318501      0.0000 
     33 C25        25.5090   16.0940   24.7430 C.ar      1 318501      0.0000 
     34 C26        24.3680   15.2890   24.4530 C.ar      1 318501      0.0000 
     35 C27        25.3460   17.3680   25.4640 C.3       1 318501      0.0000 
     36 C28        28.3120   13.9810   23.2140 C.2       1 318501      0.0000 
     37 O4         29.1970   13.7760   24.0390 O.2       1 318501      0.0000 
     38 N4         28.5490   13.7950   21.8730 N.am      1 318501      0.0000 
     39 C29        29.8820   13.3510   21.5020 C.3       1 318501      0.0000 
     40 C30        29.8700   11.8790   21.0530 C.3       1 318501      0.0000 
     41 C31        29.1490   10.9200   22.0440 C.3       1 318501      0.0000 
     42 C32        27.5680   14.0200   20.8180 C.3       1 318501      0.0000 
     43 C33        28.1520   14.9720   19.7840 C.3       1 318501      0.0000 
     44 C34        28.7060   16.2580   20.4420 C.3       1 318501      0.0000 
     45 H          24.4917   11.4670   23.4499 H         1 318501      0.0000 
     46 H          21.5863   11.6346   22.7180 H         1 318501      0.0000 
     47 H          22.8504    9.6325   24.6074 H         1 318501      0.0000 
     48 H          22.1508   11.8024   25.6172 H         1 318501      0.0000 
     49 H          20.0645   11.2626   28.0093 H         1 318501      0.0000 
     50 H          19.2805    9.8077   27.3702 H         1 318501      0.0000 
     51 H          21.8601    9.6736   21.4453 H         1 318501      0.0000 
     52 H          23.4337    9.3075   22.1731 H         1 318501      0.0000 
     53 H          17.8354   13.0057   26.1135 H         1 318501      0.0000 
     54 H          17.5114   11.6574   27.2168 H         1 318501      0.0000 
     55 H          16.2993   13.1462   24.3900 H         1 318501      0.0000 
     56 H          14.7900   12.1704   22.7366 H         1 318501      0.0000 
     57 H          14.5676    9.7433   22.5669 H         1 318501      0.0000 
     58 H          15.8593    8.2929   24.0487 H         1 318501      0.0000 
     59 H          17.3724    9.2688   25.6998 H         1 318501      0.0000 
     60 H          21.8199   12.1417   20.2763 H         1 318501      0.0000 
     61 H          25.2425   12.8375   17.8980 H         1 318501      0.0000 
     62 H          25.3156    9.8387   20.8737 H         1 318501      0.0000 
     63 H          25.9340   12.7384   22.8450 H         1 318501      0.0000 
     64 H          27.6215   16.2340   24.5396 H         1 318501      0.0000 
     65 H          23.4431   15.5904   24.7401 H         1 318501      0.0000 
     66 H          30.5784   13.4380   22.3457 H         1 318501      0.0000 
     67 H          30.2840   13.9500   20.6750 H         1 318501      0.0000 
     68 H          30.9049   11.5333   20.9260 H         1 318501      0.0000 
     69 H          29.3743   11.8052   20.0756 H         1 318501      0.0000 
     70 H          26.6563   14.4643   21.2199 H         1 318501      0.0000 
     71 H          27.3090   13.0852   20.3188 H         1 318501      0.0000 
     72 H          27.3797   15.2526   19.0668 H         1 318501      0.0000 
     73 H          28.9631   14.4778   19.2478 H         1 318501      0.0000 
     74 H          25.8560   17.3758   26.3242 H         1 318501      0.0000 
     75 H          25.6704   18.1446   24.9239 H         1 318501      0.0000 
     76 H          24.3884   17.5473   25.6894 H         1 318501      0.0000 
     77 H          29.1645    9.9733   21.7223 H         1 318501      0.0000 
     78 H          29.5769   10.9295   22.9478 H         1 318501      0.0000 
     79 H          28.1893   11.1706   22.1715 H         1 318501      0.0000 
     80 H          29.4299   16.0555   21.1015 H         1 318501      0.0000 
     81 H          29.0929   16.8844   19.7653 H         1 318501      0.0000 
     82 H          27.9942   16.7602   20.9331 H         1 318501      0.0000 
     83 H          21.4610    8.4863   23.3845 H         1 318501      0.0000 
@<TRIPOS>BOND
     1   26    1 1    
     2   24    2 1    
     3    4    3 1    
     4   13    3 am   
     5   45    3 1    
     6    5    4 1    
     7   12    4 1    
     8   46    4 1    
     9    6    5 1    
    10    7    5 1    
    11   47    5 1    
    12   83    6 1    
    13    8    7 1    
    14   11    7 1    
    15   48    7 1    
    16    9    8 1    
    17   10    9 1    
    18   49    9 1    
    19   50    9 1    
    20   11   10 am   
    21   15   10 1    
    22   14   11 2    
    23   22   12 1    
    24   51   12 1    
    25   52   12 1    
    26   28   13 2    
    27   29   13 1    
    28   16   15 1    
    29   53   15 1    
    30   54   15 1    
    31   17   16 ar   
    32   21   16 ar   
    33   18   17 ar   
    34   55   17 1    
    35   19   18 ar   
    36   56   18 1    
    37   20   19 ar   
    38   57   19 1    
    39   21   20 ar   
    40   58   20 1    
    41   59   21 1    
    42   23   22 ar   
    43   27   22 ar   
    44   24   23 ar   
    45   60   23 1    
    46   25   24 ar   
    47   26   25 ar   
    48   61   25 1    
    49   27   26 ar   
    50   62   27 1    
    51   30   29 ar   
    52   34   29 ar   
    53   31   30 ar   
    54   63   30 1    
    55   32   31 ar   
    56   36   31 1    
    57   33   32 ar   
    58   64   32 1    
    59   34   33 ar   
    60   35   33 1    
    61   65   34 1    
    62   74   35 1    
    63   75   35 1    
    64   76   35 1    
    65   37   36 2    
    66   38   36 am   
    67   39   38 1    
    68   42   38 1    
    69   40   39 1    
    70   66   39 1    
    71   67   39 1    
    72   41   40 1    
    73   68   40 1    
    74   69   40 1    
    75   77   41 1    
    76   78   41 1    
    77   79   41 1    
    78   43   42 1    
    79   70   42 1    
    80   71   42 1    
    81   44   43 1    
    82   72   43 1    
    83   73   43 1    
    84   80   44 1    
    85   81   44 1    
    86   82   44 1    
@<TRIPOS>SUBSTRUCTURE
     1 318501      1 GROUP   
@<TRIPOS>SET

