#    Name: 2v40_GDP_1_INTS_M
#    Modification time : Tue Mar 25 00:58:00 2014

@<TRIPOS>MOLECULE
2v40_GDP_1_INTS_M
   45     0    12     0     0
SMALL
NO_CHARGES


@<TRIPOS>ATOM
      1 N          55.7230   17.4710   13.2440 N.am      2 SEC2        0.0000 
      2 N          54.3920   17.1280   13.5460 N.am     10 SEL2        0.0000 
      3 N          57.0540   17.8140   12.9420 N.am      6 SEP2        0.0000 
      4 N          51.9165   17.2375   13.8140 N.am      2 SEC2        0.0000 
      5 N          52.3110   16.5090   14.7430 N.am     10 SEL2        0.0000 
      6 N          51.5220   17.9660   12.8850 N.am      6 SEP2        0.0000 
      7 NZ         54.0220   13.9940   14.3265 N.4       3 LYC4        0.0000 
      8 NZ         54.3400   15.1850   15.0920 N.4      11 LYL4        0.0000 
      9 NZ         53.7040   12.8030   13.5610 N.4       7 LYP4        0.0000 
     10 N          55.2770   15.2680   16.2280 N.am      2 SEC2        0.0000 
     11 N          54.3400   15.1850   15.0920 N.am     10 SEL2        0.0000 
     12 N          56.2140   15.3510   17.3640 N.am      6 SEP2        0.0000 
     13 N          55.7750   15.4195   14.9195 N.am      2 SEC2        0.0000 
     14 N          57.2100   15.6540   14.7470 N.am      6 SEP2        0.0000 
     15 N          54.0220   13.9940   14.3265 N.am      2 SEC2        0.0000 
     16 N          53.7040   12.8030   13.5610 N.am      6 SEP2        0.0000 
     17 N          57.4385   19.5810   14.8260 N.am      2 SEC2        0.0000 
     18 N          56.0910   19.4200   15.5940 N.am     10 SEL2        0.0000 
     19 N          58.7860   19.7420   14.0580 N.am      6 SEP2        0.0000 
     20 CA         55.4140   17.6995   17.8140 C.3       4 GLC5        0.0000 
     21 CA         53.7330   18.9410   18.5670 C.3      12 GLL5        0.0000 
     22 CA         57.0950   16.4580   17.0610 C.3       8 GLP5        0.0000 
     23 CA         54.6000   18.7530   21.1495 C.3       4 GLC5        0.0000 
     24 CA         53.7570   20.0300   19.6420 C.3      12 GLL5        0.0000 
     25 CA         55.4430   17.4760   22.6570 C.3       8 GLP5        0.0000 
     26 CA         55.5760   19.1520   21.6650 C.3       4 GLC5        0.0000 
     27 CA         55.7090   20.8280   20.6730 C.3      12 GLL5        0.0000 
     28 CA         60.1030   19.9590   19.9760 C.3       4 GLC5        0.0000 
     29 CA         59.0410   19.6580   21.5910 C.3      12 GLL5        0.0000 
     30 CA         61.1650   20.2600   18.3610 C.3       8 GLP5        0.0000 
     31 N          60.9185   17.6865   22.8415 N.am      2 SEC2        0.0000 
     32 N          61.1070   19.0360   22.4330 N.am     10 SEL2        0.0000 
     33 N          60.7300   16.3370   23.2500 N.am      6 SEP2        0.0000 
     34 O          60.5035   19.8315   25.0085 O.2       1 ALC1        0.0000 
     35 O          59.7330   20.1720   23.8760 O.2       9 ALL1        0.0000 
     36 O          61.2740   19.4910   26.1410 O.2       5 ALP1        0.0000 
     37 O          59.3345   21.2290   26.2950 O.2       1 ALC1        0.0000 
     38 O          58.2880   21.3450   25.3040 O.2       9 ALL1        0.0000 
     39 O          60.3810   21.1130   27.2860 O.2       5 ALP1        0.0000 
     40 CA         57.3620   22.2635   22.3240 C.3       4 GLC5        0.0000 
     41 CA         57.7890   20.3460   21.8840 C.3      12 GLL5        0.0000 
     42 CA         56.9350   24.1810   22.7640 C.3       8 GLP5        0.0000 
     43 CA         56.2775   22.7022   21.4017 C.3       4 GLC5        0.0000 
     44 CA         58.1005   18.4475   22.5688 C.3       4 GLC5        0.0000 
     45 CA         57.7860   16.8930   23.4000 C.3       8 GLP5        0.0000 
@<TRIPOS>BOND
@<TRIPOS>SUBSTRUCTURE
     1 ALC1       34 GROUP        1 X    ALC  0     ROOT ALC X 1
     2 SEC2        1 GROUP        1 X    SEC  0     **** SEC X 2
     3 LYC4        7 GROUP        1 X    LYC  0     **** LYC X 4
     4 GLC5       20 GROUP        1 X    GLC  0     **** GLC X 6
     5 ALP1       36 GROUP        1 Y    ALP  0     ROOT ALP Y 8
     6 SEP2        3 GROUP        1 Y    SEP  0     **** SEP Y 9
     7 LYP4        9 GROUP        1 Y    LYP  0     **** LYP Y 11
     8 GLP5       22 GROUP        1 Y    GLP  0     **** GLP Y 13
     9 ALL1       35 GROUP        1 Z    ALL  0     ROOT ALL Z 15
    10 SEL2        2 GROUP        1 Z    SEL  0     **** SEL Z 16
    11 LYL4        8 GROUP        1 Z    LYL  0     **** LYL Z 18
    12 GLL5       21 GROUP        1 Z    GLL  0     **** GLL Z 20
@<TRIPOS>SET

