#    Name: 2v40_GDP_1_ligand
#    Modification time : Tue Mar 25 00:58:00 2014

@<TRIPOS>MOLECULE
2v40_GDP_1_ligand
   40    42     1     0     0
SMALL
NO_CHARGES


@<TRIPOS>ATOM
      1 PB         53.8070   16.5690   14.8210 P.3       1 GDP1457     0.0000 
      2 O1B        54.3920   17.1280   13.5460 O.co2     1 GDP1457     0.0000 
      3 O2B        52.3110   16.5090   14.7430 O.co2     1 GDP1457     0.0000 
      4 O3B        54.3400   15.1850   15.0920 O.co2     1 GDP1457     0.0000 
      5 O3A        54.2850   17.4650   16.0580 O.3       1 GDP1457     0.0000 
      6 PA         54.7330   19.0220   16.1140 P.3       1 GDP1457     0.0000 
      7 O1A        56.0910   19.4200   15.5940 O.co2     1 GDP1457     0.0000 
      8 O2A        53.6250   19.8970   15.5970 O.co2     1 GDP1457     0.0000 
      9 O5'        54.8660   19.0970   17.7190 O.3       1 GDP1457     0.0000 
     10 C5'        53.7330   18.9410   18.5670 C.3       1 GDP1457     0.0000 
     11 C4'        53.7570   20.0300   19.6420 C.3       1 GDP1457     0.0000 
     12 O4'        54.7830   19.7410   20.5920 O.3       1 GDP1457     0.0000 
     13 C3'        54.0560   21.4210   19.1220 C.3       1 GDP1457     0.0000 
     14 O3'        53.3090   22.3430   19.9310 O.3       1 GDP1457     0.0000 
     15 C2'        55.5310   21.6190   19.4060 C.3       1 GDP1457     0.0000 
     16 O2'        55.9030   22.9790   19.6080 O.3       1 GDP1457     0.0000 
     17 C1'        55.7090   20.8280   20.6730 C.3       1 GDP1457     0.0000 
     18 N9         57.0700   20.2700   20.7680 N.pl3     1 GDP1457     0.0000 
     19 C8         57.7560   19.5820   19.8110 C.2       1 GDP1457     0.0000 
     20 N7         58.9700   19.2190   20.3170 N.2       1 GDP1457     0.0000 
     21 C5         59.0410   19.6580   21.5910 C.2       1 GDP1457     0.0000 
     22 C6         60.0360   19.6140   22.6770 C.2       1 GDP1457     0.0000 
     23 O6         61.1070   19.0360   22.4330 O.2       1 GDP1457     0.0000 
     24 N1         59.7330   20.1720   23.8760 N.am      1 GDP1457     0.0000 
     25 C2         58.5480   20.7840   24.0830 C.2       1 GDP1457     0.0000 
     26 N2         58.2880   21.3450   25.3040 N.pl3     1 GDP1457     0.0000 
     27 N3         57.5930   20.8720   23.1200 N.2       1 GDP1457     0.0000 
     28 C4         57.7890   20.3460   21.8840 C.2       1 GDP1457     0.0000 
     29 H          53.7320   17.9723   19.0753 H         1 GDP1457     0.0000 
     30 H          52.7927   19.0383   18.0164 H         1 GDP1457     0.0000 
     31 H          52.7946   20.0517   20.1394 H         1 GDP1457     0.0000 
     32 H          53.8642   21.4794   18.1157 H         1 GDP1457     0.0000 
     33 H          56.0865   21.1290   18.6376 H         1 GDP1457     0.0000 
     34 H          55.4938   21.4488   21.5078 H         1 GDP1457     0.0000 
     35 H          57.4369   19.3849   18.9250 H         1 GDP1457     0.0000 
     36 H          60.4346   20.1253   24.6544 H         1 GDP1457     0.0000 
     37 H          57.4154   21.8256   25.3906 H         1 GDP1457     0.0000 
     38 H          58.9935   21.2251   26.0025 H         1 GDP1457     0.0000 
     39 H          53.9830   23.0058   20.2572 H         1 GDP1457     0.0000 
     40 H          56.5108   23.1970   18.8445 H         1 GDP1457     0.0000 
@<TRIPOS>BOND
     1    2    1 ar   
     2    3    1 ar   
     3    4    1 ar   
     4    5    1 1    
     5    6    5 1    
     6    7    6 ar   
     7    8    6 ar   
     8    9    6 1    
     9   10    9 1    
    10   11   10 1    
    11   29   10 1    
    12   30   10 1    
    13   12   11 1    
    14   13   11 1    
    15   31   11 1    
    16   17   12 1    
    17   14   13 1    
    18   15   13 1    
    19   32   13 1    
    20   39   14 1    
    21   16   15 1    
    22   17   15 1    
    23   33   15 1    
    24   40   16 1    
    25   18   17 1    
    26   34   17 1    
    27   19   18 1    
    28   28   18 1    
    29   20   19 2    
    30   35   19 1    
    31   21   20 1    
    32   22   21 1    
    33   28   21 2    
    34   23   22 2    
    35   24   22 am   
    36   25   24 1    
    37   36   24 1    
    38   26   25 1    
    39   27   25 2    
    40   37   26 1    
    41   38   26 1    
    42   28   27 1    
@<TRIPOS>SUBSTRUCTURE
     1 GDP1457     1 GROUP   
@<TRIPOS>SET

