#    Name: 4ddm_0HO_1_ligand
#    Modification time : Mon Apr  7 22:32:21 2014

@<TRIPOS>MOLECULE
4ddm_0HO_1_ligand
   15    16     1     0     0
SMALL
NO_CHARGES


@<TRIPOS>ATOM
      1 OAA        15.4630   11.4810    2.0480 O.co2     1 0HO406      0.0000 
      2 CAI        15.1360   11.7620    3.2270 C.2       1 0HO406      0.0000 
      3 OAB        15.2630   12.9170    3.6320 O.co2     1 0HO406      0.0000 
      4 CAJ        14.7450   10.7480    4.1030 C.ar      1 0HO406      0.0000 
      5 CAE        14.4470   11.0470    5.4150 C.ar      1 0HO406      0.0000 
      6 CAL        14.1300   10.1160    6.2960 C.ar      1 0HO406      0.0000 
      7 NAG        13.8090   10.3290    7.5720 N.ar      1 0HO406      0.0000 
      8 SAH        13.5130    8.8480    8.2560 S.3       1 0HO406      0.0000 
      9 NAF        13.7650    7.9700    6.9130 N.ar      1 0HO406      0.0000 
     10 CAK        14.0920    8.8160    5.9140 C.ar      1 0HO406      0.0000 
     11 CAD        14.4050    8.4840    4.6680 C.ar      1 0HO406      0.0000 
     12 CAC        14.7420    9.4220    3.7010 C.ar      1 0HO406      0.0000 
     13 H          14.4802   12.0648    5.7018 H         1 0HO406      0.0000 
     14 H          14.4054    7.4670    4.3726 H         1 0HO406      0.0000 
     15 H          14.9711    9.1521    2.7608 H         1 0HO406      0.0000 
@<TRIPOS>BOND
     1    2    1 ar   
     2    3    2 ar   
     3    4    2 1    
     4    5    4 ar   
     5   12    4 ar   
     6    6    5 ar   
     7   13    5 1    
     8    7    6 ar   
     9   10    6 ar   
    10    8    7 1    
    11    9    8 1    
    12   10    9 ar   
    13   11   10 ar   
    14   12   11 ar   
    15   14   11 1    
    16   15   12 1    
@<TRIPOS>SUBSTRUCTURE
     1 0HO406      1 GROUP   
@<TRIPOS>SET

