#    Name: 3dej_RXC_1_INTS_M
#    Modification time : Mon Mar 24 23:14:52 2014

@<TRIPOS>MOLECULE
3dej_RXC_1_INTS_M
   27     0     6     0     0
SMALL
NO_CHARGES


@<TRIPOS>ATOM
      1 CA        -50.3935   12.8060  -23.5250 C.3       2 GLC5        0.0000 
      2 CA        -50.5960   14.0840  -21.7600 C.3       6 GLL5        0.0000 
      3 CA        -50.1910   11.5280  -25.2900 C.3       4 GLP5        0.0000 
      4 CA        -51.2320   16.1365  -24.3545 C.3       2 GLC5        0.0000 
      5 CA        -50.2960   14.6060  -23.0230 C.3       6 GLL5        0.0000 
      6 CA        -52.1680   17.6670  -25.6860 C.3       4 GLP5        0.0000 
      7 N         -45.7560   17.9855  -27.0370 N.am      1 SEC2        0.0000 
      8 N         -44.2740   17.5180  -26.9100 N.am      5 SEL2        0.0000 
      9 N         -47.2380   18.4530  -27.1640 N.am      3 SEP2        0.0000 
     10 CA        -44.9470   15.5855  -28.2255 C.3       2 GLC5        0.0000 
     11 CA        -44.0810   15.1180  -26.5070 C.3       6 GLL5        0.0000 
     12 CA        -45.8130   16.0530  -29.9440 C.3       4 GLP5        0.0000 
     13 CA        -45.4295   18.1930  -22.3210 C.3       2 GLC5        0.0000 
     14 CA        -43.7960   17.0170  -21.8740 C.3       6 GLL5        0.0000 
     15 CA        -47.0630   19.3690  -22.7680 C.3       4 GLP5        0.0000 
     16 CA        -42.8515   11.7485  -21.0585 C.3       2 GLC5        0.0000 
     17 CA        -41.3220   13.2660  -20.6360 C.3       6 GLL5        0.0000 
     18 CA        -44.3810   10.2310  -21.4810 C.3       4 GLP5        0.0000 
     19 CA        -40.3735   12.5710  -18.8455 C.3       2 GLC5        0.0000 
     20 CA        -39.4250   11.8760  -17.0550 C.3       4 GLP5        0.0000 
     21 CA        -48.9856   13.7115  -24.2552 C.3       2 GLC5        0.0000 
     22 CA        -48.9590   14.9740  -23.3370 C.3       6 GLL5        0.0000 
     23 CA        -49.2080   12.6200  -25.7110 C.3       4 GLP5        0.0000 
     24 CA        -48.8396   16.7250  -23.5658 C.3       2 GLC5        0.0000 
     25 CA        -48.9160   18.6470  -24.3320 C.3       4 GLP5        0.0000 
     26 CA        -43.3957   17.5150  -19.8605 C.3       2 GLC5        0.0000 
     27 CA        -43.9700   18.5680  -18.9160 C.3       4 GLP5        0.0000 
@<TRIPOS>BOND
@<TRIPOS>SUBSTRUCTURE
     1 SEC2        7 GROUP        1 X    SEC  0     ROOT SEC X 2
     2 GLC5        1 GROUP        1 X    GLC  0     **** GLC X 6
     3 SEP2        9 GROUP        1 Y    SEP  0     ROOT SEP Y 9
     4 GLP5        3 GROUP        1 Y    GLP  0     **** GLP Y 13
     5 SEL2        8 GROUP        1 Z    SEL  0     ROOT SEL Z 16
     6 GLL5        2 GROUP        1 Z    GLL  0     **** GLL Z 20
@<TRIPOS>SET

