#    Name: 3dej_RXC_1_ligand
#    Modification time : Mon Mar 24 23:14:52 2014

@<TRIPOS>MOLECULE
3dej_RXC_1_ligand
   41    43     1     0     0
SMALL
NO_CHARGES


@<TRIPOS>ATOM
      1 OAE       -50.9490   13.0910  -19.2630 O.2       1 RXC300      0.0000 
      2 CAX       -49.7540   13.4250  -19.5780 C.2       1 RXC300      0.0000 
      3 NAP       -48.6980   13.2930  -18.7070 N.am      1 RXC300      0.0000 
      4 CAW       -47.4140   13.6310  -19.0110 C.2       1 RXC300      0.0000 
      5 OAD       -46.4800   13.4980  -18.1760 O.2       1 RXC300      0.0000 
      6 CAZ       -49.5140   13.9360  -20.8490 C.ar      1 RXC300      0.0000 
      7 CBA       -48.1810   14.2910  -21.1750 C.ar      1 RXC300      0.0000 
      8 CAY       -47.1130   14.1430  -20.2670 C.2       1 RXC300      0.0000 
      9 OAF       -45.8950   14.4680  -20.5530 O.2       1 RXC300      0.0000 
     10 CAM       -50.5960   14.0840  -21.7600 C.ar      1 RXC300      0.0000 
     11 CAI       -50.2960   14.6060  -23.0230 C.ar      1 RXC300      0.0000 
     12 CAL       -48.9590   14.9740  -23.3370 C.ar      1 RXC300      0.0000 
     13 CAV       -47.8990   14.8160  -22.4190 C.ar      1 RXC300      0.0000 
     14 NAO       -46.5770   15.1350  -22.6490 N.am      1 RXC300      0.0000 
     15 CAS       -46.0880   15.5820  -23.8120 C.2       1 RXC300      0.0000 
     16 OAC       -46.7480   15.7330  -24.8520 O.2       1 RXC300      0.0000 
     17 CBB       -44.5990   15.7600  -23.9040 C.3       1 RXC300      0.0000 
     18 OAQ       -44.2910   16.9300  -24.6890 O.3       1 RXC300      0.0000 
     19 CAR       -44.2170   16.5800  -26.1040 C.2       1 RXC300      0.0000 
     20 OAB       -44.2740   17.5180  -26.9100 O.2       1 RXC300      0.0000 
     21 CAA       -44.0810   15.1180  -26.5070 C.3       1 RXC300      0.0000 
     22 CAU       -43.8330   15.8400  -22.6260 C.ar      1 RXC300      0.0000 
     23 CAK       -43.7960   17.0170  -21.8740 C.ar      1 RXC300      0.0000 
     24 CAH       -43.0000   17.0270  -20.7100 C.ar      1 RXC300      0.0000 
     25 CAJ       -42.2450   15.9020  -20.3180 C.ar      1 RXC300      0.0000 
     26 CAT       -42.2740   14.7480  -21.0920 C.ar      1 RXC300      0.0000 
     27 CLAG      -41.3220   13.2660  -20.6360 Cl        1 RXC300      0.0000 
     28 CAN       -43.0630   14.7280  -22.2430 C.ar      1 RXC300      0.0000 
     29 H         -48.9016   12.9030  -17.7391 H         1 RXC300      0.0000 
     30 H         -51.5260   13.8234  -21.4991 H         1 RXC300      0.0000 
     31 H         -51.0278   14.7262  -23.7241 H         1 RXC300      0.0000 
     32 H         -48.7609   15.3713  -24.2729 H         1 RXC300      0.0000 
     33 H         -45.9029   15.0099  -21.8236 H         1 RXC300      0.0000 
     34 H         -44.1953   14.8783  -24.4738 H         1 RXC300      0.0000 
     35 H         -44.3181   17.8341  -22.1489 H         1 RXC300      0.0000 
     36 H         -42.9689   17.8815  -20.1285 H         1 RXC300      0.0000 
     37 H         -41.6808   15.9445  -19.4652 H         1 RXC300      0.0000 
     38 H         -43.0847   13.8760  -22.8317 H         1 RXC300      0.0000 
     39 H         -44.0386   15.0089  -27.5001 H         1 RXC300      0.0000 
     40 H         -43.2516   14.7047  -26.1310 H         1 RXC300      0.0000 
     41 H         -44.8533   14.5705  -26.1847 H         1 RXC300      0.0000 
@<TRIPOS>BOND
     1    2    1 2    
     2    3    2 am   
     3    6    2 1    
     4    4    3 am   
     5   29    3 1    
     6    5    4 2    
     7    8    4 1    
     8    7    6 ar   
     9   10    6 ar   
    10    8    7 1    
    11   13    7 ar   
    12    9    8 2    
    13   11   10 ar   
    14   30   10 1    
    15   12   11 ar   
    16   31   11 1    
    17   13   12 ar   
    18   32   12 1    
    19   14   13 1    
    20   15   14 am   
    21   33   14 1    
    22   16   15 2    
    23   17   15 1    
    24   18   17 1    
    25   22   17 1    
    26   34   17 1    
    27   19   18 1    
    28   20   19 2    
    29   21   19 1    
    30   39   21 1    
    31   40   21 1    
    32   41   21 1    
    33   23   22 ar   
    34   28   22 ar   
    35   24   23 ar   
    36   35   23 1    
    37   25   24 ar   
    38   36   24 1    
    39   26   25 ar   
    40   37   25 1    
    41   27   26 1    
    42   28   26 ar   
    43   38   28 1    
@<TRIPOS>SUBSTRUCTURE
     1 RXC300      1 GROUP   
@<TRIPOS>SET

