#    Name: 1m6y_SAH_1_INTS_M
#    Modification time : Tue Mar 25 11:26:00 2014

@<TRIPOS>MOLECULE
1m6y_SAH_1_INTS_M
   79     0    12     0     0
SMALL
NO_CHARGES


@<TRIPOS>ATOM
      1 OD1       -44.0985  -12.7710   -3.0840 O.co2     3 ASC3        0.0000 
      2 OD1       -43.6910  -13.5760   -1.9630 O.co2    11 ASL3        0.0000 
      3 OD1       -44.5060  -11.9660   -4.2050 O.co2     7 ASP3        0.0000 
      4 O         -42.1485  -14.3270   -2.1015 O.2       1 ALC1        0.0000 
      5 O         -43.6910  -13.5760   -1.9630 O.2       9 ALL1        0.0000 
      6 O         -40.6060  -15.0780   -2.2400 O.2       5 ALP1        0.0000 
      7 O         -44.0985  -12.7710   -3.0840 O.2       1 ALC1        0.0000 
      8 O         -44.5060  -11.9660   -4.2050 O.2       5 ALP1        0.0000 
      9 O         -43.4425  -14.8505   -2.5680 O.2       1 ALC1        0.0000 
     10 O         -43.1940  -16.1250   -3.1730 O.2       5 ALP1        0.0000 
     11 CA        -44.6535  -13.6455   -1.7900 C.3       4 GLC5        0.0000 
     12 CA        -42.9250  -12.7930   -1.0100 C.3      12 GLL5        0.0000 
     13 CA        -46.3820  -14.4980   -2.5700 C.3       8 GLP5        0.0000 
     14 CA        -40.3870  -13.6020   -3.7290 C.3       4 GLC5        0.0000 
     15 CA        -41.3180  -11.8680   -2.7820 C.3      12 GLL5        0.0000 
     16 CA        -39.4560  -15.3360   -4.6760 C.3       8 GLP5        0.0000 
     17 CA        -42.4810  -12.7840   -4.1835 C.3       4 GLC5        0.0000 
     18 CA        -43.6440  -13.7000   -5.5850 C.3       8 GLP5        0.0000 
     19 CA        -39.8805   -8.4780   -4.0485 C.3       4 GLC5        0.0000 
     20 CA        -40.4110  -10.3830   -3.3320 C.3      12 GLL5        0.0000 
     21 CA        -39.3500   -6.5730   -4.7650 C.3       8 GLP5        0.0000 
     22 CA        -40.3700   -8.6515   -2.2265 C.3       4 GLC5        0.0000 
     23 CA        -40.3290   -6.9200   -1.1210 C.3       8 GLP5        0.0000 
     24 N         -43.7430  -10.7065    1.4515 N.am      2 SEC2        0.0000 
     25 N         -43.2910  -11.9220    1.1640 N.am     10 SEL2        0.0000 
     26 N         -44.1950   -9.4910    1.7390 N.am      6 SEP2        0.0000 
     27 N         -41.9165  -11.8890    1.9295 N.am      2 SEC2        0.0000 
     28 N         -40.5420  -11.8560    2.6950 N.am      6 SEP2        0.0000 
     29 N         -44.1075  -12.7670    2.1645 N.am      2 SEC2        0.0000 
     30 N         -44.9240  -13.6120    3.1650 N.am      6 SEP2        0.0000 
     31 N         -45.8795  -13.7750    0.5935 N.am      2 SEC2        0.0000 
     32 N         -45.0620  -12.5510    0.0170 N.am     10 SEL2        0.0000 
     33 N         -46.6970  -14.9990    1.1700 N.am      6 SEP2        0.0000 
     34 CA        -40.1040   -9.8170   -6.0235 C.3       4 GLC5        0.0000 
     35 CA        -39.2000  -11.1170   -4.4720 C.3      12 GLL5        0.0000 
     36 CA        -41.0080   -8.5170   -7.5750 C.3       8 GLP5        0.0000 
     37 O         -35.8265  -12.1595   -1.2920 O.2       1 ALC1        0.0000 
     38 O         -37.1100  -11.2110   -1.5370 O.2       9 ALL1        0.0000 
     39 O         -34.5430  -13.1080   -1.0470 O.2       5 ALP1        0.0000 
     40 O         -36.8780  -12.4250   -1.1845 O.2       1 ALC1        0.0000 
     41 O         -36.6460  -13.6390   -0.8320 O.2       5 ALP1        0.0000 
     42 CA        -34.8355  -10.0745   -4.8580 C.3       4 GLC5        0.0000 
     43 CA        -35.8120  -11.2190   -3.6050 C.3      12 GLL5        0.0000 
     44 CA        -33.8590   -8.9300   -6.1110 C.3       8 GLP5        0.0000 
     45 N         -34.8215   -9.7180   -2.1065 N.am      2 SEC2        0.0000 
     46 N         -34.6950  -11.0860   -2.7550 N.am     10 SEL2        0.0000 
     47 N         -34.9480   -8.3500   -1.4580 N.am      6 SEP2        0.0000 
     48 O         -34.6190  -12.0970   -1.9010 O.2       1 ALC1        0.0000 
     49 O         -34.6950  -11.0860   -2.7550 O.2       9 ALL1        0.0000 
     50 CA        -37.3265  -14.1140   -4.9945 C.3       4 GLC5        0.0000 
     51 CA        -36.0120  -12.6760   -4.0160 C.3      12 GLL5        0.0000 
     52 CA        -38.6410  -15.5520   -5.9730 C.3       8 GLP5        0.0000 
     53 CA        -31.9110  -15.5520   -5.3310 C.3       4 GLC5        0.0000 
     54 CA        -33.2390  -15.7490   -6.5910 C.3      12 GLL5        0.0000 
     55 CA        -30.5830  -15.3550   -4.0710 C.3       8 GLP5        0.0000 
     56 CA        -32.0160  -17.2580   -5.9585 C.3       4 GLC5        0.0000 
     57 CA        -30.7930  -18.7670   -5.3260 C.3       8 GLP5        0.0000 
     58 O         -31.4555  -17.0815   -7.6615 O.2       1 ALC1        0.0000 
     59 O         -32.4270  -15.9220   -7.6450 O.2       9 ALL1        0.0000 
     60 O         -30.4840  -18.2410   -7.6780 O.2       5 ALP1        0.0000 
     61 N         -33.1775  -18.2095   -6.0465 N.am      2 SEC2        0.0000 
     62 N         -33.4890  -16.8040   -5.7810 N.am     10 SEL2        0.0000 
     63 N         -32.8660  -19.6150   -6.3120 N.am      6 SEP2        0.0000 
     64 CA        -34.3110  -16.3905   -2.8085 C.3       4 GLC5        0.0000 
     65 CA        -34.2770  -16.6180   -4.7080 C.3      12 GLL5        0.0000 
     66 CA        -34.3450  -16.1630   -0.9090 C.3       8 GLP5        0.0000 
     67 CA        -32.4300  -15.9865   -4.3895 C.3       4 GLC5        0.0000 
     68 CA        -32.5350  -17.6925   -5.0170 C.3       4 GLC5        0.0000 
     69 CA        -34.6875  -18.4180   -5.9550 C.3       4 GLC5        0.0000 
     70 CA        -35.0980  -20.2180   -7.2020 C.3       8 GLP5        0.0000 
     71 CA        -36.6380  -15.0175   -5.5535 C.3       4 GLC5        0.0000 
     72 CA        -34.6350  -14.4830   -5.1340 C.3      12 GLL5        0.0000 
     73 CA        -40.6338  -12.3930   -0.6194 C.3       4 GLC5        0.0000 
     74 CA        -42.3250  -11.5510   -1.6930 C.3      12 GLL5        0.0000 
     75 CA        -39.2960  -12.7660    0.8280 C.3       8 GLP5        0.0000 
     76 CA        -39.0633  -13.4028   -4.3708 C.3       4 GLC5        0.0000 
     77 CA        -38.1410  -11.8220   -3.6590 C.3      12 GLL5        0.0000 
     78 CA        -32.7715  -13.7315   -4.6580 C.3       4 GLC5        0.0000 
     79 CA        -31.3040  -12.9620   -3.6130 C.3       8 GLP5        0.0000 
@<TRIPOS>BOND
@<TRIPOS>SUBSTRUCTURE
     1 ALC1        4 GROUP        1 X    ALC  0     ROOT ALC X 1
     2 SEC2       24 GROUP        1 X    SEC  0     **** SEC X 2
     3 ASC3        1 GROUP        1 X    ASC  0     **** ASC X 3
     4 GLC5       11 GROUP        1 X    GLC  0     **** GLC X 6
     5 ALP1        6 GROUP        1 Y    ALP  0     ROOT ALP Y 8
     6 SEP2       26 GROUP        1 Y    SEP  0     **** SEP Y 9
     7 ASP3        3 GROUP        1 Y    ASP  0     **** ASP Y 10
     8 GLP5       13 GROUP        1 Y    GLP  0     **** GLP Y 13
     9 ALL1        5 GROUP        1 Z    ALL  0     ROOT ALL Z 15
    10 SEL2       25 GROUP        1 Z    SEL  0     **** SEL Z 16
    11 ASL3        2 GROUP        1 Z    ASL  0     **** ASL Z 17
    12 GLL5       12 GROUP        1 Z    GLL  0     **** GLL Z 20
@<TRIPOS>SET

