#    Name: 1m6y_SAH_1_ligand
#    Modification time : Tue Mar 25 11:26:00 2014

@<TRIPOS>MOLECULE
1m6y_SAH_1_ligand
   46    48     1     0     0
SMALL
NO_CHARGES


@<TRIPOS>ATOM
      1 N         -43.6910  -13.5760   -1.9630 N.4       1 SAH401      0.0000 
      2 CA        -42.9250  -12.7930   -1.0100 C.3       1 SAH401      0.0000 
      3 CB        -42.3250  -11.5510   -1.6930 C.3       1 SAH401      0.0000 
      4 CG        -41.3180  -11.8680   -2.7820 C.3       1 SAH401      0.0000 
      5 SD        -40.4110  -10.3830   -3.3320 S.3       1 SAH401      0.0000 
      6 C         -43.8300  -12.3630    0.1350 C.2       1 SAH401      0.0000 
      7 O         -43.2910  -11.9220    1.1640 O.co2     1 SAH401      0.0000 
      8 OXT       -45.0620  -12.5510    0.0170 O.co2     1 SAH401      0.0000 
      9 C5'       -39.2000  -11.1170   -4.4720 C.3       1 SAH401      0.0000 
     10 C4'       -38.1410  -11.8220   -3.6590 C.3       1 SAH401      0.0000 
     11 O4'       -37.3190  -12.6520   -4.5370 O.3       1 SAH401      0.0000 
     12 C3'       -37.1540  -10.9020   -2.9280 C.3       1 SAH401      0.0000 
     13 O3'       -37.1100  -11.2110   -1.5370 O.3       1 SAH401      0.0000 
     14 C2'       -35.8120  -11.2190   -3.6050 C.3       1 SAH401      0.0000 
     15 O2'       -34.6950  -11.0860   -2.7550 O.3       1 SAH401      0.0000 
     16 C1'       -36.0120  -12.6760   -4.0160 C.3       1 SAH401      0.0000 
     17 N9        -35.1120  -13.1910   -5.0480 N.pl3     1 SAH401      0.0000 
     18 C8        -34.5800  -12.5220   -6.1340 C.2       1 SAH401      0.0000 
     19 N7        -33.8120  -13.2770   -6.8930 N.2       1 SAH401      0.0000 
     20 C5        -33.8430  -14.5190   -6.2720 C.ar      1 SAH401      0.0000 
     21 C6        -33.2390  -15.7490   -6.5910 C.ar      1 SAH401      0.0000 
     22 N6        -32.4270  -15.9220   -7.6450 N.pl3     1 SAH401      0.0000 
     23 N1        -33.4890  -16.8040   -5.7810 N.ar      1 SAH401      0.0000 
     24 C2        -34.2770  -16.6180   -4.7080 C.ar      1 SAH401      0.0000 
     25 N3        -34.8890  -15.5020   -4.2960 N.ar      1 SAH401      0.0000 
     26 C4        -34.6350  -14.4830   -5.1340 C.ar      1 SAH401      0.0000 
     27 H         -42.1140  -13.3745   -0.6015 H         1 SAH401      0.0000 
     28 H         -41.8442  -10.9262   -0.9215 H         1 SAH401      0.0000 
     29 H         -43.1491  -10.9548   -2.1199 H         1 SAH401      0.0000 
     30 H         -41.7587  -12.2095   -3.6967 H         1 SAH401      0.0000 
     31 H         -40.5208  -12.5093   -2.4647 H         1 SAH401      0.0000 
     32 H         -38.8509  -10.2698   -5.0000 H         1 SAH401      0.0000 
     33 H         -39.8046  -11.7623   -5.0520 H         1 SAH401      0.0000 
     34 H         -38.6100  -12.4608   -2.9194 H         1 SAH401      0.0000 
     35 H         -37.4081   -9.9024   -3.1458 H         1 SAH401      0.0000 
     36 H         -35.7600  -10.6445   -4.5025 H         1 SAH401      0.0000 
     37 H         -35.9884  -13.2765   -3.1279 H         1 SAH401      0.0000 
     38 H         -34.7793  -11.5568   -6.2986 H         1 SAH401      0.0000 
     39 H         -32.0598  -16.8436   -7.7710 H         1 SAH401      0.0000 
     40 H         -32.2616  -15.1139   -8.2103 H         1 SAH401      0.0000 
     41 H         -34.4409  -17.5143   -4.0793 H         1 SAH401      0.0000 
     42 H         -43.6820  -13.1644   -2.8743 H         1 SAH401      0.0000 
     43 H         -43.3297  -14.5037   -2.0570 H         1 SAH401      0.0000 
     44 H         -44.6490  -13.6608   -1.6891 H         1 SAH401      0.0000 
     45 H         -36.9102  -12.1900   -1.4957 H         1 SAH401      0.0000 
     46 H         -34.7104  -11.9025   -2.1779 H         1 SAH401      0.0000 
@<TRIPOS>BOND
     1    2    1 1    
     2   42    1 1    
     3   43    1 1    
     4   44    1 1    
     5    3    2 1    
     6    6    2 1    
     7   27    2 1    
     8    4    3 1    
     9   28    3 1    
    10   29    3 1    
    11    5    4 1    
    12   30    4 1    
    13   31    4 1    
    14    9    5 1    
    15    7    6 ar   
    16    8    6 ar   
    17   10    9 1    
    18   32    9 1    
    19   33    9 1    
    20   11   10 1    
    21   12   10 1    
    22   34   10 1    
    23   16   11 1    
    24   13   12 1    
    25   14   12 1    
    26   35   12 1    
    27   45   13 1    
    28   15   14 1    
    29   16   14 1    
    30   36   14 1    
    31   46   15 1    
    32   17   16 1    
    33   37   16 1    
    34   18   17 1    
    35   26   17 1    
    36   19   18 2    
    37   38   18 1    
    38   20   19 1    
    39   21   20 ar   
    40   26   20 ar   
    41   22   21 1    
    42   23   21 ar   
    43   39   22 1    
    44   40   22 1    
    45   24   23 ar   
    46   25   24 ar   
    47   41   24 1    
    48   26   25 ar   
@<TRIPOS>SUBSTRUCTURE
     1 SAH401      1 GROUP   
@<TRIPOS>SET

