#    Name: 4h3g_10Q_2_INTS_M
#    Modification time : Tue Mar 25 00:15:06 2014

@<TRIPOS>MOLECULE
4h3g_10Q_2_INTS_M
   70     0    12     0     0
SMALL
NO_CHARGES


@<TRIPOS>ATOM
      1 CA         22.3710   31.7720   56.1210 C.3       4 GLC5        0.0000 
      2 CA         21.6990   33.2900   56.9270 C.3      12 GLL5        0.0000 
      3 CA         23.0430   30.2540   55.3150 C.3       8 GLP5        0.0000 
      4 OD1        20.8510   37.1165   58.6605 O.co2     3 ASC3        0.0000 
      5 OD1        20.6000   35.1060   58.8790 O.co2    11 ASL3        0.0000 
      6 OD1        20.1230   38.7080   59.1580 O.co2     7 ASP3        0.0000 
      7 OD1        21.3900   38.2590   57.4610 O.co2     7 ASP3        0.0000 
      8 OD1        19.9190   35.9030   61.1650 O.co2     3 ASC3        0.0000 
      9 OD1        19.5260   35.8320   62.4700 O.co2     7 ASP3        0.0000 
     10 O          21.2060   36.9140   57.5625 O.2       1 ALC1        0.0000 
     11 O          21.0220   35.5690   57.6640 O.2       9 ALL1        0.0000 
     12 O          21.3900   38.2590   57.4610 O.2       5 ALP1        0.0000 
     13 CA         23.5220   36.9110   56.7995 C.3       4 GLC5        0.0000 
     14 CA         22.4250   35.2580   55.7580 C.3      12 GLL5        0.0000 
     15 CA         24.6190   38.5640   57.8410 C.3       8 GLP5        0.0000 
     16 CA         23.8005   32.0000   56.1345 C.3       4 GLC5        0.0000 
     17 CA         23.2250   33.4080   57.1420 C.3      12 GLL5        0.0000 
     18 CA         24.3760   30.5920   55.1270 C.3       8 GLP5        0.0000 
     19 CA         20.4770   36.2490   54.0075 C.3       4 GLC5        0.0000 
     20 CA         20.0720   34.2410   53.9490 C.3      12 GLL5        0.0000 
     21 CA         20.8820   38.2570   54.0660 C.3       8 GLP5        0.0000 
     22 O          20.2175   37.3410   59.5090 O.2       1 ALC1        0.0000 
     23 O          20.3120   35.9740   59.8600 O.2       9 ALL1        0.0000 
     24 O          20.1230   38.7080   59.1580 O.2       5 ALP1        0.0000 
     25 O          20.8510   37.1165   58.6605 O.2       1 ALC1        0.0000 
     26 O          19.9190   35.9030   61.1650 O.2       1 ALC1        0.0000 
     27 O          19.5260   35.8320   62.4700 O.2       5 ALP1        0.0000 
     28 CA         15.4005   36.4905   58.6745 C.3       4 GLC5        0.0000 
     29 CA         13.7740   35.4990   57.8400 C.3      12 GLL5        0.0000 
     30 CA         17.0270   37.4820   59.5090 C.3       8 GLP5        0.0000 
     31 CA         14.7505   35.0130   59.6970 C.3       4 GLC5        0.0000 
     32 CA         15.7270   34.5270   61.5540 C.3       8 GLP5        0.0000 
     33 CA         12.9130   34.5185   59.6465 C.3       4 GLC5        0.0000 
     34 CA         12.0520   33.5380   61.4530 C.3       8 GLP5        0.0000 
     35 CA         16.3515   36.2040   57.9550 C.3       4 GLC5        0.0000 
     36 CA         15.6760   34.9260   56.4010 C.3      12 GLL5        0.0000 
     37 CA         18.1120   33.6935   61.5950 C.3       4 GLC5        0.0000 
     38 CA         19.7900   33.2500   60.3230 C.3      12 GLL5        0.0000 
     39 CA         16.4340   34.1370   62.8670 C.3       8 GLP5        0.0000 
     40 CA         26.4445   35.1735   53.7290 C.3       4 GLC5        0.0000 
     41 CA         24.7780   36.4040   54.1230 C.3      12 GLL5        0.0000 
     42 CA         28.1110   33.9430   53.3350 C.3       8 GLP5        0.0000 
     43 CA         25.8245   36.7530   52.3985 C.3       4 GLC5        0.0000 
     44 CA         26.8710   37.1020   50.6740 C.3       8 GLP5        0.0000 
     45 CA         22.8300   37.3305   54.0945 C.3       4 GLC5        0.0000 
     46 N          24.5815   36.0950   51.9625 N.am      2 SEC2        0.0000 
     47 N          24.1800   36.7370   53.1920 N.am     10 SEL2        0.0000 
     48 N          24.9830   35.4530   50.7330 N.am      6 SEP2        0.0000 
     49 CA         21.2070   36.5961   54.9876 C.3       4 GLC5        0.0000 
     50 CA         17.6871   36.1517   54.2976 C.3       4 GLC5        0.0000 
     51 CA         18.6470   34.5740   56.0510 C.3      12 GLL5        0.0000 
     52 CA         17.0980   37.9780   53.9510 C.3       8 GLP5        0.0000 
     53 CA         16.5252   36.3145   54.8810 C.3       4 GLC5        0.0000 
     54 CA         16.2290   34.3760   55.2210 C.3      12 GLL5        0.0000 
     55 CA         29.2270   36.2937   55.6185 C.3       4 GLC5        0.0000 
     56 CA         26.8130   36.3670   55.4430 C.3      12 GLL5        0.0000 
     57 CA         31.2650   36.4160   55.2330 C.3       8 GLP5        0.0000 
     58 CA         14.0690   33.1412   52.8325 C.3       4 GLC5        0.0000 
     59 CA         15.3320   33.8190   54.2690 C.3      12 GLL5        0.0000 
     60 CA         13.5070   32.4650   51.2860 C.3       8 GLP5        0.0000 
     61 CA         25.8428   37.1184   57.3045 C.3       4 GLC5        0.0000 
     62 CA         11.9438   34.5035   54.4475 C.3       4 GLC5        0.0000 
     63 CA         13.9300   33.8160   54.4890 C.3      12 GLL5        0.0000 
     64 CA         10.2270   34.9130   53.8130 C.3       8 GLP5        0.0000 
     65 CA         27.4821   35.0056   54.6531 C.3       4 GLC5        0.0000 
     66 CA         25.4700   35.9540   55.3120 C.3      12 GLL5        0.0000 
     67 CA         12.7825   36.3161   56.0217 C.3       4 GLC5        0.0000 
     68 CA         14.2800   34.9260   56.6280 C.3      12 GLL5        0.0000 
     69 CA         11.8560   37.8400   55.5890 C.3       8 GLP5        0.0000 
     70 CA         24.7984   37.2676   56.4086 C.3       4 GLC5        0.0000 
@<TRIPOS>BOND
@<TRIPOS>SUBSTRUCTURE
     1 ALC1       10 GROUP        1 X    ALC  0     ROOT ALC X 1
     2 SEC2       46 GROUP        1 X    SEC  0     **** SEC X 2
     3 ASC3        4 GROUP        1 X    ASC  0     **** ASC X 3
     4 GLC5        1 GROUP        1 X    GLC  0     **** GLC X 6
     5 ALP1       12 GROUP        1 Y    ALP  0     ROOT ALP Y 8
     6 SEP2       48 GROUP        1 Y    SEP  0     **** SEP Y 9
     7 ASP3        6 GROUP        1 Y    ASP  0     **** ASP Y 10
     8 GLP5        3 GROUP        1 Y    GLP  0     **** GLP Y 13
     9 ALL1       11 GROUP        1 Z    ALL  0     ROOT ALL Z 15
    10 SEL2       47 GROUP        1 Z    SEL  0     **** SEL Z 16
    11 ASL3        5 GROUP        1 Z    ASL  0     **** ASL Z 17
    12 GLL5        2 GROUP        1 Z    GLL  0     **** GLL Z 20
@<TRIPOS>SET

