#    Name: 4h3g_10Q_2_ligand
#    Modification time : Tue Mar 25 00:15:06 2014

@<TRIPOS>MOLECULE
4h3g_10Q_2_ligand
   53    57     1     0     0
SMALL
NO_CHARGES


@<TRIPOS>ATOM
      1 C1         21.2500   34.6960   56.5010 C.3       1 10Q503      0.0000 
      2 C2         21.6990   33.2900   56.9270 C.3       1 10Q503      0.0000 
      3 N1         20.4630   33.7310   59.0780 N.am      1 10Q503      0.0000 
      4 C3         20.6000   35.1060   58.8790 C.cat     1 10Q503      0.0000 
      5 C4         20.9170   32.7670   58.1730 C.2       1 10Q503      0.0000 
      6 N2         21.0220   35.5690   57.6640 N.pl3     1 10Q503      0.0000 
      7 C5         20.0280   34.5290   55.6200 C.2       1 10Q503      0.0000 
      8 N3         23.5800   34.6280   56.3940 N.3       1 10Q503      0.0000 
      9 C6         22.4250   35.2580   55.7580 C.3       1 10Q503      0.0000 
     10 C7         23.2250   33.4080   57.1420 C.3       1 10Q503      0.0000 
     11 C8         18.6470   34.5740   56.0510 C.2       1 10Q503      0.0000 
     12 C9         17.7180   34.3760   55.0000 C.2       1 10Q503      0.0000 
     13 S1         20.0720   34.2410   53.9490 S.3       1 10Q503      0.0000 
     14 C10        18.3700   34.1760   53.7630 C.2       1 10Q503      0.0000 
     15 C11        24.8850   35.1230   56.3470 C.ar      1 10Q503      0.0000 
     16 N4         13.3910   35.9680   58.8270 N.1       1 10Q503      0.0000 
     17 N5         20.3120   35.9740   59.8600 N.pl3     1 10Q503      0.0000 
     18 C12        16.2290   34.3760   55.2210 C.ar      1 10Q503      0.0000 
     19 C13        25.4700   35.9540   55.3120 C.ar      1 10Q503      0.0000 
     20 C14        13.7740   35.4990   57.8400 C.1       1 10Q503      0.0000 
     21 O1         20.7200   31.5610   58.3130 O.2       1 10Q503      0.0000 
     22 C15        26.8130   36.3670   55.4430 C.ar      1 10Q503      0.0000 
     23 C16        15.6760   34.9260   56.4010 C.ar      1 10Q503      0.0000 
     24 C17        19.7900   33.2500   60.3230 C.3       1 10Q503      0.0000 
     25 C18        14.2800   34.9260   56.6280 C.ar      1 10Q503      0.0000 
     26 N6         25.6570   34.7470   57.4200 N.ar      1 10Q503      0.0000 
     27 C19        15.3320   33.8190   54.2690 C.ar      1 10Q503      0.0000 
     28 C20        26.9440   35.1740   57.5320 C.ar      1 10Q503      0.0000 
     29 C21        13.9300   33.8160   54.4890 C.ar      1 10Q503      0.0000 
     30 C22        27.5650   35.9760   56.5650 C.ar      1 10Q503      0.0000 
     31 C23        13.3910   34.3720   55.6750 C.ar      1 10Q503      0.0000 
     32 C24        24.7780   36.4040   54.1230 C.1       1 10Q503      0.0000 
     33 N7         24.1800   36.7370   53.1920 N.1       1 10Q503      0.0000 
     34 H          21.5326   32.6256   56.0913 H         1 10Q503      0.0000 
     35 H          21.2035   36.5850   57.5097 H         1 10Q503      0.0000 
     36 H          22.4503   36.3226   55.8816 H         1 10Q503      0.0000 
     37 H          22.3581   34.9845   54.7236 H         1 10Q503      0.0000 
     38 H          23.6925   32.5478   56.7280 H         1 10Q503      0.0000 
     39 H          23.4124   33.5209   58.1822 H         1 10Q503      0.0000 
     40 H          18.3975   34.7262   56.9751 H         1 10Q503      0.0000 
     41 H          18.0758   34.0242   52.9134 H         1 10Q503      0.0000 
     42 H          19.9725   35.5773   60.7129 H         1 10Q503      0.0000 
     43 H          20.4626   36.9402   59.6508 H         1 10Q503      0.0000 
     44 H          27.2382   36.9518   54.7193 H         1 10Q503      0.0000 
     45 H          16.3024   35.3346   57.1089 H         1 10Q503      0.0000 
     46 H          15.7077   33.4102   53.4038 H         1 10Q503      0.0000 
     47 H          27.5112   34.8997   58.3737 H         1 10Q503      0.0000 
     48 H          13.3075   33.4106   53.7878 H         1 10Q503      0.0000 
     49 H          28.5279   36.2669   56.6693 H         1 10Q503      0.0000 
     50 H          12.3946   34.3732   55.8373 H         1 10Q503      0.0000 
     51 H          19.7467   32.2516   60.3598 H         1 10Q503      0.0000 
     52 H          20.2708   33.5530   61.1458 H         1 10Q503      0.0000 
     53 H          18.8509   33.5868   60.3914 H         1 10Q503      0.0000 
@<TRIPOS>BOND
     1    2    1 1    
     2    6    1 1    
     3    7    1 1    
     4    9    1 1    
     5    5    2 1    
     6   10    2 1    
     7   34    2 1    
     8    4    3 ar   
     9    5    3 am   
    10   24    3 1    
    11    6    4 ar   
    12   17    4 ar   
    13   21    5 2    
    14   35    6 1    
    15   11    7 2    
    16   13    7 1    
    17    9    8 1    
    18   10    8 1    
    19   15    8 1    
    20   36    9 1    
    21   37    9 1    
    22   38   10 1    
    23   39   10 1    
    24   12   11 1    
    25   40   11 1    
    26   14   12 2    
    27   18   12 1    
    28   14   13 1    
    29   41   14 1    
    30   19   15 ar   
    31   26   15 ar   
    32   20   16 3    
    33   42   17 1    
    34   43   17 1    
    35   23   18 ar   
    36   27   18 ar   
    37   22   19 ar   
    38   32   19 1    
    39   25   20 1    
    40   30   22 ar   
    41   44   22 1    
    42   25   23 ar   
    43   45   23 1    
    44   51   24 1    
    45   52   24 1    
    46   53   24 1    
    47   31   25 ar   
    48   28   26 ar   
    49   29   27 ar   
    50   46   27 1    
    51   30   28 ar   
    52   47   28 1    
    53   31   29 ar   
    54   48   29 1    
    55   49   30 1    
    56   50   31 1    
    57   33   32 3    
@<TRIPOS>SUBSTRUCTURE
     1 10Q503      1 GROUP   
@<TRIPOS>SET

