#    Name: 3c3x_NAP_1_INTS_M
#    Modification time : Mon Mar 24 20:27:56 2014

@<TRIPOS>MOLECULE
3c3x_NAP_1_INTS_M
   92     0    12     0     0
SMALL
NO_CHARGES


@<TRIPOS>ATOM
      1 N          44.0335   32.5875   54.0380 N.am      2 SEC2        0.0000 
      2 N          45.2560   32.6900   53.6230 N.am     10 SEL2        0.0000 
      3 N          42.8110   32.4850   54.4530 N.am      6 SEP2        0.0000 
      4 CA         47.6915   28.3265   54.1360 C.3       4 GLC5        0.0000 
      5 CA         46.9890   30.3290   54.8460 C.3      12 GLL5        0.0000 
      6 CA         48.3940   26.3240   53.4260 C.3       8 GLP5        0.0000 
      7 CA         46.1430   31.6785   56.4820 C.3       4 GLC5        0.0000 
      8 CA         48.1340   31.7500   56.7180 C.3      12 GLL5        0.0000 
      9 CA         44.1520   31.6070   56.2460 C.3       8 GLP5        0.0000 
     10 O          46.6275   32.2610   58.6970 O.2       1 ALC1        0.0000 
     11 O          46.9640   32.2550   57.3360 O.2       9 ALL1        0.0000 
     12 O          46.2910   32.2670   60.0580 O.2       5 ALP1        0.0000 
     13 CA         49.9550   28.2695   56.5725 C.3       4 GLC5        0.0000 
     14 CA         50.0860   30.3850   57.0650 C.3      12 GLL5        0.0000 
     15 CA         49.8240   26.1540   56.0800 C.3       8 GLP5        0.0000 
     16 CA         54.2340   30.0390   58.7025 C.3       4 GLC5        0.0000 
     17 CA         54.1800   28.7110   57.4340 C.3      12 GLL5        0.0000 
     18 CA         54.2880   31.3670   59.9710 C.3       8 GLP5        0.0000 
     19 CA         54.3930   26.6040   57.3190 C.3       4 GLC5        0.0000 
     20 CA         54.6060   24.4970   57.2040 C.3       8 GLP5        0.0000 
     21 CA         54.2280   28.3765   55.4530 C.3       4 GLC5        0.0000 
     22 CA         54.2760   28.0420   53.4720 C.3       8 GLP5        0.0000 
     23 N          42.1600   30.5890   52.6960 N.am      2 SEC2        0.0000 
     24 N          43.4900   30.5070   52.0460 N.am     10 SEL2        0.0000 
     25 N          40.8300   30.6710   53.3460 N.am      6 SEP2        0.0000 
     26 N          43.6360   29.8130   53.2350 N.am      2 SEC2        0.0000 
     27 N          43.7820   29.1190   54.4240 N.am      6 SEP2        0.0000 
     28 CA         47.0525   28.4710   50.6955 C.3       4 GLC5        0.0000 
     29 CA         44.8620   28.1520   50.7440 C.3      12 GLL5        0.0000 
     30 CA         49.2430   28.7900   50.6470 C.3       8 GLP5        0.0000 
     31 CA         47.4660   27.9145   49.6260 C.3       4 GLC5        0.0000 
     32 CA         45.6890   27.0390   48.6050 C.3      12 GLL5        0.0000 
     33 CA         47.4305   25.9235   48.3315 C.3       4 GLC5        0.0000 
     34 CA         49.1720   24.8080   48.0580 C.3       8 GLP5        0.0000 
     35 N          46.6955   25.4470   47.3105 N.am      2 SEC2        0.0000 
     36 N          45.9020   25.6980   48.2250 N.am     10 SEL2        0.0000 
     37 N          47.4890   25.1960   46.3960 N.am      6 SEP2        0.0000 
     38 O          46.0695   25.0030   49.4270 O.2       1 ALC1        0.0000 
     39 O          45.9020   25.6980   48.2250 O.2       9 ALL1        0.0000 
     40 O          46.2370   24.3080   50.6290 O.2       5 ALP1        0.0000 
     41 O          46.6165   26.3870   46.3310 O.2       1 ALC1        0.0000 
     42 O          45.7440   27.5780   46.2660 O.2       9 ALL1        0.0000 
     43 O          47.4890   25.1960   46.3960 O.2       5 ALP1        0.0000 
     44 CA         41.5865   28.0400   48.1200 C.3       4 GLC5        0.0000 
     45 CA         43.6810   27.8110   47.5900 C.3      12 GLL5        0.0000 
     46 CA         39.4920   28.2690   48.6500 C.3       8 GLP5        0.0000 
     47 N          37.8595   30.1395   44.3370 N.am      2 SEC2        0.0000 
     48 N          39.2900   30.1200   44.0640 N.am     10 SEL2        0.0000 
     49 N          36.4290   30.1590   44.6100 N.am      6 SEP2        0.0000 
     50 O          40.1080   26.7215   45.2235 O.2       1 ALC1        0.0000 
     51 O          39.7340   27.9130   44.4040 O.2       9 ALL1        0.0000 
     52 O          40.4820   25.5300   46.0430 O.2       5 ALP1        0.0000 
     53 O          38.5590   27.3725   44.0575 O.2       1 ALC1        0.0000 
     54 O          37.3840   26.8320   43.7110 O.2       5 ALP1        0.0000 
     55 NZ         50.8410   33.4855   59.4590 N.4       3 LYC4        0.0000 
     56 NZ         49.7090   33.1360   60.3870 N.4      11 LYL4        0.0000 
     57 NZ         53.1140   33.2320   58.8520 N.4       7 LYP4        0.0000 
     58 NZ         48.7800   33.9090   59.3805 N.4       3 LYC4        0.0000 
     59 NZ         47.8510   34.6820   58.3740 N.4       7 LYP4        0.0000 
     60 N          50.8410   33.4855   59.4590 N.am      2 SEC2        0.0000 
     61 N          49.7090   33.1360   60.3870 N.am     10 SEL2        0.0000 
     62 N          51.9730   33.8350   58.5310 N.am      6 SEP2        0.0000 
     63 N          48.7800   33.9090   59.3805 N.am      2 SEC2        0.0000 
     64 N          47.8510   34.6820   58.3740 N.am      6 SEP2        0.0000 
     65 N          47.3435   31.7100   60.7150 N.am      2 SEC2        0.0000 
     66 N          48.3960   31.1530   61.3720 N.am     10 SEL2        0.0000 
     67 N          46.2910   32.2670   60.0580 N.am      6 SEP2        0.0000 
     68 N          48.6965   31.1355   62.6270 N.am      2 SEC2        0.0000 
     69 N          48.9970   31.1180   63.8820 N.am      6 SEP2        0.0000 
     70 NZ         51.9320   31.4880   60.0830 N.4       3 LYC4        0.0000 
     71 NZ         50.7680   30.8660   60.6000 N.4      11 LYL4        0.0000 
     72 N          51.2530   30.5010   61.9770 N.am      2 SEC2        0.0000 
     73 N          50.7680   30.8660   60.6000 N.am     10 SEL2        0.0000 
     74 N          51.7380   30.1360   63.3540 N.am      6 SEP2        0.0000 
     75 N          51.9320   31.4880   60.0830 N.am      2 SEC2        0.0000 
     76 N          53.0960   32.1100   59.5660 N.am      6 SEP2        0.0000 
     77 CA         47.0640   28.8377   56.5523 C.3       4 GLC5        0.0000 
     78 CA         47.8650   30.3940   56.0650 C.3      12 GLL5        0.0000 
     79 CA         46.7010   27.3140   57.6490 C.3       8 GLP5        0.0000 
     80 CA         45.7895   30.9842   55.8508 C.3       4 GLC5        0.0000 
     81 CA         53.8491   30.9289   58.2071 C.3       4 GLC5        0.0000 
     82 CA         53.5380   31.0000   56.1000 C.3      12 GLL5        0.0000 
     83 CA         53.8431   29.2664   54.9576 C.3       4 GLC5        0.0000 
     84 CA         52.6060   30.1890   56.7660 C.3      12 GLL5        0.0000 
     85 CA         42.9573   27.7103   51.2545 C.3       4 GLC5        0.0000 
     86 CA         41.2080   27.7570   52.3150 C.3       8 GLP5        0.0000 
     87 CA         39.1900   30.8038   46.1795 C.3       4 GLC5        0.0000 
     88 CA         41.1240   29.6060   45.5220 C.3      12 GLL5        0.0000 
     89 CA         37.1290   31.3110   46.6770 C.3       8 GLP5        0.0000 
     90 CA         44.1268   32.3443   46.7240 C.3       4 GLC5        0.0000 
     91 CA         42.4270   31.3230   46.7380 C.3      12 GLL5        0.0000 
     92 CA         45.4370   33.8740   46.4210 C.3       8 GLP5        0.0000 
@<TRIPOS>BOND
@<TRIPOS>SUBSTRUCTURE
     1 ALC1       10 GROUP        1 X    ALC  0     ROOT ALC X 1
     2 SEC2        1 GROUP        1 X    SEC  0     **** SEC X 2
     3 LYC4       55 GROUP        1 X    LYC  0     **** LYC X 4
     4 GLC5        4 GROUP        1 X    GLC  0     **** GLC X 6
     5 ALP1       12 GROUP        1 Y    ALP  0     ROOT ALP Y 8
     6 SEP2        3 GROUP        1 Y    SEP  0     **** SEP Y 9
     7 LYP4       57 GROUP        1 Y    LYP  0     **** LYP Y 11
     8 GLP5        6 GROUP        1 Y    GLP  0     **** GLP Y 13
     9 ALL1       11 GROUP        1 Z    ALL  0     ROOT ALL Z 15
    10 SEL2        2 GROUP        1 Z    SEL  0     **** SEL Z 16
    11 LYL4       56 GROUP        1 Z    LYL  0     **** LYL Z 18
    12 GLL5        5 GROUP        1 Z    GLL  0     **** GLL Z 20
@<TRIPOS>SET

