#    Name: 3c3x_NAP_1_ligand
#    Modification time : Mon Mar 24 20:27:56 2014

@<TRIPOS>MOLECULE
3c3x_NAP_1_ligand
   73    77     1     0     0
SMALL
NO_CHARGES


@<TRIPOS>ATOM
      1 PA         46.4090   32.0540   52.9520 P.3       1 NAP401      0.0000 
      2 O1A        47.2770   32.8350   52.0400 O.co2     1 NAP401      0.0000 
      3 O2A        45.2560   32.6900   53.6230 O.co2     1 NAP401      0.0000 
      4 O5B        47.4350   31.3740   53.9710 O.3       1 NAP401      0.0000 
      5 C5B        46.9890   30.3290   54.8460 C.3       1 NAP401      0.0000 
      6 C4B        47.8650   30.3940   56.0650 C.3       1 NAP401      0.0000 
      7 O4B        49.3280   30.0210   55.9160 O.3       1 NAP401      0.0000 
      8 C3B        48.1340   31.7500   56.7180 C.3       1 NAP401      0.0000 
      9 O3B        46.9640   32.2550   57.3360 O.3       1 NAP401      0.0000 
     10 C2B        49.3050   31.5270   57.7050 C.3       1 NAP401      0.0000 
     11 O2B        48.8320   31.1680   59.0070 O.3       1 NAP401      0.0000 
     12 C1B        50.0860   30.3850   57.0650 C.3       1 NAP401      0.0000 
     13 N9A        51.4060   30.7990   56.5830 N.pl3     1 NAP401      0.0000 
     14 C8A        51.6770   31.9350   55.8200 C.2       1 NAP401      0.0000 
     15 N7A        52.9470   32.0740   55.5210 N.2       1 NAP401      0.0000 
     16 C5A        53.5380   31.0000   56.1000 C.ar      1 NAP401      0.0000 
     17 C6A        54.8910   30.5850   56.1410 C.ar      1 NAP401      0.0000 
     18 N6A        55.8520   31.2980   55.5350 N.pl3     1 NAP401      0.0000 
     19 N1A        55.1770   29.4240   56.8240 N.ar      1 NAP401      0.0000 
     20 C2A        54.1800   28.7110   57.4340 C.ar      1 NAP401      0.0000 
     21 N3A        52.8560   29.0240   57.4550 N.ar      1 NAP401      0.0000 
     22 C4A        52.6060   30.1890   56.7660 C.ar      1 NAP401      0.0000 
     23 O3         45.9350   30.7330   52.1190 O.3       1 NAP401      0.0000 
     24 PN         44.6680   30.7630   51.1540 P.3       1 NAP401      0.0000 
     25 O1N        44.6660   32.0220   50.3530 O.co2     1 NAP401      0.0000 
     26 O2N        43.4900   30.5070   52.0460 O.co2     1 NAP401      0.0000 
     27 O5D        44.8050   29.4950   50.2060 O.3       1 NAP401      0.0000 
     28 C5D        44.8620   28.1520   50.7440 C.3       1 NAP401      0.0000 
     29 C4D        44.5510   27.1750   49.6440 C.3       1 NAP401      0.0000 
     30 O4D        43.3370   27.6290   48.9790 O.3       1 NAP401      0.0000 
     31 C3D        45.6890   27.0390   48.6050 C.3       1 NAP401      0.0000 
     32 O3D        45.9020   25.6980   48.2250 O.3       1 NAP401      0.0000 
     33 C2D        45.1790   27.9510   47.5170 C.3       1 NAP401      0.0000 
     34 O2D        45.7440   27.5780   46.2660 O.3       1 NAP401      0.0000 
     35 C1D        43.6810   27.8110   47.5900 C.3       1 NAP401      0.0000 
     36 N1N        42.9640   28.9630   46.9560 N.pl3     1 NAP401      0.0000 
     37 C2N        41.9440   28.6270   46.0790 C.ar      1 NAP401      0.0000 
     38 C3N        41.1240   29.6060   45.5220 C.ar      1 NAP401      0.0000 
     39 C7N        39.9750   29.2300   44.5960 C.2       1 NAP401      0.0000 
     40 O7N        39.2900   30.1200   44.0640 O.2       1 NAP401      0.0000 
     41 N7N        39.7340   27.9130   44.4040 N.am      1 NAP401      0.0000 
     42 C4N        41.3780   30.9870   45.8420 C.ar      1 NAP401      0.0000 
     43 C5N        42.4270   31.3230   46.7380 C.ar      1 NAP401      0.0000 
     44 C6N        43.2060   30.3060   47.3160 C.ar      1 NAP401      0.0000 
     45 P2B        49.4730   31.6400   60.4270 P.3       1 NAP401      0.0000 
     46 O1X        49.7090   33.1360   60.3870 O.co2     1 NAP401      0.0000 
     47 O2X        48.3960   31.1530   61.3720 O.co2     1 NAP401      0.0000 
     48 O3X        50.7680   30.8660   60.6000 O.co2     1 NAP401      0.0000 
     49 H          47.0987   29.3519   54.3888 H         1 NAP401      0.0000 
     50 H          45.9580   30.4750   55.1487 H         1 NAP401      0.0000 
     51 H          47.4901   29.7554   56.8820 H         1 NAP401      0.0000 
     52 H          48.5048   32.4066   55.9340 H         1 NAP401      0.0000 
     53 H          49.9104   32.3964   57.6889 H         1 NAP401      0.0000 
     54 H          50.1505   29.5807   57.7461 H         1 NAP401      0.0000 
     55 H          50.9444   32.5561   55.5493 H         1 NAP401      0.0000 
     56 H          56.7837   30.9459   55.6242 H         1 NAP401      0.0000 
     57 H          55.5508   32.1179   55.0482 H         1 NAP401      0.0000 
     58 H          54.4784   27.8077   57.9509 H         1 NAP401      0.0000 
     59 H          44.1333   28.0204   51.5470 H         1 NAP401      0.0000 
     60 H          45.8556   27.9304   51.1399 H         1 NAP401      0.0000 
     61 H          44.3766   26.1979   50.0808 H         1 NAP401      0.0000 
     62 H          46.5476   27.5157   49.0524 H         1 NAP401      0.0000 
     63 H          45.4369   28.9599   47.8048 H         1 NAP401      0.0000 
     64 H          43.4211   26.8913   47.0377 H         1 NAP401      0.0000 
     65 H          41.7868   27.6334   45.8322 H         1 NAP401      0.0000 
     66 H          40.3431   27.2800   44.8818 H         1 NAP401      0.0000 
     67 H          38.9681   27.6891   43.8013 H         1 NAP401      0.0000 
     68 H          40.8042   31.7109   45.4239 H         1 NAP401      0.0000 
     69 H          42.6097   32.3021   46.9575 H         1 NAP401      0.0000 
     70 H          43.9365   30.5326   47.9864 H         1 NAP401      0.0000 
     71 H          47.1010   32.1004   58.3144 H         1 NAP401      0.0000 
     72 H          46.4525   25.3048   48.9614 H         1 NAP401      0.0000 
     73 H          45.9254   26.5979   46.3460 H         1 NAP401      0.0000 
@<TRIPOS>BOND
     1    2    1 ar   
     2    3    1 ar   
     3    4    1 1    
     4   23    1 1    
     5    5    4 1    
     6    6    5 1    
     7   49    5 1    
     8   50    5 1    
     9    7    6 1    
    10    8    6 1    
    11   51    6 1    
    12   12    7 1    
    13    9    8 1    
    14   10    8 1    
    15   52    8 1    
    16   71    9 1    
    17   11   10 1    
    18   12   10 1    
    19   53   10 1    
    20   45   11 1    
    21   13   12 1    
    22   54   12 1    
    23   14   13 1    
    24   22   13 1    
    25   15   14 2    
    26   55   14 1    
    27   16   15 1    
    28   17   16 ar   
    29   22   16 ar   
    30   18   17 1    
    31   19   17 ar   
    32   56   18 1    
    33   57   18 1    
    34   20   19 ar   
    35   21   20 ar   
    36   58   20 1    
    37   22   21 ar   
    38   24   23 1    
    39   25   24 ar   
    40   26   24 ar   
    41   27   24 1    
    42   28   27 1    
    43   29   28 1    
    44   59   28 1    
    45   60   28 1    
    46   30   29 1    
    47   31   29 1    
    48   61   29 1    
    49   35   30 1    
    50   32   31 1    
    51   33   31 1    
    52   62   31 1    
    53   72   32 1    
    54   34   33 1    
    55   35   33 1    
    56   63   33 1    
    57   73   34 1    
    58   36   35 1    
    59   64   35 1    
    60   37   36 ar   
    61   44   36 ar   
    62   38   37 ar   
    63   65   37 1    
    64   39   38 1    
    65   42   38 ar   
    66   40   39 2    
    67   41   39 am   
    68   66   41 1    
    69   67   41 1    
    70   43   42 ar   
    71   68   42 1    
    72   44   43 ar   
    73   69   43 1    
    74   70   44 1    
    75   46   45 ar   
    76   47   45 ar   
    77   48   45 ar   
@<TRIPOS>SUBSTRUCTURE
     1 NAP401      1 GROUP   
@<TRIPOS>SET

