#    Name: 2nxx_P1A_3_INTS_M
#    Modification time : Tue Mar 25 21:43:10 2014

@<TRIPOS>MOLECULE
2nxx_P1A_3_INTS_M
  102     0     9     0     0
SMALL
NO_CHARGES


@<TRIPOS>ATOM
      1 CA         56.0485   61.9735   94.2925 C.3       3 GLC5        0.0000 
      2 CA         57.4730   63.1240   93.3210 C.3       9 GLL5        0.0000 
      3 CA         54.6240   60.8230   95.2640 C.3       6 GLP5        0.0000 
      4 CA         55.0315   65.3830   90.5710 C.3       3 GLC5        0.0000 
      5 CA         56.9400   64.4420   91.1640 C.3       9 GLL5        0.0000 
      6 CA         53.1230   66.3240   89.9780 C.3       6 GLP5        0.0000 
      7 CA         58.4255   62.4990   88.6080 C.3       3 GLC5        0.0000 
      8 CA         57.6010   63.2800   90.2950 C.3       9 GLL5        0.0000 
      9 CA         59.2500   61.7180   86.9210 C.3       6 GLP5        0.0000 
     10 CA         59.4035   64.5630   90.3075 C.3       3 GLC5        0.0000 
     11 CA         61.2060   65.8460   90.3200 C.3       6 GLP5        0.0000 
     12 CA         58.7850   60.9510   95.2680 C.3       3 GLC5        0.0000 
     13 CA         57.9420   60.6450   93.2860 C.3       9 GLL5        0.0000 
     14 CA         59.6280   61.2570   97.2500 C.3       6 GLP5        0.0000 
     15 CA         56.2830   60.7340   94.2750 C.3       3 GLC5        0.0000 
     16 CA         58.1340   58.8525   94.1145 C.3       3 GLC5        0.0000 
     17 CA         58.3260   57.0600   94.9430 C.3       6 GLP5        0.0000 
     18 CA         59.7135   63.9390   94.7660 C.3       3 GLC5        0.0000 
     19 CA         60.5030   62.3720   93.6030 C.3       9 GLL5        0.0000 
     20 CA         58.9240   65.5060   95.9290 C.3       6 GLP5        0.0000 
     21 CA         60.0655   61.8145   95.4265 C.3       3 GLC5        0.0000 
     22 CA         61.3505   59.2410   95.6705 C.3       3 GLC5        0.0000 
     23 CA         61.5400   59.2050   93.7200 C.3       9 GLL5        0.0000 
     24 CA         61.1610   59.2770   97.6210 C.3       6 GLP5        0.0000 
     25 CA         59.9330   58.1325   94.3315 C.3       3 GLC5        0.0000 
     26 CA         60.6705   57.7215   92.5940 C.3       3 GLC5        0.0000 
     27 CA         59.8010   56.2380   91.4680 C.3       6 GLP5        0.0000 
     28 CA         62.6290   57.2630   93.4525 C.3       3 GLC5        0.0000 
     29 CA         63.7180   55.3210   93.1850 C.3       6 GLP5        0.0000 
     30 O          63.5680   61.8825   90.0860 O.2       1 ALC1        0.0000 
     31 O          62.5360   61.8640   90.9460 O.2       7 ALL1        0.0000 
     32 O          64.6000   61.9010   89.2260 O.2       4 ALP1        0.0000 
     33 CA         64.3830   57.3180   92.1555 C.3       3 GLC5        0.0000 
     34 CA         63.7230   59.1480   91.4740 C.3       9 GLL5        0.0000 
     35 CA         65.0430   55.4880   92.8370 C.3       6 GLP5        0.0000 
     36 O          63.7115   57.4415   93.8580 O.2       1 ALC1        0.0000 
     37 O          64.5100   58.4560   94.3710 O.2       7 ALL1        0.0000 
     38 O          62.9130   56.4270   93.3450 O.2       4 ALP1        0.0000 
     39 CA         65.5210   62.6990   94.4425 C.3       3 GLC5        0.0000 
     40 CA         64.9440   60.7780   94.9610 C.3       9 GLL5        0.0000 
     41 CA         66.0980   64.6200   93.9240 C.3       6 GLP5        0.0000 
     42 CA         65.5540   61.4570   96.9370 C.3       3 GLC5        0.0000 
     43 CA         66.1640   62.1360   98.9130 C.3       6 GLP5        0.0000 
     44 CA         63.8850   59.7225   96.3275 C.3       3 GLC5        0.0000 
     45 CA         62.8260   58.6670   97.6940 C.3       6 GLP5        0.0000 
     46 CA         59.3780   61.0520   88.6485 C.3       3 GLC5        0.0000 
     47 CA         59.5060   60.3860   90.3760 C.3       9 GLL5        0.0000 
     48 CA         59.3710   58.5605   89.5895 C.3       3 GLC5        0.0000 
     49 CA         59.2360   56.7350   88.8030 C.3       6 GLP5        0.0000 
     50 O          55.0780   65.4870   91.7475 O.2       1 ALC1        0.0000 
     51 O          55.5300   64.1670   91.2700 O.2       7 ALL1        0.0000 
     52 O          54.6260   66.8070   92.2250 O.2       4 ALP1        0.0000 
     53 O          55.8000   66.1590   92.7995 O.2       1 ALC1        0.0000 
     54 O          56.9740   65.5110   93.3740 O.2       7 ALL1        0.0000 
     55 CA         67.3295   62.4340   93.4630 C.3       3 GLC5        0.0000 
     56 CA         66.9510   60.7780   92.3870 C.3       9 GLL5        0.0000 
     57 CA         67.7080   64.0900   94.5390 C.3       6 GLP5        0.0000 
     58 CA         67.1415   62.5860   89.9810 C.3       3 GLC5        0.0000 
     59 CA         68.7010   61.1040   90.4670 C.3       9 GLL5        0.0000 
     60 CA         65.5820   64.0680   89.4950 C.3       6 GLP5        0.0000 
     61 CA         66.8880   59.1375   88.8425 C.3       3 GLC5        0.0000 
     62 CA         68.2110   60.6100   89.0670 C.3       9 GLL5        0.0000 
     63 CA         65.5650   57.6650   88.6180 C.3       6 GLP5        0.0000 
     64 CA         68.5000   60.1190   87.2595 C.3       3 GLC5        0.0000 
     65 CA         68.7890   59.6280   85.4520 C.3       6 GLP5        0.0000 
     66 CA         66.5385   61.8720   88.8045 C.3       3 GLC5        0.0000 
     67 CA         64.8660   63.1340   88.5420 C.3       6 GLP5        0.0000 
     68 CA         68.3285   62.5245   87.9200 C.3       3 GLC5        0.0000 
     69 CA         68.4460   64.4390   86.7730 C.3       6 GLP5        0.0000 
     70 CA         72.0570   61.8495   90.7820 C.3       3 GLC5        0.0000 
     71 CA         70.1910   61.0420   90.5160 C.3       9 GLL5        0.0000 
     72 CA         73.9230   62.6570   91.0480 C.3       6 GLP5        0.0000 
     73 CA         71.0670   61.5535   88.5845 C.3       3 GLC5        0.0000 
     74 CA         71.9430   62.0650   86.6530 C.3       6 GLP5        0.0000 
     75 N          56.1225   59.5795   89.0880 N.am      2 SEC2        0.0000 
     76 N          57.4150   60.1540   89.3760 N.am      8 SEL2        0.0000 
     77 N          54.8300   59.0050   88.8000 N.am      5 SEP2        0.0000 
     78 CA         56.3530   62.1330   89.2420 C.3       3 GLC5        0.0000 
     79 CA         57.4330   61.8860   91.0590 C.3       9 GLL5        0.0000 
     80 CA         55.1890   61.6830   87.8070 C.3       6 GLP5        0.0000 
     81 CA         58.2295   64.6530   94.4450 C.3       3 GLC5        0.0000 
     82 CA         57.5970   64.4760   92.6010 C.3       9 GLL5        0.0000 
     83 CA         59.1882   65.2320   91.8522 C.3       3 GLC5        0.0000 
     84 CA         61.1080   66.0050   91.8220 C.3       6 GLP5        0.0000 
     85 CA         56.0547   64.6140   89.2692 C.3       3 GLC5        0.0000 
     86 CA         54.8390   65.3670   87.8090 C.3       6 GLP5        0.0000 
     87 CA         60.6222   64.1573   92.3642 C.3       3 GLC5        0.0000 
     88 CA         59.7700   62.2470   92.2100 C.3       9 GLL5        0.0000 
     89 CA         61.5858   60.9338   95.3680 C.3       3 GLC5        0.0000 
     90 CA         61.9230   61.7770   93.8070 C.3       9 GLL5        0.0000 
     91 CA         61.0680   60.7590   97.3080 C.3       6 GLP5        0.0000 
     92 CA         64.3273   58.5032   89.8550 C.3       3 GLC5        0.0000 
     93 CA         61.9648   57.8468   90.8240 C.3       3 GLC5        0.0000 
     94 CA         60.8400   56.3520   90.5560 C.3       6 GLP5        0.0000 
     95 CA         65.3090   57.5615   93.1440 C.3       3 GLC5        0.0000 
     96 CA         64.8690   59.7420   93.7790 C.3       9 GLL5        0.0000 
     97 CA         69.9185   62.9550   90.6448 C.3       3 GLC5        0.0000 
     98 CA         70.3910   64.8370   90.7980 C.3       6 GLP5        0.0000 
     99 CA         69.8083   59.1397   89.7842 C.3       3 GLC5        0.0000 
    100 CA         70.3680   57.4360   89.2990 C.3       6 GLP5        0.0000 
    101 CA         70.2720   59.7060   91.9336 C.3       3 GLC5        0.0000 
    102 CA         71.2480   58.5510   93.1200 C.3       6 GLP5        0.0000 
@<TRIPOS>BOND
@<TRIPOS>SUBSTRUCTURE
     1 ALC1       30 GROUP        1 X    ALC  0     ROOT ALC X 1
     2 SEC2       75 GROUP        1 X    SEC  0     **** SEC X 2
     3 GLC5        1 GROUP        1 X    GLC  0     **** GLC X 6
     4 ALP1       32 GROUP        1 Y    ALP  0     ROOT ALP Y 8
     5 SEP2       77 GROUP        1 Y    SEP  0     **** SEP Y 9
     6 GLP5        3 GROUP        1 Y    GLP  0     **** GLP Y 13
     7 ALL1       31 GROUP        1 Z    ALL  0     ROOT ALL Z 15
     8 SEL2       76 GROUP        1 Z    SEL  0     **** SEL Z 16
     9 GLL5        2 GROUP        1 Z    GLL  0     **** GLL Z 20
@<TRIPOS>SET

