#    Name: 2nxx_P1A_3_ligand
#    Modification time : Tue Mar 25 21:43:10 2014

@<TRIPOS>MOLECULE
2nxx_P1A_3_ligand
   77    80     1     0     0
SMALL
NO_CHARGES


@<TRIPOS>ATOM
      1 C5         57.4330   61.8860   91.0590 C.3       1 P1A5        0.0000 
      2 C10        58.1470   61.9790   92.4930 C.3       1 P1A5        0.0000 
      3 C1         57.4730   63.1240   93.3210 C.3       1 P1A5        0.0000 
      4 C2         57.5970   64.4760   92.6010 C.3       1 P1A5        0.0000 
      5 C3         56.9400   64.4420   91.1640 C.3       1 P1A5        0.0000 
      6 C4         57.6010   63.2800   90.2950 C.3       1 P1A5        0.0000 
      7 C9         59.7700   62.2470   92.2100 C.3       1 P1A5        0.0000 
      8 C19        57.9420   60.6450   93.2860 C.3       1 P1A5        0.0000 
      9 C11        60.5030   62.3720   93.6030 C.3       1 P1A5        0.0000 
     10 C8         60.3270   61.0450   91.3010 C.2       1 P1A5        0.0000 
     11 C12        61.9230   61.7770   93.8070 C.3       1 P1A5        0.0000 
     12 C14        61.8090   60.6890   91.5100 C.3       1 P1A5        0.0000 
     13 C13        62.2840   60.4400   93.0490 C.3       1 P1A5        0.0000 
     14 C18        61.5400   59.2050   93.7200 C.3       1 P1A5        0.0000 
     15 C17        63.7910   60.1520   92.6860 C.3       1 P1A5        0.0000 
     16 O14        62.5360   61.8640   90.9460 O.3       1 P1A5        0.0000 
     17 C15        62.4560   59.5350   90.7100 C.3       1 P1A5        0.0000 
     18 C20        64.8690   59.7420   93.7790 C.3       1 P1A5        0.0000 
     19 C16        63.7230   59.1480   91.4740 C.3       1 P1A5        0.0000 
     20 C22        66.2810   59.5280   93.1230 C.3       1 P1A5        0.0000 
     21 O20        64.5100   58.4560   94.3710 O.3       1 P1A5        0.0000 
     22 C21        64.9440   60.7780   94.9610 C.3       1 P1A5        0.0000 
     23 C6         58.0820   60.7550   90.1970 C.2       1 P1A5        0.0000 
     24 C7         59.5060   60.3860   90.3760 C.2       1 P1A5        0.0000 
     25 O3         55.5300   64.1670   91.2700 O.3       1 P1A5        0.0000 
     26 O2         56.9740   65.5110   93.3740 O.3       1 P1A5        0.0000 
     27 O22        67.1730   59.1440   94.1900 O.3       1 P1A5        0.0000 
     28 C23        66.9510   60.7780   92.3870 C.3       1 P1A5        0.0000 
     29 C24        68.1010   60.2560   91.4900 C.3       1 P1A5        0.0000 
     30 C25        68.7010   61.1040   90.4670 C.3       1 P1A5        0.0000 
     31 C26        68.2110   60.6100   89.0670 C.3       1 P1A5        0.0000 
     32 C27        70.1910   61.0420   90.5160 C.3       1 P1A5        0.0000 
     33 O6         57.4150   60.1540   89.3760 O.2       1 P1A5        0.0000 
     34 H          56.4086   61.6969   91.1971 H         1 P1A5        0.0000 
     35 H          57.9600   63.1808   94.2890 H         1 P1A5        0.0000 
     36 H          56.4248   62.8786   93.4572 H         1 P1A5        0.0000 
     37 H          58.6518   64.6887   92.4550 H         1 P1A5        0.0000 
     38 H          57.1424   65.3608   90.6771 H         1 P1A5        0.0000 
     39 H          57.0955   63.2198   89.3566 H         1 P1A5        0.0000 
     40 H          58.6424   63.4844   90.1795 H         1 P1A5        0.0000 
     41 H          59.8307   63.1536   91.6760 H         1 P1A5        0.0000 
     42 H          59.8202   61.9300   94.3810 H         1 P1A5        0.0000 
     43 H          60.5378   63.4660   93.8655 H         1 P1A5        0.0000 
     44 H          62.0826   61.6020   94.8946 H         1 P1A5        0.0000 
     45 H          62.6754   62.5439   93.5157 H         1 P1A5        0.0000 
     46 H          64.1632   61.1116   92.1945 H         1 P1A5        0.0000 
     47 H          62.7120   59.8838   89.7346 H         1 P1A5        0.0000 
     48 H          61.7829   58.7076   90.6797 H         1 P1A5        0.0000 
     49 H          63.6383   58.1632   91.8560 H         1 P1A5        0.0000 
     50 H          64.5796   59.2930   90.8673 H         1 P1A5        0.0000 
     51 H          66.2088   58.7234   92.4078 H         1 P1A5        0.0000 
     52 H          59.8673   59.6254   89.7927 H         1 P1A5        0.0000 
     53 H          67.3388   61.4351   93.1349 H         1 P1A5        0.0000 
     54 H          66.2035   61.2500   91.7871 H         1 P1A5        0.0000 
     55 H          67.7245   59.2885   91.0171 H         1 P1A5        0.0000 
     56 H          68.9102   59.8730   92.1971 H         1 P1A5        0.0000 
     57 H          68.3724   62.1216   90.5727 H         1 P1A5        0.0000 
     58 H          58.3266   59.8607   92.7992 H         1 P1A5        0.0000 
     59 H          58.3801   60.6759   94.1844 H         1 P1A5        0.0000 
     60 H          56.9734   60.4489   93.4389 H         1 P1A5        0.0000 
     61 H          61.7524   58.3458   93.2545 H         1 P1A5        0.0000 
     62 H          61.8002   59.0910   94.6788 H         1 P1A5        0.0000 
     63 H          60.5461   59.3129   93.6969 H         1 P1A5        0.0000 
     64 H          65.6270   60.5151   95.6425 H         1 P1A5        0.0000 
     65 H          65.1886   61.6924   94.6384 H         1 P1A5        0.0000 
     66 H          64.0695   60.8600   95.4390 H         1 P1A5        0.0000 
     67 H          68.5924   61.1606   88.3245 H         1 P1A5        0.0000 
     68 H          68.4759   59.6613   88.8943 H         1 P1A5        0.0000 
     69 H          67.2155   60.6560   88.9845 H         1 P1A5        0.0000 
     70 H          70.6101   61.6246   89.8196 H         1 P1A5        0.0000 
     71 H          70.5463   61.3418   91.4014 H         1 P1A5        0.0000 
     72 H          70.5293   60.1134   90.3636 H         1 P1A5        0.0000 
     73 H          63.2318   61.4729   90.3436 H         1 P1A5        0.0000 
     74 H          63.8513   58.0535   93.7354 H         1 P1A5        0.0000 
     75 H          55.0826   65.0494   91.1241 H         1 P1A5        0.0000 
     76 H          56.0912   65.6685   92.9315 H         1 P1A5        0.0000 
     77 H          66.5760   58.8042   94.9166 H         1 P1A5        0.0000 
@<TRIPOS>BOND
     1    2    1 1    
     2    6    1 1    
     3   23    1 1    
     4   34    1 1    
     5    3    2 1    
     6    7    2 1    
     7    8    2 1    
     8    4    3 1    
     9   35    3 1    
    10   36    3 1    
    11    5    4 1    
    12   26    4 1    
    13   37    4 1    
    14    6    5 1    
    15   25    5 1    
    16   38    5 1    
    17   39    6 1    
    18   40    6 1    
    19    9    7 1    
    20   10    7 1    
    21   41    7 1    
    22   58    8 1    
    23   59    8 1    
    24   60    8 1    
    25   11    9 1    
    26   42    9 1    
    27   43    9 1    
    28   12   10 1    
    29   24   10 2    
    30   13   11 1    
    31   44   11 1    
    32   45   11 1    
    33   13   12 1    
    34   16   12 1    
    35   17   12 1    
    36   14   13 1    
    37   15   13 1    
    38   61   14 1    
    39   62   14 1    
    40   63   14 1    
    41   18   15 1    
    42   19   15 1    
    43   46   15 1    
    44   73   16 1    
    45   19   17 1    
    46   47   17 1    
    47   48   17 1    
    48   20   18 1    
    49   21   18 1    
    50   22   18 1    
    51   49   19 1    
    52   50   19 1    
    53   27   20 1    
    54   28   20 1    
    55   51   20 1    
    56   74   21 1    
    57   64   22 1    
    58   65   22 1    
    59   66   22 1    
    60   24   23 1    
    61   33   23 2    
    62   52   24 1    
    63   75   25 1    
    64   76   26 1    
    65   77   27 1    
    66   29   28 1    
    67   53   28 1    
    68   54   28 1    
    69   30   29 1    
    70   55   29 1    
    71   56   29 1    
    72   31   30 1    
    73   32   30 1    
    74   57   30 1    
    75   67   31 1    
    76   68   31 1    
    77   69   31 1    
    78   70   32 1    
    79   71   32 1    
    80   72   32 1    
@<TRIPOS>SUBSTRUCTURE
     1 P1A5        1 GROUP   
@<TRIPOS>SET

