#    Name: 1efy_BZC_1_INTS_M
#    Modification time : Mon Mar 24 23:46:10 2014

@<TRIPOS>MOLECULE
1efy_BZC_1_INTS_M
   34     0     9     0     0
SMALL
NO_CHARGES


@<TRIPOS>ATOM
      1 O          37.5125   21.1750   22.8935 O.2       1 ALC1        0.0000 
      2 O          38.6030   21.9240   22.2360 O.2       7 ALL1        0.0000 
      3 O          36.4220   20.4260   23.5510 O.2       4 ALP1        0.0000 
      4 O          43.4940   24.2770   18.8560 O.2       1 ALC1        0.0000 
      5 O          42.4080   23.9600   19.9530 O.2       7 ALL1        0.0000 
      6 O          44.5800   24.5940   17.7590 O.2       4 ALP1        0.0000 
      7 N          45.2080   24.2500   20.6420 N.am      2 SEC2        0.0000 
      8 N          44.0640   23.8070   21.4100 N.am      8 SEL2        0.0000 
      9 N          46.3520   24.6930   19.8740 N.am      5 SEP2        0.0000 
     10 CA         33.1490   23.0375   19.8525 C.3       3 GLC5        0.0000 
     11 CA         35.2060   22.6510   19.2600 C.3       9 GLL5        0.0000 
     12 CA         31.0920   23.4240   20.4450 C.3       6 GLP5        0.0000 
     13 CA         36.7200   22.2345   14.8885 C.3       3 GLC5        0.0000 
     14 CA         38.5440   22.3580   15.7040 C.3       9 GLL5        0.0000 
     15 CA         34.8960   22.1110   14.0730 C.3       6 GLP5        0.0000 
     16 CA         39.9390   21.3160   16.8650 C.3       3 GLC5        0.0000 
     17 CA         41.3340   20.2740   18.0260 C.3       6 GLP5        0.0000 
     18 CA         39.7105   23.8142   22.9117 C.3       3 GLC5        0.0000 
     19 CA         40.6790   22.6620   21.8370 C.3       9 GLL5        0.0000 
     20 CA         39.1660   25.2690   23.5040 C.3       6 GLP5        0.0000 
     21 CA         40.1000   23.5677   23.8480 C.3       3 GLC5        0.0000 
     22 CA         40.3600   21.7320   24.0480 C.3       9 GLL5        0.0000 
     23 CA         41.2060   20.0558   24.9765 C.3       3 GLC5        0.0000 
     24 CA         41.3780   18.2450   25.7610 C.3       6 GLP5        0.0000 
     25 CA         40.1200   21.2903   25.6630 C.3       3 GLC5        0.0000 
     26 CA         39.2060   20.7140   27.1340 C.3       6 GLP5        0.0000 
     27 CA         40.7285   24.0180   23.1310 C.3       3 GLC5        0.0000 
     28 CA         42.5490   22.5980   23.3900 C.3       9 GLL5        0.0000 
     29 CA         42.6038   24.0768   24.8065 C.3       3 GLC5        0.0000 
     30 CA         43.0790   25.8540   25.7500 C.3       6 GLP5        0.0000 
     31 CA         43.5798   22.0132   25.1275 C.3       3 GLC5        0.0000 
     32 CA         45.0310   21.7270   26.3920 C.3       6 GLP5        0.0000 
     33 CA         35.5815   22.4220   15.9030 C.3       3 GLC5        0.0000 
     34 CA         36.9460   22.7190   17.5480 C.3       9 GLL5        0.0000 
@<TRIPOS>BOND
@<TRIPOS>SUBSTRUCTURE
     1 ALC1        1 GROUP        1 X    ALC  0     ROOT ALC X 1
     2 SEC2        7 GROUP        1 X    SEC  0     **** SEC X 2
     3 GLC5       10 GROUP        1 X    GLC  0     **** GLC X 6
     4 ALP1        3 GROUP        1 Y    ALP  0     ROOT ALP Y 8
     5 SEP2        9 GROUP        1 Y    SEP  0     **** SEP Y 9
     6 GLP5       12 GROUP        1 Y    GLP  0     **** GLP Y 13
     7 ALL1        2 GROUP        1 Z    ALL  0     ROOT ALL Z 15
     8 SEL2        8 GROUP        1 Z    SEL  0     **** SEL Z 16
     9 GLL5       11 GROUP        1 Z    GLL  0     **** GLL Z 20
@<TRIPOS>SET

