#    Name: 1efy_BZC_1_ligand
#    Modification time : Mon Mar 24 23:46:10 2014

@<TRIPOS>MOLECULE
1efy_BZC_1_ligand
   33    35     1     0     0
SMALL
NO_CHARGES


@<TRIPOS>ATOM
      1 C1         40.6790   22.6620   21.8370 C.ar      1 BZC201      0.0000 
      2 N2         39.9280   22.8690   20.7290 N.2       1 BZC201      0.0000 
      3 C3         38.6530   22.4260   20.9470 C.2       1 BZC201      0.0000 
      4 N4         38.6030   21.9240   22.2360 N.pl3     1 BZC201      0.0000 
      5 C5         39.8310   22.0570   22.8020 C.ar      1 BZC201      0.0000 
      6 C7         40.3600   21.7320   24.0480 C.ar      1 BZC201      0.0000 
      7 C4         42.0330   22.9360   22.1260 C.ar      1 BZC201      0.0000 
      8 C19        37.5710   22.5070   19.8910 C.ar      1 BZC201      0.0000 
      9 C2         42.5490   22.5980   23.3900 C.ar      1 BZC201      0.0000 
     10 C6         41.7080   22.0010   24.3360 C.ar      1 BZC201      0.0000 
     11 C8         42.8860   23.5850   21.1520 C.2       1 BZC201      0.0000 
     12 N1         42.4080   23.9600   19.9530 N.am      1 BZC201      0.0000 
     13 O1         44.0640   23.8070   21.4100 O.2       1 BZC201      0.0000 
     14 C11        37.9370   22.5990   18.5340 C.ar      1 BZC201      0.0000 
     15 C12        36.2060   22.5290   20.2400 C.ar      1 BZC201      0.0000 
     16 C13        36.9460   22.7190   17.5480 C.ar      1 BZC201      0.0000 
     17 O2         37.2660   22.7800   16.1600 O.3       1 BZC201      0.0000 
     18 C15        35.5880   22.7470   17.9180 C.ar      1 BZC201      0.0000 
     19 C17        35.2060   22.6510   19.2600 C.ar      1 BZC201      0.0000 
     20 C18        38.5440   22.3580   15.7040 C.3       1 BZC201      0.0000 
     21 H          37.8234   21.5477   22.6479 H         1 BZC201      0.0000 
     22 H          39.7667   21.2937   24.7631 H         1 BZC201      0.0000 
     23 H          43.5257   22.7872   23.6117 H         1 BZC201      0.0000 
     24 H          42.0846   21.7522   25.2661 H         1 BZC201      0.0000 
     25 H          43.0480   24.4435   19.3558 H         1 BZC201      0.0000 
     26 H          41.4550   23.7221   19.7652 H         1 BZC201      0.0000 
     27 H          38.9249   22.5781   18.2700 H         1 BZC201      0.0000 
     28 H          35.9375   22.4541   21.2328 H         1 BZC201      0.0000 
     29 H          34.8678   22.8397   17.1863 H         1 BZC201      0.0000 
     30 H          34.2257   22.6688   19.5244 H         1 BZC201      0.0000 
     31 H          39.2810   22.8929   16.1172 H         1 BZC201      0.0000 
     32 H          38.7189   21.3985   15.9247 H         1 BZC201      0.0000 
     33 H          38.6341   22.4518   14.7125 H         1 BZC201      0.0000 
@<TRIPOS>BOND
     1    2    1 1    
     2    5    1 ar   
     3    7    1 ar   
     4    3    2 2    
     5    4    3 1    
     6    8    3 1    
     7    5    4 1    
     8   21    4 1    
     9    6    5 ar   
    10   10    6 ar   
    11   22    6 1    
    12    9    7 ar   
    13   11    7 1    
    14   14    8 ar   
    15   15    8 ar   
    16   10    9 ar   
    17   23    9 1    
    18   24   10 1    
    19   12   11 am   
    20   13   11 2    
    21   25   12 1    
    22   26   12 1    
    23   16   14 ar   
    24   27   14 1    
    25   19   15 ar   
    26   28   15 1    
    27   17   16 1    
    28   18   16 ar   
    29   20   17 1    
    30   19   18 ar   
    31   29   18 1    
    32   30   19 1    
    33   31   20 1    
    34   32   20 1    
    35   33   20 1    
@<TRIPOS>SUBSTRUCTURE
     1 BZC201      1 GROUP   
@<TRIPOS>SET

