#    Name: 1t47_NTD_2_INTS_M
#    Modification time : Tue Mar 25 04:20:22 2014

@<TRIPOS>MOLECULE
1t47_NTD_2_INTS_M
   43     0     6     0     0
SMALL
NO_CHARGES


@<TRIPOS>ATOM
      1 CA          6.4775   71.1675   50.5150 C.3       2 GLC5        0.0000 
      2 CA          8.2230   70.4450   49.5760 C.3       6 GLL5        0.0000 
      3 CA          4.7320   71.8900   51.4540 C.3       4 GLP5        0.0000 
      4 CA          8.5275   71.8600   51.2510 C.3       2 GLC5        0.0000 
      5 CA          8.8320   73.2750   52.9260 C.3       4 GLP5        0.0000 
      6 CA         10.1835   69.2805   46.2195 C.3       2 GLC5        0.0000 
      7 CA          8.3590   69.5030   47.2550 C.3       6 GLL5        0.0000 
      8 CA         12.0080   69.0580   45.1840 C.3       4 GLP5        0.0000 
      9 Zn          9.5985   66.4150   47.0655 Zn        1 ZIC7        0.0000 
     10 Zn          9.2620   67.3190   47.1080 Zn        5 ZIL7        0.0000 
     11 Zn          9.9350   65.5110   47.0230 Zn        3 ZIP7        0.0000 
     12 CA          7.3835   67.4045   48.2045 C.3       2 GLC5        0.0000 
     13 CA          9.1460   68.0730   49.2370 C.3       6 GLL5        0.0000 
     14 CA          5.6210   66.7360   47.1720 C.3       4 GLP5        0.0000 
     15 CA         10.7290   65.0645   50.1385 C.3       2 GLC5        0.0000 
     16 CA          9.6670   66.7530   49.8100 C.3       6 GLL5        0.0000 
     17 CA         11.7910   63.3760   50.4670 C.3       4 GLP5        0.0000 
     18 Zn         10.1200   65.6945   48.0045 Zn        1 ZIC7        0.0000 
     19 Zn         10.3050   65.8780   48.9860 Zn        5 ZIL7        0.0000 
     20 CA          7.8290   66.9220   56.1620 C.3       2 GLC5        0.0000 
     21 CA          7.7490   65.2520   55.8190 C.3       6 GLL5        0.0000 
     22 CA          7.9090   68.5920   56.5050 C.3       4 GLP5        0.0000 
     23 CA          8.9635   61.8095   55.0930 C.3       2 GLC5        0.0000 
     24 CA          8.8430   63.4960   55.1860 C.3       6 GLL5        0.0000 
     25 CA          9.0840   60.1230   55.0000 C.3       4 GLP5        0.0000 
     26 CA          7.5105   72.1462   49.0345 C.3       2 GLC5        0.0000 
     27 CA          7.1770   73.9710   49.1450 C.3       4 GLP5        0.0000 
     28 CA          8.3890   70.5927   46.1433 C.3       2 GLC5        0.0000 
     29 CA          7.4650   70.1980   48.2720 C.3       6 GLL5        0.0000 
     30 CA          8.8660   71.3350   44.5230 C.3       4 GLP5        0.0000 
     31 CA          6.7665   68.2933   47.4677 C.3       2 GLC5        0.0000 
     32 CA          6.2797   64.9743   51.7255 C.3       2 GLC5        0.0000 
     33 CA          8.1880   66.0930   51.7370 C.3       6 GLL5        0.0000 
     34 CA          4.4710   64.0960   51.0660 C.3       4 GLP5        0.0000 
     35 CA          9.9023   63.1973   53.8178 C.3       2 GLC5        0.0000 
     36 CA          8.8920   64.8190   55.2770 C.3       6 GLL5        0.0000 
     37 CA         10.9370   62.2370   52.4040 C.3       4 GLP5        0.0000 
     38 CA          9.0555   66.8748   55.5352 C.3       2 GLC5        0.0000 
     39 CA          8.7220   68.7540   55.3940 C.3       4 GLP5        0.0000 
     40 CA          7.1074   63.5854   55.6560 C.3       2 GLC5        0.0000 
     41 CA          5.6330   62.9050   55.9450 C.3       4 GLP5        0.0000 
     42 CA          9.1704   63.7119   57.1532 C.3       2 GLC5        0.0000 
     43 CA          9.1070   62.7050   58.5850 C.3       4 GLP5        0.0000 
@<TRIPOS>BOND
@<TRIPOS>SUBSTRUCTURE
     1 ZIC7        9 GROUP        1 X    ZIC  0     ROOT ZIC X 5
     2 GLC5        1 GROUP        1 X    GLC  0     **** GLC X 6
     3 ZIP7       11 GROUP        1 Y    ZIP  0     ROOT ZIP Y 12
     4 GLP5        3 GROUP        1 Y    GLP  0     **** GLP Y 13
     5 ZIL7       10 GROUP        1 Z    ZIL  0     ROOT ZIL Z 19
     6 GLL5        2 GROUP        1 Z    GLL  0     **** GLL Z 20
@<TRIPOS>SET

