#    Name: 1t47_NTD_2_ligand
#    Modification time : Tue Mar 25 04:20:22 2014

@<TRIPOS>MOLECULE
1t47_NTD_2_ligand
   32    33     1     0     0
SMALL
NO_CHARGES


@<TRIPOS>ATOM
      1 O1          9.1300   69.0420   51.2720 O.2       1 NTD550      0.0000 
      2 C5          8.8550   69.1440   50.0780 C.2       1 NTD550      0.0000 
      3 C2          8.2230   70.4450   49.5760 C.3       1 NTD550      0.0000 
      4 C3          7.4650   70.1980   48.2720 C.3       1 NTD550      0.0000 
      5 C4          8.3590   69.5030   47.2550 C.3       1 NTD550      0.0000 
      6 C1          8.9500   68.2350   47.8680 C.2       1 NTD550      0.0000 
      7 O5          9.2620   67.3190   47.1080 O.2       1 NTD550      0.0000 
      8 C6          9.1460   68.0730   49.2370 C.2       1 NTD550      0.0000 
      9 C7          9.6670   66.7530   49.8100 C.2       1 NTD550      0.0000 
     10 O7         10.3050   65.8780   48.9860 O.3       1 NTD550      0.0000 
     11 C8          9.4650   66.3850   51.2820 C.ar      1 NTD550      0.0000 
     12 C13         8.1880   66.0930   51.7370 C.ar      1 NTD550      0.0000 
     13 C12         7.9890   65.6120   53.0330 C.ar      1 NTD550      0.0000 
     14 C11         9.0750   65.4210   53.8790 C.ar      1 NTD550      0.0000 
     15 C14         8.8920   64.8190   55.2770 C.3       1 NTD550      0.0000 
     16 F2          7.7490   65.2520   55.8190 F         1 NTD550      0.0000 
     17 F3          8.8430   63.4960   55.1860 F         1 NTD550      0.0000 
     18 F1          9.8860   65.1720   56.0760 F         1 NTD550      0.0000 
     19 C10        10.3540   65.7310   53.4180 C.ar      1 NTD550      0.0000 
     20 C9         10.5510   66.2060   52.1350 C.ar      1 NTD550      0.0000 
     21 N          11.7880   66.4930   51.7460 N.pl3     1 NTD550      0.0000 
     22 ON2        12.0480   67.0050   50.4440 O.2       1 NTD550      0.0000 
     23 ON1        12.8720   66.2910   52.6490 O.2       1 NTD550      0.0000 
     24 H           9.0043   71.1797   49.4045 H         1 NTD550      0.0000 
     25 H           7.5343   70.8215   50.3268 H         1 NTD550      0.0000 
     26 H           7.1294   71.1512   47.8675 H         1 NTD550      0.0000 
     27 H           6.5962   69.5748   48.4760 H         1 NTD550      0.0000 
     28 H           9.1643   70.1698   46.9652 H         1 NTD550      0.0000 
     29 H           7.7747   69.2391   46.3797 H         1 NTD550      0.0000 
     30 H           7.3754   66.2307   51.1164 H         1 NTD550      0.0000 
     31 H           7.0375   65.4000   53.3585 H         1 NTD550      0.0000 
     32 H          11.1642   65.6017   54.0499 H         1 NTD550      0.0000 
@<TRIPOS>BOND
     1    2    1 2    
     2    3    2 1    
     3    8    2 1    
     4    4    3 1    
     5   24    3 1    
     6   25    3 1    
     7    5    4 1    
     8   26    4 1    
     9   27    4 1    
    10    6    5 1    
    11   28    5 1    
    12   29    5 1    
    13    7    6 2    
    14    8    6 1    
    15    9    8 2    
    16   10    9 1    
    17   11    9 1    
    18   12   11 ar   
    19   20   11 ar   
    20   13   12 ar   
    21   30   12 1    
    22   14   13 ar   
    23   31   13 1    
    24   15   14 1    
    25   19   14 ar   
    26   16   15 1    
    27   17   15 1    
    28   18   15 1    
    29   20   19 ar   
    30   32   19 1    
    31   21   20 1    
    32   22   21 2    
    33   23   21 2    
@<TRIPOS>SUBSTRUCTURE
     1 NTD550      1 GROUP   
@<TRIPOS>SET

