#    Name: 4fsy_HK7_1_INTS_M
#    Modification time : Mon Mar 24 20:42:33 2014

@<TRIPOS>MOLECULE
4fsy_HK7_1_INTS_M
   57     0     9     0     0
SMALL
NO_CHARGES


@<TRIPOS>ATOM
      1 O          14.3695   -3.9455   15.0065 O.2       1 ALC1        0.0000 
      2 O          14.4770   -5.2640   14.3840 O.2       7 ALL1        0.0000 
      3 O          14.2620   -2.6270   15.6290 O.2       4 ALP1        0.0000 
      4 CA         12.7850  -11.5335   13.5615 C.3       3 GLC5        0.0000 
      5 CA         13.5080   -9.6570   13.3090 C.3       9 GLL5        0.0000 
      6 CA         12.0620  -13.4100   13.8140 C.3       6 GLP5        0.0000 
      7 CA         14.9195  -12.0860   12.1445 C.3       3 GLC5        0.0000 
      8 CA         14.6170   -9.9040   12.4730 C.3       9 GLL5        0.0000 
      9 CA         15.2220  -14.2680   11.8160 C.3       6 GLP5        0.0000 
     10 CA         14.2255   -3.9655    8.3935 C.3       3 GLC5        0.0000 
     11 CA         15.4400   -4.4770    9.9990 C.3       9 GLL5        0.0000 
     12 CA         13.0110   -3.4540    6.7880 C.3       6 GLP5        0.0000 
     13 N          16.7350   -0.6565    8.5660 N.am      2 SEC2        0.0000 
     14 N          16.5450   -2.0090    9.2240 N.am      8 SEL2        0.0000 
     15 N          16.9250    0.6960    7.9080 N.am      5 SEP2        0.0000 
     16 O          19.4710   -5.8890   12.4150 O.2       1 ALC1        0.0000 
     17 O          18.9880   -4.9690   11.0710 O.2       7 ALL1        0.0000 
     18 O          19.9540   -6.8090   13.7590 O.2       4 ALP1        0.0000 
     19 O          19.1610   -1.5065    8.8565 O.2       1 ALC1        0.0000 
     20 O          18.6650   -2.7540    9.1140 O.2       7 ALL1        0.0000 
     21 O          19.6570   -0.2590    8.5990 O.2       4 ALP1        0.0000 
     22 CA         12.8893   -8.4600   11.6013 C.3       3 GLC5        0.0000 
     23 CA         13.8680   -7.2560   13.0690 C.3       9 GLL5        0.0000 
     24 CA         12.2770   -9.1220    9.8630 C.3       6 GLP5        0.0000 
     25 CA         11.5068   -7.6755   12.6992 C.3       3 GLC5        0.0000 
     26 CA         13.1350   -8.3400   13.6100 C.3       9 GLL5        0.0000 
     27 CA          9.5120   -7.5530   12.0590 C.3       6 GLP5        0.0000 
     28 CA         13.1697   -9.4512   11.3770 C.3       3 GLC5        0.0000 
     29 CA         16.2300  -10.4810   11.2297 C.3       3 GLC5        0.0000 
     30 CA         17.4860  -11.5920   10.2740 C.3       6 GLP5        0.0000 
     31 CA         13.7072   -8.6457   10.9490 C.3       3 GLC5        0.0000 
     32 CA         15.3310   -8.8360   11.8980 C.3       9 GLL5        0.0000 
     33 CA         14.3451   -6.3959    9.3759 C.3       3 GLC5        0.0000 
     34 CA         13.3550   -7.5660    8.2330 C.3       6 GLP5        0.0000 
     35 CA         16.2411   -5.1026    8.3652 C.3       3 GLC5        0.0000 
     36 CA         14.8450   -5.5360   10.6550 C.3       9 GLL5        0.0000 
     37 CA         16.4980   -5.5880    6.5170 C.3       6 GLP5        0.0000 
     38 CA         15.9921   -3.1851   11.4298 C.3       3 GLC5        0.0000 
     39 CA         16.0000   -1.7530   12.6460 C.3       6 GLP5        0.0000 
     40 CA         17.6378   -4.1318   12.5510 C.3       3 GLC5        0.0000 
     41 CA         17.6080   -5.1280   10.8550 C.3       9 GLL5        0.0000 
     42 CA         17.9800   -2.5820   13.9200 C.3       6 GLP5        0.0000 
     43 CA         17.1264   -6.7155    9.3761 C.3       3 GLC5        0.0000 
     44 CA         17.2990   -7.7050    7.5920 C.3       6 GLP5        0.0000 
     45 CA         19.3595   -5.2483    7.8560 C.3       3 GLC5        0.0000 
     46 CA         19.9320   -4.6920   10.0500 C.3       9 GLL5        0.0000 
     47 CA         18.8650   -6.3390    6.1140 C.3       6 GLP5        0.0000 
     48 CA         21.4733   -3.4155   10.5078 C.3       3 GLC5        0.0000 
     49 CA         22.4200   -1.7460   10.9880 C.3       6 GLP5        0.0000 
     50 CA         20.7642   -4.9170   12.1378 C.3       3 GLC5        0.0000 
     51 CA         21.0020   -4.7490   14.2480 C.3       6 GLP5        0.0000 
     52 CA         22.2408   -3.2000    9.8145 C.3       3 GLC5        0.0000 
     53 CA         22.1370   -5.1880    9.0880 C.3       9 GLL5        0.0000 
     54 CA         20.1348   -5.0373    7.1590 C.3       3 GLC5        0.0000 
     55 CA         21.9860   -4.1200    8.1940 C.3       9 GLL5        0.0000 
     56 CA         21.3597   -2.6165    9.8340 C.3       3 GLC5        0.0000 
     57 CA         20.8230   -3.3510    8.2140 C.3       9 GLL5        0.0000 
@<TRIPOS>BOND
@<TRIPOS>SUBSTRUCTURE
     1 ALC1        1 GROUP        1 X    ALC  0     ROOT ALC X 1
     2 SEC2       13 GROUP        1 X    SEC  0     **** SEC X 2
     3 GLC5        4 GROUP        1 X    GLC  0     **** GLC X 6
     4 ALP1        3 GROUP        1 Y    ALP  0     ROOT ALP Y 8
     5 SEP2       15 GROUP        1 Y    SEP  0     **** SEP Y 9
     6 GLP5        6 GROUP        1 Y    GLP  0     **** GLP Y 13
     7 ALL1        2 GROUP        1 Z    ALL  0     ROOT ALL Z 15
     8 SEL2       14 GROUP        1 Z    SEL  0     **** SEL Z 16
     9 GLL5        5 GROUP        1 Z    GLL  0     **** GLL Z 20
@<TRIPOS>SET

