#    Name: 4fsy_HK7_1_ligand
#    Modification time : Mon Mar 24 20:42:33 2014

@<TRIPOS>MOLECULE
4fsy_HK7_1_ligand
   40    43     1     0     0
SMALL
NO_CHARGES


@<TRIPOS>ATOM
      1 O2         12.4610   -5.3400   13.3540 O.2       1 HK7301      0.0000 
      2 C16        13.5490   -5.8860   13.5890 C.2       1 HK7301      0.0000 
      3 N3         14.4770   -5.2640   14.3840 N.am      1 HK7301      0.0000 
      4 C15        13.8680   -7.2560   13.0690 C.ar      1 HK7301      0.0000 
      5 C14        13.1350   -8.3400   13.6100 C.ar      1 HK7301      0.0000 
      6 C13        13.5080   -9.6570   13.3090 C.ar      1 HK7301      0.0000 
      7 C12        14.6170   -9.9040   12.4730 C.ar      1 HK7301      0.0000 
      8 C11        15.3310   -8.8360   11.8980 C.ar      1 HK7301      0.0000 
      9 C10        14.9440   -7.5030   12.1720 C.ar      1 HK7301      0.0000 
     10 C8         15.6160   -6.4130   11.4220 C.ar      1 HK7301      0.0000 
     11 C7         14.8450   -5.5360   10.6550 C.ar      1 HK7301      0.0000 
     12 C6         15.4400   -4.4770    9.9990 C.ar      1 HK7301      0.0000 
     13 C5         16.8260   -4.2280   10.1000 C.ar      1 HK7301      0.0000 
     14 C1         17.3290   -2.9700    9.4790 C.2       1 HK7301      0.0000 
     15 O1         16.5450   -2.0090    9.2240 O.2       1 HK7301      0.0000 
     16 C9         16.9830   -6.2350   11.5090 C.ar      1 HK7301      0.0000 
     17 C4         17.6080   -5.1280   10.8550 C.ar      1 HK7301      0.0000 
     18 N2         18.9880   -4.9690   11.0710 N.pl3     1 HK7301      0.0000 
     19 C3         19.9320   -4.6920   10.0500 C.ar      1 HK7301      0.0000 
     20 C17        21.1210   -5.4780   10.0050 C.ar      1 HK7301      0.0000 
     21 C18        22.1370   -5.1880    9.0880 C.ar      1 HK7301      0.0000 
     22 C19        21.9860   -4.1200    8.1940 C.ar      1 HK7301      0.0000 
     23 C20        20.8230   -3.3510    8.2140 C.ar      1 HK7301      0.0000 
     24 C2         19.7760   -3.6230    9.1460 C.ar      1 HK7301      0.0000 
     25 N1         18.6650   -2.7540    9.1140 N.am      1 HK7301      0.0000 
     26 H          15.3311   -5.7617   14.5353 H         1 HK7301      0.0000 
     27 H          14.2185   -4.3671   14.7429 H         1 HK7301      0.0000 
     28 H          12.3353   -8.1554   14.2190 H         1 HK7301      0.0000 
     29 H          12.9777  -10.4433   13.6942 H         1 HK7301      0.0000 
     30 H          14.9044  -10.8704   12.2834 H         1 HK7301      0.0000 
     31 H          16.1256   -9.0191   11.2851 H         1 HK7301      0.0000 
     32 H          13.8276   -5.6866   10.5832 H         1 HK7301      0.0000 
     33 H          14.8658   -3.8404    9.4138 H         1 HK7301      0.0000 
     34 H          17.5701   -6.8871   12.0392 H         1 HK7301      0.0000 
     35 H          19.3496   -5.0609   12.0555 H         1 HK7301      0.0000 
     36 H          21.2214   -6.2636   10.6583 H         1 HK7301      0.0000 
     37 H          22.9899   -5.7548    9.0696 H         1 HK7301      0.0000 
     38 H          22.7340   -3.9057    7.5246 H         1 HK7301      0.0000 
     39 H          20.7035   -2.5719    7.5525 H         1 HK7301      0.0000 
     40 H          18.8864   -1.7435    8.7416 H         1 HK7301      0.0000 
@<TRIPOS>BOND
     1    2    1 2    
     2    3    2 am   
     3    4    2 1    
     4   26    3 1    
     5   27    3 1    
     6    5    4 ar   
     7    9    4 ar   
     8    6    5 ar   
     9   28    5 1    
    10    7    6 ar   
    11   29    6 1    
    12    8    7 ar   
    13   30    7 1    
    14    9    8 ar   
    15   31    8 1    
    16   10    9 1    
    17   11   10 ar   
    18   16   10 ar   
    19   12   11 ar   
    20   32   11 1    
    21   13   12 ar   
    22   33   12 1    
    23   14   13 1    
    24   17   13 ar   
    25   15   14 2    
    26   25   14 am   
    27   17   16 ar   
    28   34   16 1    
    29   18   17 1    
    30   19   18 1    
    31   35   18 1    
    32   20   19 ar   
    33   24   19 ar   
    34   21   20 ar   
    35   36   20 1    
    36   22   21 ar   
    37   37   21 1    
    38   23   22 ar   
    39   38   22 1    
    40   24   23 ar   
    41   39   23 1    
    42   25   24 1    
    43   40   25 1    
@<TRIPOS>SUBSTRUCTURE
     1 HK7301      1 GROUP   
@<TRIPOS>SET

