#    Name: 1ab8_FOK_1_INTS_M
#    Modification time : Mon Mar 24 18:12:38 2014

@<TRIPOS>MOLECULE
1ab8_FOK_1_INTS_M
   66     0     9     0     0
SMALL
NO_CHARGES


@<TRIPOS>ATOM
      1 O          52.3915   71.6085    4.9555 O.2       1 ALC1        0.0000 
      2 O          51.5140   72.4990    5.8120 O.2       7 ALL1        0.0000 
      3 O          53.2690   70.7180    4.0990 O.2       4 ALP1        0.0000 
      4 CA         52.7095   72.3755    1.9370 C.3       3 GLC5        0.0000 
      5 CA         51.7480   73.7580    3.1020 C.3       9 GLL5        0.0000 
      6 CA         53.6710   70.9930    0.7720 C.3       6 GLP5        0.0000 
      7 N          45.1525   75.3890    5.3745 N.am      2 SEC2        0.0000 
      8 N          45.7380   74.0580    5.0080 N.am      8 SEL2        0.0000 
      9 N          44.5670   76.7200    5.7410 N.am      5 SEP2        0.0000 
     10 CA         49.8055   71.9520    7.4000 C.3       3 GLC5        0.0000 
     11 CA         49.0880   73.8180    6.6760 C.3       9 GLL5        0.0000 
     12 CA         50.5230   70.0860    8.1240 C.3       6 GLP5        0.0000 
     13 N          51.4425   74.1615    9.6990 N.am      2 SEC2        0.0000 
     14 N          50.6680   73.9930    8.4960 N.am      8 SEL2        0.0000 
     15 N          52.2170   74.3300   10.9020 N.am      5 SEP2        0.0000 
     16 CA         47.5040   72.2575   11.4645 C.3       3 GLC5        0.0000 
     17 CA         47.4520   72.1420    9.2910 C.3       9 GLL5        0.0000 
     18 CA         47.5560   72.3730   13.6380 C.3       6 GLP5        0.0000 
     19 CA         47.3060   69.3080    8.7435 C.3       3 GLC5        0.0000 
     20 CA         47.5220   71.1060    8.7960 C.3       9 GLL5        0.0000 
     21 CA         47.0900   67.5100    8.6910 C.3       6 GLP5        0.0000 
     22 CA         44.2070   74.5120    9.7670 C.3       3 GLC5        0.0000 
     23 CA         45.9450   74.0760    9.7470 C.3       9 GLL5        0.0000 
     24 CA         42.4690   74.9480    9.7870 C.3       6 GLP5        0.0000 
     25 CA         45.6245   73.7535   11.5775 C.3       3 GLC5        0.0000 
     26 CA         45.3040   73.4310   13.4080 C.3       6 GLP5        0.0000 
     27 CA         48.0285   77.2495    7.4445 C.3       3 GLC5        0.0000 
     28 CA         47.2650   75.7210    6.6750 C.3       9 GLL5        0.0000 
     29 CA         48.7920   78.7780    8.2140 C.3       6 GLP5        0.0000 
     30 CA         45.2730   76.5535    6.3785 C.3       3 GLC5        0.0000 
     31 CA         43.2810   77.3860    6.0820 C.3       6 GLP5        0.0000 
     32 CA         50.9315   74.2545    0.0125 C.3       3 GLC5        0.0000 
     33 CA         49.7520   73.6940    1.5290 C.3       9 GLL5        0.0000 
     34 CA         52.1110   74.8150   -1.5040 C.3       6 GLP5        0.0000 
     35 CA         48.8710   72.5085    0.2325 C.3       3 GLC5        0.0000 
     36 CA         47.9900   71.3230   -1.0640 C.3       6 GLP5        0.0000 
     37 CA         52.0890   76.6340    2.6290 C.3       3 GLC5        0.0000 
     38 CA         50.4430   75.8940    2.6000 C.3       9 GLL5        0.0000 
     39 CA         53.7350   77.3740    2.6580 C.3       6 GLP5        0.0000 
     40 CA         50.5030   77.9220    2.9120 C.3       3 GLC5        0.0000 
     41 CA         50.5630   79.9500    3.2240 C.3       6 GLP5        0.0000 
     42 CA         50.0075   77.5825    6.5055 C.3       3 GLC5        0.0000 
     43 CA         50.0430   75.9480    5.6710 C.3       9 GLL5        0.0000 
     44 CA         49.9720   79.2170    7.3400 C.3       6 GLP5        0.0000 
     45 N          45.4400   70.6285    4.3635 N.am      2 SEC2        0.0000 
     46 N          45.2470   72.0070    4.1720 N.am      8 SEL2        0.0000 
     47 N          45.6330   69.2500    4.5550 N.am      5 SEP2        0.0000 
     48 N          44.3155   71.0680    4.9380 N.am      2 SEC2        0.0000 
     49 N          43.3840   70.1290    5.7040 N.am      5 SEP2        0.0000 
     50 CA         43.3610   75.5495    5.2585 C.3       3 GLC5        0.0000 
     51 CA         43.4410   73.7130    4.4350 C.3       9 GLL5        0.0000 
     52 CA         52.6007   75.3445    5.7307 C.3       3 GLC5        0.0000 
     53 CA         51.4830   73.9430    5.6910 C.3       9 GLL5        0.0000 
     54 CA         53.3260   76.5560    6.4010 C.3       6 GLP5        0.0000 
     55 CA         52.8715   75.7073    3.2120 C.3       3 GLC5        0.0000 
     56 CA         52.2680   74.3230    4.4300 C.3       9 GLL5        0.0000 
     57 CA         53.2915   74.1098    2.4165 C.3       3 GLC5        0.0000 
     58 CA         54.5750   74.1790    1.0670 C.3       6 GLP5        0.0000 
     59 CA         47.8865   71.9585    4.2470 C.3       3 GLC5        0.0000 
     60 CA         49.4490   73.9630    4.1260 C.3       9 GLL5        0.0000 
     61 CA         47.8410   70.0260    3.9010 C.3       6 GLP5        0.0000 
     62 CA         51.6795   75.8690    5.9982 C.3       3 GLC5        0.0000 
     63 CA         50.0230   74.4160    5.5200 C.3       9 GLL5        0.0000 
     64 CA         49.0050   70.8550    8.5838 C.3       3 GLC5        0.0000 
     65 CA         46.0085   70.6035   10.1958 C.3       3 GLC5        0.0000 
     66 CA         44.5300   69.5830   11.3480 C.3       6 GLP5        0.0000 
@<TRIPOS>BOND
@<TRIPOS>SUBSTRUCTURE
     1 ALC1        1 GROUP        1 X    ALC  0     ROOT ALC X 1
     2 SEC2        7 GROUP        1 X    SEC  0     **** SEC X 2
     3 GLC5        4 GROUP        1 X    GLC  0     **** GLC X 6
     4 ALP1        3 GROUP        1 Y    ALP  0     ROOT ALP Y 8
     5 SEP2        9 GROUP        1 Y    SEP  0     **** SEP Y 9
     6 GLP5        6 GROUP        1 Y    GLP  0     **** GLP Y 13
     7 ALL1        2 GROUP        1 Z    ALL  0     ROOT ALL Z 15
     8 SEL2        8 GROUP        1 Z    SEL  0     **** SEL Z 16
     9 GLL5        5 GROUP        1 Z    GLL  0     **** GLL Z 20
@<TRIPOS>SET

