#    Name: 1ab8_FOK_1_ligand
#    Modification time : Mon Mar 24 18:12:38 2014

@<TRIPOS>MOLECULE
1ab8_FOK_1_ligand
   61    63     1     0     0
SMALL
NO_CHARGES


@<TRIPOS>ATOM
      1 C1         51.4830   73.9430    5.6910 C.3       1 FOK1        0.0000 
      2 O2         51.5140   72.4990    5.8120 O.3       1 FOK1        0.0000 
      3 C2         52.2680   74.3230    4.4300 C.3       1 FOK1        0.0000 
      4 C3         51.7480   73.7580    3.1020 C.3       1 FOK1        0.0000 
      5 C4         50.2590   74.3550    2.8550 C.3       1 FOK1        0.0000 
      6 C5         49.4490   73.9630    4.1260 C.3       1 FOK1        0.0000 
      7 C6         47.9690   74.2330    3.9700 C.3       1 FOK1        0.0000 
      8 O3         47.7300   75.6420    3.8040 O.3       1 FOK1        0.0000 
      9 C7         47.1550   73.6840    5.1380 C.3       1 FOK1        0.0000 
     10 O4         45.7380   74.0580    5.0080 O.3       1 FOK1        0.0000 
     11 C8         47.5880   74.2010    6.5460 C.3       1 FOK1        0.0000 
     12 O1         46.7980   73.4570    7.4830 O.3       1 FOK1        0.0000 
     13 C9         49.0880   73.8180    6.6760 C.3       1 FOK1        0.0000 
     14 O6         49.0810   72.3440    6.5580 O.3       1 FOK1        0.0000 
     15 C10        50.0230   74.4160    5.5200 C.3       1 FOK1        0.0000 
     16 C11        49.4820   74.0560    8.1560 C.2       1 FOK1        0.0000 
     17 O7         50.6680   73.9930    8.4960 O.2       1 FOK1        0.0000 
     18 C12        48.4040   74.3540    9.1670 C.3       1 FOK1        0.0000 
     19 C13        47.1090   73.5700    8.9060 C.3       1 FOK1        0.0000 
     20 C14        47.4520   72.1420    9.2910 C.2       1 FOK1        0.0000 
     21 C15        47.5220   71.1060    8.7960 C.2       1 FOK1        0.0000 
     22 C16        45.9450   74.0760    9.7470 C.3       1 FOK1        0.0000 
     23 C17        47.2650   75.7210    6.6750 C.3       1 FOK1        0.0000 
     24 C18        49.7520   73.6940    1.5290 C.3       1 FOK1        0.0000 
     25 C19        50.4430   75.8940    2.6000 C.3       1 FOK1        0.0000 
     26 C20        50.0430   75.9480    5.6710 C.3       1 FOK1        0.0000 
     27 C21        44.8870   73.1190    4.5040 C.2       1 FOK1        0.0000 
     28 O5         45.2470   72.0070    4.1720 O.2       1 FOK1        0.0000 
     29 C22        43.4410   73.7130    4.4350 C.3       1 FOK1        0.0000 
     30 H          51.9111   74.4246    6.5247 H         1 FOK1        0.0000 
     31 H          53.3256   74.0023    4.5609 H         1 FOK1        0.0000 
     32 H          52.3004   75.4328    4.3538 H         1 FOK1        0.0000 
     33 H          51.6597   72.6967    3.1496 H         1 FOK1        0.0000 
     34 H          52.3570   74.0795    2.2883 H         1 FOK1        0.0000 
     35 H          49.5232   72.7993    4.1594 H         1 FOK1        0.0000 
     36 H          47.6314   73.6998    3.0632 H         1 FOK1        0.0000 
     37 H          47.2279   72.6022    5.1590 H         1 FOK1        0.0000 
     38 H          48.1709   75.4276    9.1532 H         1 FOK1        0.0000 
     39 H          48.7643   74.1072   10.1752 H         1 FOK1        0.0000 
     40 H          47.7049   72.2228   10.4484 H         1 FOK1        0.0000 
     41 H          46.1861   74.1385   10.7155 H         1 FOK1        0.0000 
     42 H          45.6474   74.9865    9.4597 H         1 FOK1        0.0000 
     43 H          45.1497   73.4734    9.6812 H         1 FOK1        0.0000 
     44 H          47.5334   76.0833    7.5676 H         1 FOK1        0.0000 
     45 H          47.7430   76.2623    5.9832 H         1 FOK1        0.0000 
     46 H          46.2878   75.9036    6.5664 H         1 FOK1        0.0000 
     47 H          50.3463   73.9115    0.7547 H         1 FOK1        0.0000 
     48 H          49.7170   72.6972    1.6007 H         1 FOK1        0.0000 
     49 H          48.8319   74.0030    1.2881 H         1 FOK1        0.0000 
     50 H          50.8709   76.3511    3.3797 H         1 FOK1        0.0000 
     51 H          51.0202   76.0720    1.8030 H         1 FOK1        0.0000 
     52 H          49.5685   76.3505    2.4364 H         1 FOK1        0.0000 
     53 H          50.3922   76.2285    6.5651 H         1 FOK1        0.0000 
     54 H          50.6223   76.3817    4.9808 H         1 FOK1        0.0000 
     55 H          49.1290   76.3425    5.5764 H         1 FOK1        0.0000 
     56 H          43.1084   73.9866    5.3375 H         1 FOK1        0.0000 
     57 H          43.3996   74.5226    3.8495 H         1 FOK1        0.0000 
     58 H          42.7853   73.0527    4.0688 H         1 FOK1        0.0000 
     59 H          52.1670   72.1953    5.1182 H         1 FOK1        0.0000 
     60 H          46.7647   75.7693    4.0323 H         1 FOK1        0.0000 
     61 H          50.0105   72.1024    6.2794 H         1 FOK1        0.0000 
@<TRIPOS>BOND
     1    2    1 1    
     2    3    1 1    
     3   15    1 1    
     4   30    1 1    
     5   59    2 1    
     6    4    3 1    
     7   31    3 1    
     8   32    3 1    
     9    5    4 1    
    10   33    4 1    
    11   34    4 1    
    12    6    5 1    
    13   24    5 1    
    14   25    5 1    
    15    7    6 1    
    16   15    6 1    
    17   35    6 1    
    18    8    7 1    
    19    9    7 1    
    20   36    7 1    
    21   60    8 1    
    22   10    9 1    
    23   11    9 1    
    24   37    9 1    
    25   27   10 1    
    26   12   11 1    
    27   13   11 1    
    28   23   11 1    
    29   19   12 1    
    30   14   13 1    
    31   15   13 1    
    32   16   13 1    
    33   61   14 1    
    34   26   15 1    
    35   17   16 2    
    36   18   16 1    
    37   19   18 1    
    38   38   18 1    
    39   39   18 1    
    40   20   19 1    
    41   22   19 1    
    42   21   20 2    
    43   40   20 1    
    44   41   22 1    
    45   42   22 1    
    46   43   22 1    
    47   44   23 1    
    48   45   23 1    
    49   46   23 1    
    50   47   24 1    
    51   48   24 1    
    52   49   24 1    
    53   50   25 1    
    54   51   25 1    
    55   52   25 1    
    56   53   26 1    
    57   54   26 1    
    58   55   26 1    
    59   28   27 2    
    60   29   27 1    
    61   56   29 1    
    62   57   29 1    
    63   58   29 1    
@<TRIPOS>SUBSTRUCTURE
     1 FOK1        1 GROUP   
@<TRIPOS>SET

