#    Name: 3fzt_4JZ_1_INTS_M
#    Modification time : Tue Mar 25 06:52:46 2014

@<TRIPOS>MOLECULE
3fzt_4JZ_1_INTS_M
   96     0     9     0     0
SMALL
NO_CHARGES


@<TRIPOS>ATOM
      1 CA         -5.7990    5.2680    8.5130 C.3       3 GLC5        0.0000 
      2 CA         -5.8340    3.9610    9.8660 C.3       9 GLL5        0.0000 
      3 CA         -5.7640    6.5750    7.1600 C.3       6 GLP5        0.0000 
      4 CA         -3.8965    4.3695    9.6350 C.3       3 GLC5        0.0000 
      5 CA         -1.9590    4.7780    9.4040 C.3       6 GLP5        0.0000 
      6 CA         -7.3860   -0.6715    9.7890 C.3       3 GLC5        0.0000 
      7 CA         -5.9510    0.2050   10.4410 C.3       9 GLL5        0.0000 
      8 CA         -8.8210   -1.5480    9.1370 C.3       6 GLP5        0.0000 
      9 CA         -5.7885   -1.4980    9.2285 C.3       3 GLC5        0.0000 
     10 CA         -5.6260   -3.2010    8.0160 C.3       6 GLP5        0.0000 
     11 CA         -4.1615   -0.3220    9.5610 C.3       3 GLC5        0.0000 
     12 CA         -2.3720   -0.8490    8.6810 C.3       6 GLP5        0.0000 
     13 CA         -7.9560    0.5055   10.4100 C.3       3 GLC5        0.0000 
     14 CA         -6.2800    1.5800   10.3960 C.3       9 GLL5        0.0000 
     15 CA         -9.6320   -0.5690   10.4240 C.3       6 GLP5        0.0000 
     16 CA        -10.3685   -0.1915   15.5495 C.3       3 GLC5        0.0000 
     17 CA         -9.3960    1.4990   14.9260 C.3       9 GLL5        0.0000 
     18 CA        -11.3410   -1.8820   16.1730 C.3       6 GLP5        0.0000 
     19 CA        -11.1705    2.1085   15.2675 C.3       3 GLC5        0.0000 
     20 CA        -12.9450    2.7180   15.6090 C.3       6 GLP5        0.0000 
     21 CA         -9.4045   -0.8040   16.2400 C.3       3 GLC5        0.0000 
     22 CA         -8.7890    1.0170   16.0680 C.3       9 GLL5        0.0000 
     23 CA        -10.0200   -2.6250   16.4120 C.3       6 GLP5        0.0000 
     24 CA        -10.4290   -0.3840   16.7855 C.3       3 GLC5        0.0000 
     25 CA         -9.5170    1.1140   17.3980 C.3       9 GLL5        0.0000 
     26 CA        -11.2310    1.9160   16.5035 C.3       3 GLC5        0.0000 
     27 CA         -8.4610    1.0005    9.4045 C.3       3 GLC5        0.0000 
     28 CA         -7.2900    2.5700    8.3850 C.3       9 GLL5        0.0000 
     29 CA         -9.1125    2.0480    8.3885 C.3       3 GLC5        0.0000 
     30 CA        -10.9350    1.5260    8.3920 C.3       6 GLP5        0.0000 
     31 CA         -7.3060    1.3000    6.9965 C.3       3 GLC5        0.0000 
     32 CA         -7.3220    0.0300    5.6080 C.3       6 GLP5        0.0000 
     33 CA         -7.7920    4.4710    7.7270 C.3       3 GLC5        0.0000 
     34 CA         -8.2940    6.3720    7.0690 C.3       6 GLP5        0.0000 
     35 CA         -6.0950    1.0970    6.9900 C.3       3 GLC5        0.0000 
     36 CA         -4.8680    2.1640    8.3720 C.3       9 GLL5        0.0000 
     37 CA         -3.4135    3.4710    8.8880 C.3       3 GLC5        0.0000 
     38 CA         -3.3195    2.4310    7.1935 C.3       3 GLC5        0.0000 
     39 CA         -1.7710    2.6980    6.0150 C.3       6 GLP5        0.0000 
     40 CA         -3.6200    0.6575    8.5265 C.3       3 GLC5        0.0000 
     41 CA        -10.7315    1.8345   13.0160 C.3       3 GLC5        0.0000 
     42 CA         -8.7400    1.3850   13.7100 C.3       9 GLL5        0.0000 
     43 CA        -12.7230    2.2840   12.3220 C.3       6 GLP5        0.0000 
     44 CA         -0.0170  -11.6480    9.1850 C.3       3 GLC5        0.0000 
     45 CA          0.8670   -9.9720    8.4120 C.3       9 GLL5        0.0000 
     46 CA         -0.9010  -13.3240    9.9580 C.3       6 GLP5        0.0000 
     47 CA          0.1755  -10.6335    6.5320 C.3       3 GLC5        0.0000 
     48 CA         -0.5160  -11.2950    4.6520 C.3       6 GLP5        0.0000 
     49 CA          2.7210   -9.8095    7.2225 C.3       3 GLC5        0.0000 
     50 CA          4.5750   -9.6470    6.0330 C.3       6 GLP5        0.0000 
     51 CA         -4.5175   -4.1075    9.7425 C.3       3 GLC5        0.0000 
     52 CA         -3.4090   -5.0140   11.4690 C.3       9 GLL5        0.0000 
     53 CA         -2.1450  -10.7230    8.0895 C.3       3 GLC5        0.0000 
     54 CA         -1.3180   -9.2570    8.7890 C.3       9 GLL5        0.0000 
     55 CA         -2.9720  -12.1890    7.3900 C.3       6 GLP5        0.0000 
     56 CA         -0.9245   -6.4775    9.4975 C.3       3 GLC5        0.0000 
     57 CA         -1.4560   -6.7960   11.4990 C.3       9 GLL5        0.0000 
     58 CA         -0.3930   -6.1590    7.4960 C.3       6 GLP5        0.0000 
     59 CA         -0.8490   -5.2060   12.1265 C.3       3 GLC5        0.0000 
     60 CA         -0.2420   -3.6160   12.7540 C.3       6 GLP5        0.0000 
     61 N          -0.8320  -10.7040    7.0065 N.am      2 SEC2        0.0000 
     62 N          -0.4180   -9.9790    8.1190 N.am      8 SEL2        0.0000 
     63 N          -1.2460  -11.4290    5.8940 N.am      5 SEP2        0.0000 
     64 O          -6.1090   -3.3315   13.4970 O.2       1 ALC1        0.0000 
     65 O          -5.3190   -3.6660   12.4510 O.2       7 ALL1        0.0000 
     66 O          -6.8990   -2.9970   14.5430 O.2       4 ALP1        0.0000 
     67 N          -3.4515   -1.1565   10.9675 N.am      2 SEC2        0.0000 
     68 N          -4.4110   -2.2200   10.9690 N.am      8 SEL2        0.0000 
     69 N          -2.4920   -0.0930   10.9660 N.am      5 SEP2        0.0000 
     70 CA         -8.2190   -1.2500   15.2350 C.3       3 GLC5        0.0000 
     71 CA         -6.8760    0.2730   14.7630 C.3       9 GLL5        0.0000 
     72 CA         -9.2250   -2.8290   15.1000 C.3       6 GLP5        0.0000 
     73 CA         -5.5290    0.9890   16.1185 C.3       3 GLC5        0.0000 
     74 CA         -7.5500    0.3850   15.9770 C.3       9 GLL5        0.0000 
     75 CA         -3.8450    1.6490   16.8670 C.3       6 GLP5        0.0000 
     76 CA          0.6892  -10.0427   11.4657 C.3       3 GLC5        0.0000 
     77 CA          0.4380   -8.4020   10.1830 C.3       9 GLL5        0.0000 
     78 CA          0.4880  -11.2930   13.1130 C.3       6 GLP5        0.0000 
     79 CA         -4.6242    1.3922   11.3468 C.3       3 GLC5        0.0000 
     80 CA         -3.1330    1.8920   12.2750 C.3       6 GLP5        0.0000 
     81 CA         -5.7250   -5.2308   11.1423 C.3       3 GLC5        0.0000 
     82 CA         -4.3530   -4.6630   12.3980 C.3       9 GLL5        0.0000 
     83 CA         -7.5690   -5.6230   10.3510 C.3       6 GLP5        0.0000 
     84 CA         -2.5665   -4.0858   12.8887 C.3       3 GLC5        0.0000 
     85 CA         -1.2520   -3.3330   13.8440 C.3       6 GLP5        0.0000 
     86 CA         -9.6465    3.3530   14.7690 C.3       3 GLC5        0.0000 
     87 CA        -10.2250    5.2640   15.2200 C.3       6 GLP5        0.0000 
     88 CA         -4.2689    2.3021   10.6222 C.3       3 GLC5        0.0000 
     89 CA         -6.0490    2.5600    9.2680 C.3       9 GLL5        0.0000 
     90 CA          1.5930   -7.8678    8.2870 C.3       3 GLC5        0.0000 
     91 CA          1.3430   -9.1830    9.4540 C.3       9 GLL5        0.0000 
     92 CA          2.0810   -6.1580    7.6410 C.3       6 GLP5        0.0000 
     93 CA         -8.6672   -0.8718   14.3820 C.3       3 GLC5        0.0000 
     94 CA         -7.4790    0.7860   13.6180 C.3       9 GLL5        0.0000 
     95 CA         -8.8708    0.2583   12.0440 C.3       3 GLC5        0.0000 
     96 CA         -0.5861   -7.4994    8.4480 C.3       3 GLC5        0.0000 
@<TRIPOS>BOND
@<TRIPOS>SUBSTRUCTURE
     1 ALC1       64 GROUP        1 X    ALC  0     ROOT ALC X 1
     2 SEC2       61 GROUP        1 X    SEC  0     **** SEC X 2
     3 GLC5        1 GROUP        1 X    GLC  0     **** GLC X 6
     4 ALP1       66 GROUP        1 Y    ALP  0     ROOT ALP Y 8
     5 SEP2       63 GROUP        1 Y    SEP  0     **** SEP Y 9
     6 GLP5        3 GROUP        1 Y    GLP  0     **** GLP Y 13
     7 ALL1       65 GROUP        1 Z    ALL  0     ROOT ALL Z 15
     8 SEL2       62 GROUP        1 Z    SEL  0     **** SEL Z 16
     9 GLL5        2 GROUP        1 Z    GLL  0     **** GLL Z 20
@<TRIPOS>SET

