#    Name: 3fzt_4JZ_1_ligand
#    Modification time : Tue Mar 25 06:52:46 2014

@<TRIPOS>MOLECULE
3fzt_4JZ_1_ligand
   60    63     1     0     0
SMALL
NO_CHARGES


@<TRIPOS>ATOM
      1 C4         -5.8340    3.9610    9.8660 C.3       1 4JZ999      0.0000 
      2 C7         -7.5500    0.3850   15.9770 C.ar      1 4JZ999      0.0000 
      3 C6          0.4380   -8.4020   10.1830 C.ar      1 4JZ999      0.0000 
      4 C9         -6.8760    0.2730   14.7630 C.ar      1 4JZ999      0.0000 
      5 C13        -5.9510    0.2050   10.4410 C.2       1 4JZ999      0.0000 
      6 C20        -6.2800    1.5800   10.3960 C.2       1 4JZ999      0.0000 
      7 C21        -4.3530   -4.6630   12.3980 C.2       1 4JZ999      0.0000 
      8 C8         -9.3960    1.4990   14.9260 C.ar      1 4JZ999      0.0000 
      9 C18        -0.9190   -8.4430    9.8390 C.ar      1 4JZ999      0.0000 
     10 C16        -8.7890    1.0170   16.0680 C.ar      1 4JZ999      0.0000 
     11 C19        -2.6350   -6.0330   12.0680 C.2       1 4JZ999      0.0000 
     12 C1         -9.5170    1.1140   17.3980 C.3       1 4JZ999      0.0000 
     13 C2         -7.2900    2.5700    8.3850 C.3       1 4JZ999      0.0000 
     14 C3         -4.8680    2.1640    8.3720 C.3       1 4JZ999      0.0000 
     15 C5          1.3430   -9.1830    9.4540 C.ar      1 4JZ999      0.0000 
     16 C10        -8.7400    1.3850   13.7100 C.ar      1 4JZ999      0.0000 
     17 C11         0.8670   -9.9720    8.4120 C.ar      1 4JZ999      0.0000 
     18 C12        -3.4090   -5.0140   11.4690 C.2       1 4JZ999      0.0000 
     19 C14        -1.3180   -9.2570    8.7890 C.ar      1 4JZ999      0.0000 
     20 C15        -1.4560   -6.7960   11.4990 C.3       1 4JZ999      0.0000 
     21 C17        -7.4790    0.7860   13.6180 C.ar      1 4JZ999      0.0000 
     22 C22        -6.3420   -0.2870   11.6510 C.2       1 4JZ999      0.0000 
     23 C23        -5.2640   -2.4750   11.8140 C.2       1 4JZ999      0.0000 
     24 C24        -6.0490    2.5600    9.2680 C.3       1 4JZ999      0.0000 
     25 N25        -4.1130   -5.3670   13.5160 N.pl3     1 4JZ999      0.0000 
     26 N26        -0.4180   -9.9790    8.1190 N.ar      1 4JZ999      0.0000 
     27 N27        -3.0620   -6.2270   13.2890 N.2       1 4JZ999      0.0000 
     28 N28        -6.8340    1.8990   11.5350 N.pl3     1 4JZ999      0.0000 
     29 N29        -5.3190   -3.6660   12.4510 N.am      1 4JZ999      0.0000 
     30 N30        -6.2290   -1.6010   12.1520 N.2       1 4JZ999      0.0000 
     31 N31        -6.8960    0.7510   12.3390 N.pl3     1 4JZ999      0.0000 
     32 O32        -4.4110   -2.2200   10.9690 O.2       1 4JZ999      0.0000 
     33 O33        -1.8630   -7.7050   10.4940 O.3       1 4JZ999      0.0000 
     34 H          -7.1195   -0.0116   16.8346 H         1 4JZ999      0.0000 
     35 H           0.7601   -7.8155   10.9485 H         1 4JZ999      0.0000 
     36 H          -5.9633   -0.1739   14.7148 H         1 4JZ999      0.0000 
     37 H          -5.5300   -0.2676    9.7337 H         1 4JZ999      0.0000 
     38 H         -10.3221    1.9372   14.9735 H         1 4JZ999      0.0000 
     39 H           2.3358   -9.1707    9.6868 H         1 4JZ999      0.0000 
     40 H          -9.1880    1.7490   12.8489 H         1 4JZ999      0.0000 
     41 H           1.5548  -10.5477    7.8811 H         1 4JZ999      0.0000 
     42 H          -3.2821   -4.6675   10.6116 H         1 4JZ999      0.0000 
     43 H          -2.3278   -9.2882    8.5415 H         1 4JZ999      0.0000 
     44 H          -0.9541   -7.3129   12.3386 H         1 4JZ999      0.0000 
     45 H          -0.7324   -6.0547   11.1107 H         1 4JZ999      0.0000 
     46 H          -4.5892   -5.2961   14.3534 H         1 4JZ999      0.0000 
     47 H          -7.1626    2.7589   11.8273 H         1 4JZ999      0.0000 
     48 H          -6.1832   -3.8745   13.0576 H         1 4JZ999      0.0000 
     49 H          -5.0451    3.9856   10.4800 H         1 4JZ999      0.0000 
     50 H          -5.6746    4.6473    9.1563 H         1 4JZ999      0.0000 
     51 H          -6.6266    4.2648   10.3947 H         1 4JZ999      0.0000 
     52 H          -8.9795    1.6094   18.0804 H         1 4JZ999      0.0000 
     53 H         -10.3906    1.5925   17.3092 H         1 4JZ999      0.0000 
     54 H          -9.7148    0.2112   17.7798 H         1 4JZ999      0.0000 
     55 H          -7.2064    3.2254    7.6344 H         1 4JZ999      0.0000 
     56 H          -7.4609    1.6743    7.9744 H         1 4JZ999      0.0000 
     57 H          -8.1105    2.8176    8.9003 H         1 4JZ999      0.0000 
     58 H          -4.0063    2.1476    8.8791 H         1 4JZ999      0.0000 
     59 H          -4.9917    1.2546    7.9748 H         1 4JZ999      0.0000 
     60 H          -4.7485    2.8022    7.6115 H         1 4JZ999      0.0000 
@<TRIPOS>BOND
     1   24    1 1    
     2   49    1 1    
     3   50    1 1    
     4   51    1 1    
     5    4    2 ar   
     6   10    2 ar   
     7   34    2 1    
     8    9    3 ar   
     9   15    3 ar   
    10   35    3 1    
    11   21    4 ar   
    12   36    4 1    
    13    6    5 2    
    14   22    5 1    
    15   37    5 1    
    16   24    6 1    
    17   28    6 1    
    18   18    7 2    
    19   25    7 1    
    20   29    7 1    
    21   10    8 ar   
    22   16    8 ar   
    23   38    8 1    
    24   19    9 ar   
    25   33    9 1    
    26   12   10 1    
    27   18   11 1    
    28   20   11 1    
    29   27   11 2    
    30   52   12 1    
    31   53   12 1    
    32   54   12 1    
    33   24   13 1    
    34   55   13 1    
    35   56   13 1    
    36   57   13 1    
    37   24   14 1    
    38   58   14 1    
    39   59   14 1    
    40   60   14 1    
    41   17   15 ar   
    42   39   15 1    
    43   21   16 ar   
    44   40   16 1    
    45   26   17 ar   
    46   41   17 1    
    47   42   18 1    
    48   26   19 ar   
    49   43   19 1    
    50   33   20 1    
    51   44   20 1    
    52   45   20 1    
    53   31   21 1    
    54   30   22 2    
    55   31   22 1    
    56   29   23 am   
    57   30   23 1    
    58   32   23 2    
    59   27   25 1    
    60   46   25 1    
    61   31   28 1    
    62   47   28 1    
    63   48   29 1    
@<TRIPOS>SUBSTRUCTURE
     1 4JZ999      1 GROUP   
@<TRIPOS>SET

