#    Name: 4lj6_ACP_1_INTS_M
#    Modification time : Tue Apr  8 00:02:15 2014

@<TRIPOS>MOLECULE
4lj6_ACP_1_INTS_M
   55     0     9     0     0
SMALL
NO_CHARGES


@<TRIPOS>ATOM
      1 N          -3.3260   28.3605   -6.9490 N.am      2 SEC2        0.0000 
      2 N          -4.3270   27.3710   -6.6800 N.am      8 SEL2        0.0000 
      3 N          -2.3250   29.3500   -7.2180 N.am      5 SEP2        0.0000 
      4 N          -3.6635   27.2245   -7.7460 N.am      2 SEC2        0.0000 
      5 N          -3.0000   27.0780   -8.8120 N.am      5 SEP2        0.0000 
      6 N          -7.0270   26.7780   -4.2000 N.am      2 SEC2        0.0000 
      7 N          -5.9970   26.3340   -5.0520 N.am      8 SEL2        0.0000 
      8 N          -8.0570   27.2220   -3.3480 N.am      5 SEP2        0.0000 
      9 CA         -4.8525   27.2865   -8.5435 C.3       3 GLC5        0.0000 
     10 CA         -6.5600   26.1840   -7.7190 C.3       9 GLL5        0.0000 
     11 CA         -3.1450   28.3890   -9.3680 C.3       6 GLP5        0.0000 
     12 CA         -8.7010   25.6765   -7.4615 C.3       3 GLC5        0.0000 
     13 CA        -10.8420   25.1690   -7.2040 C.3       6 GLP5        0.0000 
     14 N          -4.3005   31.1045   -7.8135 N.am      2 SEC2        0.0000 
     15 N          -5.4210   30.6390   -6.9140 N.am      8 SEL2        0.0000 
     16 N          -3.1800   31.5700   -8.7130 N.am      5 SEP2        0.0000 
     17 CA         -8.9980   29.1075   -5.7905 C.3       3 GLC5        0.0000 
     18 CA         -9.1240   29.9360   -7.6530 C.3       9 GLL5        0.0000 
     19 CA         -8.8720   28.2790   -3.9280 C.3       6 GLP5        0.0000 
     20 CA        -10.1500   28.2815   -7.2730 C.3       3 GLC5        0.0000 
     21 CA        -11.1760   26.6270   -6.8930 C.3       6 GLP5        0.0000 
     22 CA        -10.9205   35.0375   -6.8790 C.3       3 GLC5        0.0000 
     23 CA         -9.8960   33.3090   -7.5450 C.3       9 GLL5        0.0000 
     24 CA        -11.9450   36.7660   -6.2130 C.3       6 GLP5        0.0000 
     25 CA        -11.1710   32.8495   -6.0670 C.3       3 GLC5        0.0000 
     26 CA        -12.4460   32.3900   -4.5890 C.3       6 GLP5        0.0000 
     27 CA         -4.6545   36.3595   -4.5495 C.3       3 GLC5        0.0000 
     28 CA         -6.7420   35.7590   -4.5750 C.3       9 GLL5        0.0000 
     29 CA         -2.5670   36.9600   -4.5240 C.3       6 GLP5        0.0000 
     30 CA         -7.0880   37.7825   -3.8675 C.3       3 GLC5        0.0000 
     31 CA         -7.4340   39.8060   -3.1600 C.3       6 GLP5        0.0000 
     32 O          -5.7640   36.7995   -2.5825 O.2       1 ALC1        0.0000 
     33 O          -6.0310   35.6950   -3.4330 O.2       7 ALL1        0.0000 
     34 O          -5.4970   37.9040   -1.7320 O.2       4 ALP1        0.0000 
     35 O          -5.8365   34.2935   -2.6970 O.2       1 ALC1        0.0000 
     36 O          -5.6420   32.8920   -1.9610 O.2       4 ALP1        0.0000 
     37 N          -6.0190   37.9915   -4.8130 N.am      2 SEC2        0.0000 
     38 N          -6.7080   36.8490   -5.3570 N.am      8 SEL2        0.0000 
     39 N          -5.3300   39.1340   -4.2690 N.am      5 SEP2        0.0000 
     40 CA         -5.5815   37.7710   -6.2640 C.3       3 GLC5        0.0000 
     41 CA         -7.4240   36.9110   -6.5020 C.3       9 GLL5        0.0000 
     42 CA         -3.7390   38.6310   -6.0260 C.3       6 GLP5        0.0000 
     43 CA         -7.6780   38.7170   -5.4550 C.3       3 GLC5        0.0000 
     44 CA         -7.9320   40.5230   -4.4080 C.3       6 GLP5        0.0000 
     45 CA         -6.1885   35.9410   -7.8045 C.3       3 GLC5        0.0000 
     46 CA         -4.9530   34.9710   -9.1070 C.3       6 GLP5        0.0000 
     47 CA         -8.9410   37.3490   -5.4855 C.3       3 GLC5        0.0000 
     48 CA        -10.4580   37.7870   -4.4690 C.3       6 GLP5        0.0000 
     49 CA         -6.6385   34.8700   -7.6800 C.3       3 GLC5        0.0000 
     50 CA         -8.3240   34.7690   -6.2530 C.3       9 GLL5        0.0000 
     51 CA         -5.8742   33.7743   -4.6285 C.3       3 GLC5        0.0000 
     52 CA         -7.5790   34.6280   -5.0010 C.3       9 GLL5        0.0000 
     53 CA         -4.5880   32.3550   -4.4690 C.3       6 GLP5        0.0000 
     54 CA         -9.0231   35.8231   -4.4977 C.3       3 GLC5        0.0000 
     55 CA        -10.3040   36.6650   -3.4750 C.3       6 GLP5        0.0000 
@<TRIPOS>BOND
@<TRIPOS>SUBSTRUCTURE
     1 ALC1       32 GROUP        1 X    ALC  0     ROOT ALC X 1
     2 SEC2        1 GROUP        1 X    SEC  0     **** SEC X 2
     3 GLC5        9 GROUP        1 X    GLC  0     **** GLC X 6
     4 ALP1       34 GROUP        1 Y    ALP  0     ROOT ALP Y 8
     5 SEP2        3 GROUP        1 Y    SEP  0     **** SEP Y 9
     6 GLP5       11 GROUP        1 Y    GLP  0     **** GLP Y 13
     7 ALL1       33 GROUP        1 Z    ALL  0     ROOT ALL Z 15
     8 SEL2        2 GROUP        1 Z    SEL  0     **** SEL Z 16
     9 GLL5       10 GROUP        1 Z    GLL  0     **** GLL Z 20
@<TRIPOS>SET

