#    Name: 4lj6_ACP_1_ligand
#    Modification time : Tue Apr  8 00:02:15 2014

@<TRIPOS>MOLECULE
4lj6_ACP_1_ligand
   45    47     1     0     0
SMALL
NO_CHARGES


@<TRIPOS>ATOM
      1 PG         -6.5030   24.3760   -7.6140 P.3       1 ACP901      0.0000 
      2 O1G        -5.0610   24.0330   -7.3500 O.co2     1 ACP901      0.0000 
      3 O2G        -6.9690   23.9170   -8.9840 O.co2     1 ACP901      0.0000 
      4 O3G        -7.4770   23.9640   -6.5420 O.co2     1 ACP901      0.0000 
      5 PB         -5.7560   27.0550   -6.3390 P.3       1 ACP901      0.0000 
      6 O1B        -4.3270   27.3710   -6.6800 O.co2     1 ACP901      0.0000 
      7 O2B        -5.9970   26.3340   -5.0520 O.co2     1 ACP901      0.0000 
      8 C3B        -6.5600   26.1840   -7.7190 C.3       1 ACP901      0.0000 
      9 PA         -6.4960   29.6660   -7.3090 P.3       1 ACP901      0.0000 
     10 O1A        -5.4210   30.6390   -6.9140 O.co2     1 ACP901      0.0000 
     11 O2A        -6.4860   29.1530   -8.7190 O.co2     1 ACP901      0.0000 
     12 O3A        -6.5710   28.4510   -6.2590 O.3       1 ACP901      0.0000 
     13 O5'        -7.9210   30.3640   -7.0100 O.3       1 ACP901      0.0000 
     14 C5'        -9.1240   29.9360   -7.6530 C.3       1 ACP901      0.0000 
     15 C4'        -9.7760   31.1120   -8.3600 C.3       1 ACP901      0.0000 
     16 O4'       -10.3430   31.9730   -7.3720 O.3       1 ACP901      0.0000 
     17 C3'        -8.8200   31.9690   -9.1790 C.3       1 ACP901      0.0000 
     18 O3'        -8.9200   31.6800  -10.5670 O.3       1 ACP901      0.0000 
     19 C2'        -9.2400   33.3880   -8.9070 C.3       1 ACP901      0.0000 
     20 O2'       -10.2330   33.8110   -9.8550 O.3       1 ACP901      0.0000 
     21 C1'        -9.8960   33.3090   -7.5450 C.3       1 ACP901      0.0000 
     22 N9         -8.9880   33.6400   -6.4170 N.pl3     1 ACP901      0.0000 
     23 C8         -8.7220   32.8320   -5.3810 C.2       1 ACP901      0.0000 
     24 N7         -7.8670   33.4180   -4.5160 N.2       1 ACP901      0.0000 
     25 C5         -7.5790   34.6280   -5.0010 C.ar      1 ACP901      0.0000 
     26 C6         -6.7420   35.7590   -4.5750 C.ar      1 ACP901      0.0000 
     27 N6         -6.0310   35.6950   -3.4330 N.pl3     1 ACP901      0.0000 
     28 N1         -6.7080   36.8490   -5.3570 N.ar      1 ACP901      0.0000 
     29 C2         -7.4240   36.9110   -6.5020 C.ar      1 ACP901      0.0000 
     30 N3         -8.2020   35.9170   -6.9440 N.ar      1 ACP901      0.0000 
     31 C4         -8.3240   34.7690   -6.2530 C.ar      1 ACP901      0.0000 
     32 H          -7.5710   26.4577   -7.6963 H         1 ACP901      0.0000 
     33 H          -6.0390   26.4543   -8.5868 H         1 ACP901      0.0000 
     34 H          -9.8454   29.5319   -6.9321 H         1 ACP901      0.0000 
     35 H          -8.9273   29.1579   -8.4009 H         1 ACP901      0.0000 
     36 H         -10.5533   30.7450   -9.0145 H         1 ACP901      0.0000 
     37 H          -7.8341   31.8291   -8.7918 H         1 ACP901      0.0000 
     38 H          -8.4073   34.0094   -8.8546 H         1 ACP901      0.0000 
     39 H         -10.7445   33.9828   -7.5357 H         1 ACP901      0.0000 
     40 H          -9.0976   31.9301   -5.2619 H         1 ACP901      0.0000 
     41 H          -5.8990   36.5594   -2.9478 H         1 ACP901      0.0000 
     42 H          -5.6984   34.7888   -3.1720 H         1 ACP901      0.0000 
     43 H          -7.3609   37.8063   -7.0818 H         1 ACP901      0.0000 
     44 H          -8.0445   31.9682  -10.9550 H         1 ACP901      0.0000 
     45 H         -10.1936   33.1343  -10.5903 H         1 ACP901      0.0000 
@<TRIPOS>BOND
     1    2    1 ar   
     2    3    1 ar   
     3    4    1 ar   
     4    8    1 1    
     5    6    5 ar   
     6    7    5 ar   
     7    8    5 1    
     8   12    5 1    
     9   32    8 1    
    10   33    8 1    
    11   10    9 ar   
    12   11    9 ar   
    13   12    9 1    
    14   13    9 1    
    15   14   13 1    
    16   15   14 1    
    17   34   14 1    
    18   35   14 1    
    19   16   15 1    
    20   17   15 1    
    21   36   15 1    
    22   21   16 1    
    23   18   17 1    
    24   19   17 1    
    25   37   17 1    
    26   44   18 1    
    27   20   19 1    
    28   21   19 1    
    29   38   19 1    
    30   45   20 1    
    31   22   21 1    
    32   39   21 1    
    33   23   22 1    
    34   31   22 1    
    35   24   23 2    
    36   40   23 1    
    37   25   24 1    
    38   26   25 ar   
    39   31   25 ar   
    40   27   26 1    
    41   28   26 ar   
    42   41   27 1    
    43   42   27 1    
    44   29   28 ar   
    45   30   29 ar   
    46   43   29 1    
    47   31   30 ar   
@<TRIPOS>SUBSTRUCTURE
     1 ACP901      1 GROUP   
@<TRIPOS>SET

