#    Name: 1i3m_UD1_1_INTS_M
#    Modification time : Tue Mar 25 06:38:37 2014

@<TRIPOS>MOLECULE
1i3m_UD1_1_INTS_M
   76     0    12     0     0
SMALL
NO_CHARGES


@<TRIPOS>ATOM
      1 CA         27.4090   22.8030   46.2355 C.3       4 GLC5        0.0000 
      2 CA         26.0140   22.2290   44.7840 C.3      12 GLL5        0.0000 
      3 CA         28.8040   23.3770   47.6870 C.3       8 GLP5        0.0000 
      4 CA         25.9990   24.4000   45.0865 C.3       4 GLC5        0.0000 
      5 CA         25.9840   26.5710   45.3890 C.3       8 GLP5        0.0000 
      6 CA         21.4655   13.7415   41.1015 C.3       4 GLC5        0.0000 
      7 CA         22.3820   15.4270   42.2740 C.3      12 GLL5        0.0000 
      8 CA         20.5490   12.0560   39.9290 C.3       8 GLP5        0.0000 
      9 N          28.3340   20.2080   45.4725 N.am      2 SEC2        0.0000 
     10 N          27.6880   19.9030   44.4060 N.am     10 SEL2        0.0000 
     11 N          28.9800   20.5130   46.5390 N.am      6 SEP2        0.0000 
     12 O          26.8660   15.1750   55.3260 O.2       1 ALC1        0.0000 
     13 O          26.1000   15.5330   54.1560 O.2       9 ALL1        0.0000 
     14 O          27.6320   14.8170   56.4960 O.2       5 ALP1        0.0000 
     15 CA         23.9485   14.0275   50.4815 C.3       4 GLC5        0.0000 
     16 CA         25.0940   14.9810   52.1020 C.3      12 GLL5        0.0000 
     17 CA         22.8030   13.0740   48.8610 C.3       8 GLP5        0.0000 
     18 CA         23.3395   14.5635   52.1645 C.3       4 GLC5        0.0000 
     19 CA         21.5850   14.1460   52.2270 C.3       8 GLP5        0.0000 
     20 CA         22.8970   15.9110   52.2695 C.3       4 GLC5        0.0000 
     21 CA         24.7240   16.2420   51.9990 C.3      12 GLL5        0.0000 
     22 CA         21.0700   15.5800   52.5400 C.3       8 GLP5        0.0000 
     23 N          27.3295   17.9280   55.4940 N.am      2 SEC2        0.0000 
     24 N          26.0450   17.6070   55.0030 N.am     10 SEL2        0.0000 
     25 N          28.6140   18.2490   55.9850 N.am      6 SEP2        0.0000 
     26 CA         23.2720   17.0560   53.8175 C.3       4 GLC5        0.0000 
     27 CA         24.5420   18.5700   52.7750 C.3      12 GLL5        0.0000 
     28 CA         22.0020   15.5420   54.8600 C.3       8 GLP5        0.0000 
     29 CA         23.7690   19.5480   54.2180 C.3       4 GLC5        0.0000 
     30 CA         22.9960   20.5260   55.6610 C.3       8 GLP5        0.0000 
     31 O          27.2535   20.4245   51.0525 O.2       1 ALC1        0.0000 
     32 O          26.3690   19.9530   51.9030 O.2       9 ALL1        0.0000 
     33 O          28.1380   20.8960   50.2020 O.2       5 ALP1        0.0000 
     34 CA         21.4780   18.3805   52.9425 C.3       4 GLC5        0.0000 
     35 CA         22.7570   19.5730   51.6470 C.3      12 GLL5        0.0000 
     36 CA         20.1990   17.1880   54.2380 C.3       8 GLP5        0.0000 
     37 CA         21.5740   17.2485   51.4975 C.3       4 GLC5        0.0000 
     38 CA         22.0780   18.9170   50.4550 C.3      12 GLL5        0.0000 
     39 CA         19.9645   19.1400   51.1745 C.3       4 GLC5        0.0000 
     40 CA         17.8510   19.3630   51.8940 C.3       8 GLP5        0.0000 
     41 N          24.6315   18.2970   49.0220 N.am      2 SEC2        0.0000 
     42 N          23.1270   18.2010   49.7560 N.am     10 SEL2        0.0000 
     43 N          26.1360   18.3930   48.2880 N.am      6 SEP2        0.0000 
     44 NZ         25.4000   16.4280   48.4220 N.4       3 LYC4        0.0000 
     45 NZ         23.9370   16.5690   48.0600 N.4      11 LYL4        0.0000 
     46 NZ         27.1380   17.5430   48.5120 N.4       7 LYP4        0.0000 
     47 N          25.4000   16.4280   48.4220 N.am      2 SEC2        0.0000 
     48 N          23.9370   16.5690   48.0600 N.am     10 SEL2        0.0000 
     49 N          26.8630   16.2870   48.7840 N.am      6 SEP2        0.0000 
     50 N          25.0365   17.4810   48.1740 N.am      2 SEC2        0.0000 
     51 N          21.7855   15.1915   49.9205 N.am      2 SEC2        0.0000 
     52 N          21.6340   16.3320   49.0030 N.am     10 SEL2        0.0000 
     53 N          21.9370   14.0510   50.8380 N.am      6 SEP2        0.0000 
     54 N          20.3855   19.9415   46.8755 N.am      2 SEC2        0.0000 
     55 N          21.5770   20.3680   46.4260 N.am     10 SEL2        0.0000 
     56 N          19.1940   19.5150   47.3250 N.am      6 SEP2        0.0000 
     57 N          21.8400   21.5755   47.5445 N.am      2 SEC2        0.0000 
     58 N          22.1030   22.7830   48.6630 N.am      6 SEP2        0.0000 
     59 NZ         24.0000   21.7435   48.3070 N.4       3 LYC4        0.0000 
     60 NZ         23.6810   20.2710   47.7060 N.4      11 LYL4        0.0000 
     61 NZ         23.0640   23.5500   49.1580 N.4       7 LYP4        0.0000 
     62 N          22.8920   21.5270   48.1845 N.am      2 SEC2        0.0000 
     63 N          23.6810   20.2710   47.7060 N.am     10 SEL2        0.0000 
     64 N          24.0000   21.7435   48.3070 N.am      2 SEC2        0.0000 
     65 N          24.3190   23.2160   48.9080 N.am      6 SEP2        0.0000 
     66 CA         23.3465   20.3367   42.1825 C.3       4 GLC5        0.0000 
     67 CA         23.5370   19.5020   44.2670 C.3      12 GLL5        0.0000 
     68 CA         22.7840   21.6520   40.5620 C.3       8 GLP5        0.0000 
     69 CA         26.6445   15.6532   51.8633 C.3       4 GLC5        0.0000 
     70 CA         28.3800   15.6950   51.6760 C.3       8 GLP5        0.0000 
     71 CA         26.6732   17.9785   52.1363 C.3       4 GLC5        0.0000 
     72 CA         28.5150   17.0190   52.0960 C.3       8 GLP5        0.0000 
     73 CA         23.1910   20.2432   53.5670 C.3       4 GLC5        0.0000 
     74 CA         24.0150   20.3480   51.2990 C.3      12 GLL5        0.0000 
     75 CA         21.2452   20.7745   50.5425 C.3       4 GLC5        0.0000 
     76 CA         20.0730   22.3040   50.0340 C.3       8 GLP5        0.0000 
@<TRIPOS>BOND
@<TRIPOS>SUBSTRUCTURE
     1 ALC1       12 GROUP        1 X    ALC  0     ROOT ALC X 1
     2 SEC2        9 GROUP        1 X    SEC  0     **** SEC X 2
     3 LYC4       44 GROUP        1 X    LYC  0     **** LYC X 4
     4 GLC5        1 GROUP        1 X    GLC  0     **** GLC X 6
     5 ALP1       14 GROUP        1 Y    ALP  0     ROOT ALP Y 8
     6 SEP2       11 GROUP        1 Y    SEP  0     **** SEP Y 9
     7 LYP4       46 GROUP        1 Y    LYP  0     **** LYP Y 11
     8 GLP5        3 GROUP        1 Y    GLP  0     **** GLP Y 13
     9 ALL1       13 GROUP        1 Z    ALL  0     ROOT ALL Z 15
    10 SEL2       10 GROUP        1 Z    SEL  0     **** SEL Z 16
    11 LYL4       45 GROUP        1 Z    LYL  0     **** LYL Z 18
    12 GLL5        2 GROUP        1 Z    GLL  0     **** GLL Z 20
@<TRIPOS>SET

