#    Name: 1i3m_UD1_1_ligand
#    Modification time : Tue Mar 25 06:38:37 2014

@<TRIPOS>MOLECULE
1i3m_UD1_1_ligand
   64    66     1     0     0
SMALL
NO_CHARGES


@<TRIPOS>ATOM
      1 C1'        23.5370   19.5020   44.2670 C.3       1 UD1401      0.0000 
      2 C2'        24.2810   18.5410   43.3390 C.3       1 UD1401      0.0000 
      3 C3'        25.7580   18.4920   43.7120 C.3       1 UD1401      0.0000 
      4 C4'        26.3760   19.8950   43.8350 C.3       1 UD1401      0.0000 
      5 C5'        25.5100   20.7800   44.7100 C.3       1 UD1401      0.0000 
      6 C6'        26.0140   22.2290   44.7840 C.3       1 UD1401      0.0000 
      7 C7'        22.9190   16.8250   42.3950 C.2       1 UD1401      0.0000 
      8 C8'        22.3820   15.4270   42.2740 C.3       1 UD1401      0.0000 
      9 N2'        23.7430   17.1560   43.3950 N.am      1 UD1401      0.0000 
     10 O1'        23.6420   19.0020   45.5770 O.3       1 UD1401      0.0000 
     11 O3'        26.4870   17.7860   42.7020 O.3       1 UD1401      0.0000 
     12 O4'        27.6880   19.9030   44.4060 O.3       1 UD1401      0.0000 
     13 O5'        24.1720   20.7980   44.2000 O.3       1 UD1401      0.0000 
     14 O6'        25.7880   22.9090   43.5420 O.3       1 UD1401      0.0000 
     15 O7'        22.5980   17.6580   41.5740 O.2       1 UD1401      0.0000 
     16 N1         25.0270   17.1880   52.9650 N.am      1 UD1401      0.0000 
     17 C2         25.7450   16.8490   54.0960 C.2       1 UD1401      0.0000 
     18 N3         26.1000   15.5330   54.1560 N.am      1 UD1401      0.0000 
     19 C4         25.8220   14.5330   53.2190 C.2       1 UD1401      0.0000 
     20 C5         25.0940   14.9810   52.1020 C.2       1 UD1401      0.0000 
     21 C6         24.7240   16.2420   51.9990 C.2       1 UD1401      0.0000 
     22 O2         26.0450   17.6070   55.0030 O.2       1 UD1401      0.0000 
     23 O4         26.2150   13.4030   53.4260 O.2       1 UD1401      0.0000 
     24 C1B        24.5420   18.5700   52.7750 C.3       1 UD1401      0.0000 
     25 C2B        25.1210   19.3060   51.5780 C.3       1 UD1401      0.0000 
     26 O2'        26.3690   19.9530   51.9030 O.3       1 UD1401      0.0000 
     27 C3B        24.0150   20.3480   51.2990 C.3       1 UD1401      0.0000 
     28 C4B        22.7570   19.5730   51.6470 C.3       1 UD1401      0.0000 
     29 O4B        23.1590   18.5430   52.6060 O.3       1 UD1401      0.0000 
     30 O3B        24.1440   21.5250   52.1110 O.3       1 UD1401      0.0000 
     31 C5B        22.0780   18.9170   50.4550 C.3       1 UD1401      0.0000 
     32 O5B        23.1270   18.2010   49.7560 O.3       1 UD1401      0.0000 
     33 PA         22.7230   17.2120   48.5780 P.3       1 UD1401      0.0000 
     34 O1A        23.9370   16.5690   48.0600 O.co2     1 UD1401      0.0000 
     35 O2A        21.6340   16.3320   49.0030 O.co2     1 UD1401      0.0000 
     36 O3A        22.0850   18.3150   47.5080 O.3       1 UD1401      0.0000 
     37 PB         22.7420   19.5460   46.8230 P.3       1 UD1401      0.0000 
     38 O1B        21.5770   20.3680   46.4260 O.co2     1 UD1401      0.0000 
     39 O2B        23.6810   20.2710   47.7060 O.co2     1 UD1401      0.0000 
     40 H          22.5234   19.5552   43.9384 H         1 UD1401      0.0000 
     41 H          24.2115   18.9152   42.3234 H         1 UD1401      0.0000 
     42 H          25.8610   17.9995   44.6669 H         1 UD1401      0.0000 
     43 H          26.3894   20.3467   42.8416 H         1 UD1401      0.0000 
     44 H          25.5150   20.3784   45.7212 H         1 UD1401      0.0000 
     45 H          27.0821   22.1958   45.0394 H         1 UD1401      0.0000 
     46 H          25.4906   22.7199   45.6160 H         1 UD1401      0.0000 
     47 H          24.0195   16.5775   44.1487 H         1 UD1401      0.0000 
     48 H          26.6631   15.2131   55.0259 H         1 UD1401      0.0000 
     49 H          24.8631   14.2765   51.3671 H         1 UD1401      0.0000 
     50 H          24.1736   16.5729   51.1573 H         1 UD1401      0.0000 
     51 H          24.7875   19.1608   53.6685 H         1 UD1401      0.0000 
     52 H          25.1651   18.6512   50.7614 H         1 UD1401      0.0000 
     53 H          24.0077   20.5386   50.2555 H         1 UD1401      0.0000 
     54 H          22.0606   20.2469   52.1282 H         1 UD1401      0.0000 
     55 H          21.6455   19.6869   49.8381 H         1 UD1401      0.0000 
     56 H          21.3160   18.2476   50.8179 H         1 UD1401      0.0000 
     57 H          23.1153   14.7553   42.1685 H         1 UD1401      0.0000 
     58 H          21.8544   15.1607   43.0807 H         1 UD1401      0.0000 
     59 H          21.7781   15.3283   41.4831 H         1 UD1401      0.0000 
     60 H          27.4198   18.1417   42.7599 H         1 UD1401      0.0000 
     61 H          28.1856   20.6083   43.9011 H         1 UD1401      0.0000 
     62 H          26.6499   22.8269   43.0416 H         1 UD1401      0.0000 
     63 H          26.7999   20.1419   51.0206 H         1 UD1401      0.0000 
     64 H          25.0465   21.4491   52.5350 H         1 UD1401      0.0000 
@<TRIPOS>BOND
     1    2    1 1    
     2   10    1 1    
     3   13    1 1    
     4   40    1 1    
     5    3    2 1    
     6    9    2 1    
     7   41    2 1    
     8    4    3 1    
     9   11    3 1    
    10   42    3 1    
    11    5    4 1    
    12   12    4 1    
    13   43    4 1    
    14    6    5 1    
    15   13    5 1    
    16   44    5 1    
    17   14    6 1    
    18   45    6 1    
    19   46    6 1    
    20    8    7 1    
    21    9    7 am   
    22   15    7 2    
    23   57    8 1    
    24   58    8 1    
    25   59    8 1    
    26   47    9 1    
    27   37   10 1    
    28   60   11 1    
    29   61   12 1    
    30   62   14 1    
    31   17   16 1    
    32   21   16 1    
    33   24   16 1    
    34   18   17 1    
    35   22   17 2    
    36   19   18 1    
    37   48   18 1    
    38   20   19 1    
    39   23   19 2    
    40   21   20 2    
    41   49   20 1    
    42   50   21 1    
    43   25   24 1    
    44   29   24 1    
    45   51   24 1    
    46   26   25 1    
    47   27   25 1    
    48   52   25 1    
    49   63   26 1    
    50   28   27 1    
    51   30   27 1    
    52   53   27 1    
    53   29   28 1    
    54   31   28 1    
    55   54   28 1    
    56   64   30 1    
    57   32   31 1    
    58   55   31 1    
    59   56   31 1    
    60   33   32 1    
    61   34   33 ar   
    62   35   33 ar   
    63   36   33 1    
    64   37   36 1    
    65   38   37 ar   
    66   39   37 ar   
@<TRIPOS>SUBSTRUCTURE
     1 UD1401      1 GROUP   
@<TRIPOS>SET

