#    Name: 3fwr_ADP_1_INTS_M
#    Modification time : Tue Mar 25 06:39:48 2014

@<TRIPOS>MOLECULE
3fwr_ADP_1_INTS_M
   60     0    12     0     0
SMALL
NO_CHARGES


@<TRIPOS>ATOM
      1 N          -1.3015   44.2700   33.2620 N.am      2 SEC2        0.0000 
      2 N          -0.3550   44.4580   32.5590 N.am     10 SEL2        0.0000 
      3 N          -2.2480   44.0820   33.9650 N.am      6 SEP2        0.0000 
      4 N          -0.9155   45.7495   33.5040 N.am      2 SEC2        0.0000 
      5 N          -1.4760   47.0410   34.4490 N.am      6 SEP2        0.0000 
      6 NZ          3.2220   44.8655   33.1265 N.4       3 LYC4        0.0000 
      7 NZ          2.1830   44.8960   32.3530 N.4      11 LYL4        0.0000 
      8 NZ          4.3880   45.4560   35.0600 N.4       7 LYP4        0.0000 
      9 N           3.2220   44.8655   33.1265 N.am      2 SEC2        0.0000 
     10 N           2.1830   44.8960   32.3530 N.am     10 SEL2        0.0000 
     11 N           4.2610   44.8350   33.9000 N.am      6 SEP2        0.0000 
     12 NZ          2.7230   45.1655   34.9345 N.4       3 LYC4        0.0000 
     13 NZ          1.0580   44.8750   34.8090 N.4      11 LYL4        0.0000 
     14 N          -0.2090   45.9580   34.6290 N.am      2 SEC2        0.0000 
     15 N           1.0580   44.8750   34.8090 N.am     10 SEL2        0.0000 
     16 N           1.7975   39.5025   34.2195 N.am      2 SEC2        0.0000 
     17 N           0.6040   40.7280   34.4610 N.am     10 SEL2        0.0000 
     18 N           2.9910   38.2770   33.9780 N.am      6 SEP2        0.0000 
     19 N          -1.3230   42.9580   33.1570 N.am      2 SEC2        0.0000 
     20 N          -0.3980   41.8340   32.3490 N.am     10 SEL2        0.0000 
     21 O          -4.7725   43.3820   31.1545 O.2       1 ALC1        0.0000 
     22 O          -3.9920   42.5150   30.3210 O.2       9 ALL1        0.0000 
     23 O          -5.5530   44.2490   31.9880 O.2       5 ALP1        0.0000 
     24 N          -6.0955   40.9030   31.8205 N.am      2 SEC2        0.0000 
     25 N          -4.8790   41.3450   32.5610 N.am     10 SEL2        0.0000 
     26 N          -7.3120   40.4610   31.0800 N.am      6 SEP2        0.0000 
     27 O          -5.2540   42.3405   33.2485 O.2       1 ALC1        0.0000 
     28 O          -4.8790   41.3450   32.5610 O.2       9 ALL1        0.0000 
     29 O          -5.6290   43.3360   33.9360 O.2       5 ALP1        0.0000 
     30 CA         -1.7930   38.5835   31.1255 C.3       4 GLC5        0.0000 
     31 CA         -3.4780   39.7980   31.2770 C.3      12 GLL5        0.0000 
     32 CA         -0.1080   37.3690   30.9740 C.3       8 GLP5        0.0000 
     33 CA         -4.4945   34.4030   33.5905 C.3       4 GLC5        0.0000 
     34 CA         -3.0290   35.3640   33.1810 C.3      12 GLL5        0.0000 
     35 CA         -5.9600   33.4420   34.0000 C.3       8 GLP5        0.0000 
     36 CA         -1.3670   34.9245   32.2620 C.3       4 GLC5        0.0000 
     37 CA          0.2950   34.4850   31.3430 C.3       8 GLP5        0.0000 
     38 O          -2.7370   33.0165   34.2050 O.2       1 ALC1        0.0000 
     39 O          -2.5010   34.6930   34.2120 O.2       9 ALL1        0.0000 
     40 O          -2.9730   31.3400   34.1980 O.2       5 ALP1        0.0000 
     41 O          -1.2625   34.9085   35.0075 O.2       1 ALC1        0.0000 
     42 O          -0.0240   35.1240   35.8030 O.2       5 ALP1        0.0000 
     43 N          -4.0955   33.3100   31.9695 N.am      2 SEC2        0.0000 
     44 N          -3.7390   34.7550   32.1940 N.am     10 SEL2        0.0000 
     45 N          -4.4520   31.8650   31.7450 N.am      6 SEP2        0.0000 
     46 CA         -5.9805   36.7695   30.9910 C.3       4 GLC5        0.0000 
     47 CA         -4.2540   35.4260   31.1750 C.3      12 GLL5        0.0000 
     48 CA         -7.7070   38.1130   30.8070 C.3       8 GLP5        0.0000 
     49 CA         -5.4270   34.1675   31.3995 C.3       4 GLC5        0.0000 
     50 CA         -6.6000   32.9090   31.6240 C.3       8 GLP5        0.0000 
     51 CA         -0.6600   39.3315   30.8583 C.3       4 GLC5        0.0000 
     52 CA         -0.5060   41.2390   31.0420 C.3      12 GLL5        0.0000 
     53 CA         -2.6625   42.3517   33.3487 C.3       4 GLC5        0.0000 
     54 CA         -3.5260   41.0520   32.1590 C.3      12 GLL5        0.0000 
     55 CA         -2.0770   43.1170   35.0040 C.3       8 GLP5        0.0000 
     56 CA         -1.6098   37.2160   31.7735 C.3       4 GLC5        0.0000 
     57 CA         -2.8370   36.7280   33.1170 C.3      12 GLL5        0.0000 
     58 CA         -4.7592   37.2475   33.5045 C.3       4 GLC5        0.0000 
     59 CA         -3.3860   37.3980   32.0290 C.3      12 GLL5        0.0000 
     60 CA         -6.3590   37.7730   34.4200 C.3       8 GLP5        0.0000 
@<TRIPOS>BOND
@<TRIPOS>SUBSTRUCTURE
     1 ALC1       21 GROUP        1 X    ALC  0     ROOT ALC X 1
     2 SEC2        1 GROUP        1 X    SEC  0     **** SEC X 2
     3 LYC4        6 GROUP        1 X    LYC  0     **** LYC X 4
     4 GLC5       30 GROUP        1 X    GLC  0     **** GLC X 6
     5 ALP1       23 GROUP        1 Y    ALP  0     ROOT ALP Y 8
     6 SEP2        3 GROUP        1 Y    SEP  0     **** SEP Y 9
     7 LYP4        8 GROUP        1 Y    LYP  0     **** LYP Y 11
     8 GLP5       32 GROUP        1 Y    GLP  0     **** GLP Y 13
     9 ALL1       22 GROUP        1 Z    ALL  0     ROOT ALL Z 15
    10 SEL2        2 GROUP        1 Z    SEL  0     **** SEL Z 16
    11 LYL4        7 GROUP        1 Z    LYL  0     **** LYL Z 18
    12 GLL5       31 GROUP        1 Z    GLL  0     **** GLL Z 20
@<TRIPOS>SET

