#    Name: 3fwr_ADP_1_ligand
#    Modification time : Tue Mar 25 06:39:48 2014

@<TRIPOS>MOLECULE
3fwr_ADP_1_ligand
   39    41     1     0     0
SMALL
NO_CHARGES


@<TRIPOS>ATOM
      1 PB          0.9360   44.2640   33.2620 P.3       1 ADP221      0.0000 
      2 O1B        -0.3550   44.4580   32.5590 O.co2     1 ADP221      0.0000 
      3 O2B         2.1830   44.8960   32.3530 O.co2     1 ADP221      0.0000 
      4 O3B         1.0580   44.8750   34.8090 O.co2     1 ADP221      0.0000 
      5 PA          0.8520   41.4290   33.1920 P.3       1 ADP221      0.0000 
      6 O1A         0.6040   40.7280   34.4610 O.co2     1 ADP221      0.0000 
      7 O2A         1.8100   40.8780   32.2190 O.co2     1 ADP221      0.0000 
      8 O3A         1.3620   42.7770   33.7070 O.3       1 ADP221      0.0000 
      9 O5'        -0.3980   41.8340   32.3490 O.3       1 ADP221      0.0000 
     10 C5'        -0.5060   41.2390   31.0420 C.3       1 ADP221      0.0000 
     11 C4'        -1.9180   41.3490   30.4430 C.3       1 ADP221      0.0000 
     12 O4'        -2.4670   40.0340   30.2920 O.3       1 ADP221      0.0000 
     13 C3'        -2.9700   42.1210   31.2280 C.3       1 ADP221      0.0000 
     14 O3'        -3.9920   42.5150   30.3210 O.3       1 ADP221      0.0000 
     15 C2'        -3.5260   41.0520   32.1590 C.3       1 ADP221      0.0000 
     16 O2'        -4.8790   41.3450   32.5610 O.3       1 ADP221      0.0000 
     17 C1'        -3.4780   39.7980   31.2770 C.3       1 ADP221      0.0000 
     18 N9         -3.0820   38.6830   32.1880 N.pl3     1 ADP221      0.0000 
     19 C8         -2.3540   38.7940   33.3280 C.2       1 ADP221      0.0000 
     20 N7         -2.1990   37.5980   33.9140 N.2       1 ADP221      0.0000 
     21 C5         -2.8370   36.7280   33.1170 C.ar      1 ADP221      0.0000 
     22 C6         -3.0290   35.3640   33.1810 C.ar      1 ADP221      0.0000 
     23 N6         -2.5010   34.6930   34.2120 N.pl3     1 ADP221      0.0000 
     24 N1         -3.7390   34.7550   32.1940 N.ar      1 ADP221      0.0000 
     25 C2         -4.2540   35.4260   31.1750 C.ar      1 ADP221      0.0000 
     26 N3         -4.0770   36.7250   31.0890 N.ar      1 ADP221      0.0000 
     27 C4         -3.3860   37.3980   32.0290 C.ar      1 ADP221      0.0000 
     28 H          -0.2408   40.1636   31.0676 H         1 ADP221      0.0000 
     29 H           0.1944   41.7131   30.3263 H         1 ADP221      0.0000 
     30 H          -1.8403   41.8030   29.4492 H         1 ADP221      0.0000 
     31 H          -2.5315   42.8717   31.7654 H         1 ADP221      0.0000 
     32 H          -2.8560   40.9173   32.9599 H         1 ADP221      0.0000 
     33 H          -4.4272   39.6370   30.8741 H         1 ADP221      0.0000 
     34 H          -1.9933   39.6404   33.6700 H         1 ADP221      0.0000 
     35 H          -2.9815   33.8605   34.4876 H         1 ADP221      0.0000 
     36 H          -1.6733   35.0845   34.6142 H         1 ADP221      0.0000 
     37 H          -4.8033   34.9152   30.4379 H         1 ADP221      0.0000 
     38 H          -4.6019   43.0992   30.8564 H         1 ADP221      0.0000 
     39 H          -4.8187   42.2080   33.0626 H         1 ADP221      0.0000 
@<TRIPOS>BOND
     1    2    1 ar   
     2    3    1 ar   
     3    4    1 ar   
     4    8    1 1    
     5    6    5 ar   
     6    7    5 ar   
     7    8    5 1    
     8    9    5 1    
     9   10    9 1    
    10   11   10 1    
    11   28   10 1    
    12   29   10 1    
    13   12   11 1    
    14   13   11 1    
    15   30   11 1    
    16   17   12 1    
    17   14   13 1    
    18   15   13 1    
    19   31   13 1    
    20   38   14 1    
    21   16   15 1    
    22   17   15 1    
    23   32   15 1    
    24   39   16 1    
    25   18   17 1    
    26   33   17 1    
    27   19   18 1    
    28   27   18 1    
    29   20   19 2    
    30   34   19 1    
    31   21   20 1    
    32   22   21 ar   
    33   27   21 ar   
    34   23   22 1    
    35   24   22 ar   
    36   35   23 1    
    37   36   23 1    
    38   25   24 ar   
    39   26   25 ar   
    40   37   25 1    
    41   27   26 ar   
@<TRIPOS>SUBSTRUCTURE
     1 ADP221      1 GROUP   
@<TRIPOS>SET

