#    Name: 4fkq_42K_1_INTS_M
#    Modification time : Mon Mar 24 20:14:00 2014

@<TRIPOS>MOLECULE
4fkq_42K_1_INTS_M
   55     0     9     0     0
SMALL
NO_CHARGES


@<TRIPOS>ATOM
      1 O          13.3135   46.4245   16.3400 O.2       1 ALC1        0.0000 
      2 O          13.3420   45.8320   14.9880 O.2       7 ALL1        0.0000 
      3 O          13.2850   47.0170   17.6920 O.2       4 ALP1        0.0000 
      4 O           9.8405   41.2675   12.9520 O.2       1 ALC1        0.0000 
      5 O          10.8580   42.0760   11.9300 O.2       7 ALL1        0.0000 
      6 O           8.8230   40.4590   13.9740 O.2       4 ALP1        0.0000 
      7 O          10.1200   40.8265   11.9930 O.2       1 ALC1        0.0000 
      8 O           9.3820   39.5770   12.0560 O.2       4 ALP1        0.0000 
      9 O          20.0990   43.7720    7.1005 O.2       1 ALC1        0.0000 
     10 O          19.5980   45.2400    6.3270 O.2       7 ALL1        0.0000 
     11 O          20.6000   42.3040    7.8740 O.2       4 ALP1        0.0000 
     12 N          16.1320   47.4605   15.2800 N.am      2 SEC2        0.0000 
     13 N          15.1430   47.0620   14.2960 N.am      8 SEL2        0.0000 
     14 N          17.1210   47.8590   16.2640 N.am      5 SEP2        0.0000 
     15 N          21.0720   44.6770    9.3975 N.am      2 SEC2        0.0000 
     16 N          21.1900   45.6920    8.1970 N.am      8 SEL2        0.0000 
     17 N          20.9540   43.6620   10.5980 N.am      5 SEP2        0.0000 
     18 CA         19.3625   48.0555   12.1445 C.3       3 GLC5        0.0000 
     19 CA         17.8100   47.2640   10.7460 C.3       9 GLL5        0.0000 
     20 CA         20.9150   48.8470   13.5430 C.3       6 GLP5        0.0000 
     21 CA         10.3175   43.8920   11.1890 C.3       3 GLC5        0.0000 
     22 CA         11.2240   42.9580   12.8760 C.3       9 GLL5        0.0000 
     23 CA          9.4110   44.8260    9.5020 C.3       6 GLP5        0.0000 
     24 CA         15.6340   46.0450    9.0310 C.3       3 GLC5        0.0000 
     25 CA         16.8120   45.2440    9.8440 C.3       9 GLL5        0.0000 
     26 CA         13.9780   46.8520    8.7300 C.3       6 GLP5        0.0000 
     27 CA         17.0140   44.2545   11.5690 C.3       3 GLC5        0.0000 
     28 CA         17.2170   42.7460   12.8190 C.3       6 GLP5        0.0000 
     29 CA         15.6440   46.8125    9.7500 C.3       3 GLC5        0.0000 
     30 CA         16.8100   46.2820   10.7940 C.3       9 GLL5        0.0000 
     31 CA          9.1440   42.7712   12.6020 C.3       3 GLC5        0.0000 
     32 CA          7.2830   42.4640   11.6780 C.3       6 GLP5        0.0000 
     33 CA         12.0860   42.0517   14.8700 C.3       3 GLC5        0.0000 
     34 CA         11.4540   44.1800   14.9460 C.3       9 GLL5        0.0000 
     35 CA         13.0520   40.4140   15.1790 C.3       6 GLP5        0.0000 
     36 CA         12.5520   44.0710   16.4843 C.3       3 GLC5        0.0000 
     37 CA         12.5480   44.8980   14.4210 C.3       9 GLL5        0.0000 
     38 CA         13.1030   43.6030   18.2850 C.3       6 GLP5        0.0000 
     39 CA         20.1521   46.2614   10.4900 C.3       3 GLC5        0.0000 
     40 CA         21.7930   45.7730   11.4760 C.3       6 GLP5        0.0000 
     41 CA         18.6568   43.8570    9.4440 C.3       3 GLC5        0.0000 
     42 CA         18.7370   46.2380    8.7720 C.3       9 GLL5        0.0000 
     43 CA         19.3000   41.9760    9.8360 C.3       6 GLP5        0.0000 
     44 CA         12.4195   41.8505   13.9000 C.3       3 GLC5        0.0000 
     45 CA         12.3500   43.6160   12.3660 C.3       9 GLL5        0.0000 
     46 CA         10.8140   45.2039   15.9245 C.3       3 GLC5        0.0000 
     47 CA         10.7860   43.1990   14.1760 C.3       9 GLL5        0.0000 
     48 CA          9.7940   46.1140   17.3580 C.3       6 GLP5        0.0000 
     49 CA         11.5820   45.4517   11.6930 C.3       3 GLC5        0.0000 
     50 CA         12.9860   44.6410   13.1100 C.3       9 GLL5        0.0000 
     51 CA         10.4960   46.7750   10.6480 C.3       6 GLP5        0.0000 
     52 CA         14.2398   43.8279   13.9579 C.3       3 GLC5        0.0000 
     53 CA         15.9210   43.4630   14.8500 C.3       6 GLP5        0.0000 
     54 CA         11.9688   46.4510   14.0694 C.3       3 GLC5        0.0000 
     55 CA         11.4440   48.3120   14.2420 C.3       6 GLP5        0.0000 
@<TRIPOS>BOND
@<TRIPOS>SUBSTRUCTURE
     1 ALC1        1 GROUP        1 X    ALC  0     ROOT ALC X 1
     2 SEC2       12 GROUP        1 X    SEC  0     **** SEC X 2
     3 GLC5       18 GROUP        1 X    GLC  0     **** GLC X 6
     4 ALP1        3 GROUP        1 Y    ALP  0     ROOT ALP Y 8
     5 SEP2       14 GROUP        1 Y    SEP  0     **** SEP Y 9
     6 GLP5       20 GROUP        1 Y    GLP  0     **** GLP Y 13
     7 ALL1        2 GROUP        1 Z    ALL  0     ROOT ALL Z 15
     8 SEL2       13 GROUP        1 Z    SEL  0     **** SEL Z 16
     9 GLL5       19 GROUP        1 Z    GLL  0     **** GLL Z 20
@<TRIPOS>SET

