#    Name: 4fkq_42K_1_ligand
#    Modification time : Mon Mar 24 20:14:00 2014

@<TRIPOS>MOLECULE
4fkq_42K_1_ligand
   36    39     1     0     0
SMALL
NO_CHARGES


@<TRIPOS>ATOM
      1 N1         13.3420   45.8320   14.9880 N.am      1 42K301      0.0000 
      2 N2         10.8580   42.0760   11.9300 N.pl3     1 42K301      0.0000 
      3 N3         11.5960   42.2400   10.9360 N.2       1 42K301      0.0000 
      4 N4         12.4880   43.1030   11.1240 N.2       1 42K301      0.0000 
      5 N5         14.9060   45.5600   11.8390 N.2       1 42K301      0.0000 
      6 N6         15.9310   46.2790   11.8250 N.pl3     1 42K301      0.0000 
      7 N7         19.5980   45.2400    6.3270 N.pl3     1 42K301      0.0000 
      8 OAB        15.1430   47.0620   14.2960 O.2       1 42K301      0.0000 
      9 OAC        20.2580   47.6270    7.0860 O.2       1 42K301      0.0000 
     10 OAD        21.1900   45.6920    8.1970 O.2       1 42K301      0.0000 
     11 CAE        16.8120   45.2440    9.8440 C.ar      1 42K301      0.0000 
     12 CAF        17.8100   47.2640   10.7460 C.ar      1 42K301      0.0000 
     13 CAG        17.7680   45.2320    8.8200 C.ar      1 42K301      0.0000 
     14 CAH        18.7610   47.2590    9.7260 C.ar      1 42K301      0.0000 
     15 CAI        10.7860   43.1990   14.1760 C.ar      1 42K301      0.0000 
     16 CAJ        11.4540   44.1800   14.9460 C.ar      1 42K301      0.0000 
     17 CAQ        16.8100   46.2820   10.7940 C.ar      1 42K301      0.0000 
     18 CAR        18.7370   46.2380    8.7720 C.ar      1 42K301      0.0000 
     19 CAS        14.2280   46.2460   14.0780 C.2       1 42K301      0.0000 
     20 CAT        14.0540   45.5260   12.8970 C.2       1 42K301      0.0000 
     21 CAU        11.2240   42.9580   12.8760 C.ar      1 42K301      0.0000 
     22 CAV        12.5480   44.8980   14.4210 C.ar      1 42K301      0.0000 
     23 CAW        12.3500   43.6160   12.3660 C.ar      1 42K301      0.0000 
     24 CAX        12.9860   44.6410   13.1100 C.ar      1 42K301      0.0000 
     25 SAY        19.9760   46.2370    7.5460 S.o2      1 42K301      0.0000 
     26 H          13.2734   46.1438   15.9029 H         1 42K301      0.0000 
     27 H          10.1224   41.4308   12.0550 H         1 42K301      0.0000 
     28 H          16.1625   46.9369   12.6449 H         1 42K301      0.0000 
     29 H          19.4008   44.2925    6.5785 H         1 42K301      0.0000 
     30 H          19.5898   45.6458    5.4131 H         1 42K301      0.0000 
     31 H          16.1129   44.4980    9.9036 H         1 42K301      0.0000 
     32 H          17.8394   47.9938   11.4720 H         1 42K301      0.0000 
     33 H          17.7557   44.4930    8.1146 H         1 42K301      0.0000 
     34 H          19.4691   47.9941    9.6755 H         1 42K301      0.0000 
     35 H          10.0049   42.6869   14.5718 H         1 42K301      0.0000 
     36 H          11.1345   44.3713   15.9053 H         1 42K301      0.0000 
@<TRIPOS>BOND
     1   19    1 am   
     2   22    1 1    
     3   26    1 1    
     4    3    2 1    
     5   21    2 1    
     6   27    2 1    
     7    4    3 2    
     8   23    4 1    
     9    6    5 1    
    10   20    5 2    
    11   17    6 1    
    12   28    6 1    
    13   25    7 1    
    14   29    7 1    
    15   30    7 1    
    16   19    8 2    
    17   25    9 2    
    18   25   10 2    
    19   13   11 ar   
    20   17   11 ar   
    21   31   11 1    
    22   14   12 ar   
    23   17   12 ar   
    24   32   12 1    
    25   18   13 ar   
    26   33   13 1    
    27   18   14 ar   
    28   34   14 1    
    29   16   15 ar   
    30   21   15 ar   
    31   35   15 1    
    32   22   16 ar   
    33   36   16 1    
    34   25   18 1    
    35   20   19 1    
    36   24   20 1    
    37   23   21 ar   
    38   24   22 ar   
    39   24   23 ar   
@<TRIPOS>SUBSTRUCTURE
     1 42K301      1 GROUP   
@<TRIPOS>SET

