#    Name: 1a4z_NAD_2_INTS_M
#    Modification time : Mon Mar 24 17:51:56 2014

@<TRIPOS>MOLECULE
1a4z_NAD_2_INTS_M
   98     0     9     0     0
SMALL
NO_CHARGES


@<TRIPOS>ATOM
      1 N          38.7000  110.4745   37.3930 N.am      2 SEC2        0.0000 
      2 N          37.2480  110.5630   37.5650 N.am      8 SEL2        0.0000 
      3 N          40.1520  110.3860   37.2210 N.am      5 SEP2        0.0000 
      4 N          37.7175  109.4005   37.2030 N.am      2 SEC2        0.0000 
      5 N          38.1870  108.2380   36.8410 N.am      5 SEP2        0.0000 
      6 CA         38.8725  113.3500   37.3450 C.3       3 GLC5        0.0000 
      7 CA         37.0200  113.9670   37.5940 C.3       9 GLL5        0.0000 
      8 CA         40.7250  112.7330   37.0960 C.3       6 GLP5        0.0000 
      9 CA         34.6665  117.4285   38.5190 C.3       3 GLC5        0.0000 
     10 CA         35.3070  115.8370   37.3670 C.3       9 GLL5        0.0000 
     11 CA         34.0260  119.0200   39.6710 C.3       6 GLP5        0.0000 
     12 O          36.1480  117.7000   37.2070 O.2       1 ALC1        0.0000 
     13 O          35.0740  117.0760   36.6850 O.2       7 ALL1        0.0000 
     14 O          37.2220  118.3240   37.7290 O.2       4 ALP1        0.0000 
     15 N          32.5825  116.8635   36.6710 N.am      2 SEC2        0.0000 
     16 N          32.9240  115.5790   37.1290 N.am      8 SEL2        0.0000 
     17 N          32.2410  118.1480   36.2130 N.am      5 SEP2        0.0000 
     18 N          31.9805  115.9940   37.9945 N.am      2 SEC2        0.0000 
     19 N          31.0370  116.4090   38.8600 N.am      5 SEP2        0.0000 
     20 CA         35.4500  115.7380   34.4870 C.3       3 GLC5        0.0000 
     21 CA         34.5240  114.6130   35.5510 C.3       9 GLL5        0.0000 
     22 CA         36.3760  116.8630   33.4230 C.3       6 GLP5        0.0000 
     23 CA         36.3725  113.9740   34.5785 C.3       3 GLC5        0.0000 
     24 CA         38.2210  113.3350   33.6060 C.3       6 GLP5        0.0000 
     25 CA         31.1915  111.5430   34.3885 C.3       3 GLC5        0.0000 
     26 CA         33.0940  111.7150   33.8880 C.3       9 GLL5        0.0000 
     27 CA         29.2890  111.3710   34.8890 C.3       6 GLP5        0.0000 
     28 CA         30.8220  111.3160   32.6285 C.3       3 GLC5        0.0000 
     29 CA         32.8160  111.0250   32.7240 C.3       9 GLL5        0.0000 
     30 CA         28.8280  111.6070   32.5330 C.3       6 GLP5        0.0000 
     31 CA         34.7545  114.7465   30.8960 C.3       3 GLC5        0.0000 
     32 CA         33.5960  112.9350   31.4750 C.3       9 GLL5        0.0000 
     33 CA         35.9130  116.5580   30.3170 C.3       6 GLP5        0.0000 
     34 CA         32.7400  114.5720   31.3005 C.3       3 GLC5        0.0000 
     35 CA         31.8840  116.2090   31.1260 C.3       6 GLP5        0.0000 
     36 CA         32.3070  113.2430   30.0140 C.3       3 GLC5        0.0000 
     37 CA         31.0180  113.5510   28.5530 C.3       6 GLP5        0.0000 
     38 CA         34.8920  111.5590   32.2380 C.3       3 GLC5        0.0000 
     39 CA         36.1880  110.1830   33.0010 C.3       6 GLP5        0.0000 
     40 CA         35.0900  112.8330   30.2975 C.3       3 GLC5        0.0000 
     41 CA         36.5840  112.7310   29.1200 C.3       6 GLP5        0.0000 
     42 N          37.1215  113.0915   42.8680 N.am      2 SEC2        0.0000 
     43 N          37.5890  112.1780   41.9490 N.am      8 SEL2        0.0000 
     44 N          36.6540  114.0050   43.7870 N.am      5 SEP2        0.0000 
     45 CA         41.3835  112.2015   43.4510 C.3       3 GLC5        0.0000 
     46 CA         40.7210  112.1300   41.9120 C.3       9 GLL5        0.0000 
     47 CA         42.0460  112.2730   44.9900 C.3       6 GLP5        0.0000 
     48 CA         41.0295  112.0530   38.9185 C.3       3 GLC5        0.0000 
     49 CA         41.3340  111.3730   40.7410 C.3       9 GLL5        0.0000 
     50 CA         40.8835  110.1670   39.0495 C.3       3 GLC5        0.0000 
     51 CA         40.4330  108.9610   37.3580 C.3       6 GLP5        0.0000 
     52 O          43.5390  108.4565   40.9165 O.2       1 ALC1        0.0000 
     53 O          42.7670  109.4980   40.1710 O.2       7 ALL1        0.0000 
     54 O          44.3110  107.4150   41.6620 O.2       4 ALP1        0.0000 
     55 O          44.5985  109.0760   41.4555 O.2       1 ALC1        0.0000 
     56 O          44.8860  110.7370   41.2490 O.2       7 ALL1        0.0000 
     57 O          45.2525  109.6795   42.0935 O.2       1 ALC1        0.0000 
     58 O          45.6190  108.6220   42.9380 O.2       4 ALP1        0.0000 
     59 CA         42.0685  112.4195   38.5015 C.3       3 GLC5        0.0000 
     60 CA         43.4120  112.1060   39.9070 C.3       9 GLL5        0.0000 
     61 CA         45.2410  112.0535   37.4820 C.3       3 GLC5        0.0000 
     62 CA         45.2040  113.3850   38.9830 C.3       9 GLL5        0.0000 
     63 CA         45.2780  110.7220   35.9810 C.3       6 GLP5        0.0000 
     64 CA         46.2415  112.9355   40.1055 C.3       3 GLC5        0.0000 
     65 CA         47.2790  112.4860   41.2280 C.3       6 GLP5        0.0000 
     66 O          47.0850  112.1190   37.6770 O.2       1 ALC1        0.0000 
     67 O          47.4590  113.4970   37.4300 O.2       7 ALL1        0.0000 
     68 O          46.7110  110.7410   37.9240 O.2       4 ALP1        0.0000 
     69 CA         45.6175  113.4300   40.9150 C.3       3 GLC5        0.0000 
     70 CA         43.9560  114.3740   40.6020 C.3       9 GLL5        0.0000 
     71 CA         37.4792  113.9225   35.3693 C.3       3 GLC5        0.0000 
     72 CA         36.1285  116.1540   35.2210 C.3       3 GLC5        0.0000 
     73 CA         36.4550  115.0530   36.6710 C.3       9 GLL5        0.0000 
     74 CA         37.4211  116.1242   38.4744 C.3       3 GLC5        0.0000 
     75 CA         38.8200  117.0750   39.6990 C.3       6 GLP5        0.0000 
     76 CA         32.4900  114.3702   35.6190 C.3       3 GLC5        0.0000 
     77 CA         34.1720  114.8760   37.0390 C.3       9 GLL5        0.0000 
     78 CA         30.6320  113.9960   34.9430 C.3       6 GLP5        0.0000 
     79 CA         31.9570  113.0835   34.2582 C.3       3 GLC5        0.0000 
     80 CA         34.7350  111.1770   33.2873 C.3       3 GLC5        0.0000 
     81 CA         33.6090  112.9720   33.8410 C.3       9 GLL5        0.0000 
     82 CA         45.4032  112.1320   40.9080 C.3       3 GLC5        0.0000 
     83 CA         43.6430  111.4500   41.2690 C.3       9 GLL5        0.0000 
     84 CA         43.0479  111.7738   42.7846 C.3       3 GLC5        0.0000 
     85 CA         43.3200  112.3660   44.4500 C.3       6 GLP5        0.0000 
     86 CA         44.4652  109.9694   39.7791 C.3       3 GLC5        0.0000 
     87 CA         45.6930  108.4100   38.9880 C.3       6 GLP5        0.0000 
     88 CA         44.6723  115.0780   37.9455 C.3       3 GLC5        0.0000 
     89 CA         43.7640  116.2120   36.9530 C.3       6 GLP5        0.0000 
     90 CA         45.1017  117.5725   39.7050 C.3       3 GLC5        0.0000 
     91 CA         45.7180  115.5750   39.6710 C.3       9 GLL5        0.0000 
     92 CA         44.9880  119.5860   39.3020 C.3       6 GLP5        0.0000 
     93 CA         42.7433  115.9723   40.1133 C.3       3 GLC5        0.0000 
     94 CA         44.7130  115.5430   40.5450 C.3       9 GLL5        0.0000 
     95 CA         41.1520  116.9860   39.6530 C.3       6 GLP5        0.0000 
     96 CA         46.7291  114.6625   40.4742 C.3       3 GLC5        0.0000 
     97 CA         48.1830  114.0340   41.0350 C.3       6 GLP5        0.0000 
     98 CA         44.1749  115.5893   38.6540 C.3       3 GLC5        0.0000 
@<TRIPOS>BOND
@<TRIPOS>SUBSTRUCTURE
     1 ALC1       12 GROUP        1 X    ALC  0     ROOT ALC X 1
     2 SEC2        1 GROUP        1 X    SEC  0     **** SEC X 2
     3 GLC5        6 GROUP        1 X    GLC  0     **** GLC X 6
     4 ALP1       14 GROUP        1 Y    ALP  0     ROOT ALP Y 8
     5 SEP2        3 GROUP        1 Y    SEP  0     **** SEP Y 9
     6 GLP5        8 GROUP        1 Y    GLP  0     **** GLP Y 13
     7 ALL1       13 GROUP        1 Z    ALL  0     ROOT ALL Z 15
     8 SEL2        2 GROUP        1 Z    SEL  0     **** SEL Z 16
     9 GLL5        7 GROUP        1 Z    GLL  0     **** GLL Z 20
@<TRIPOS>SET

