#    Name: 1a4z_NAD_2_ligand
#    Modification time : Mon Mar 24 17:51:57 2014

@<TRIPOS>MOLECULE
1a4z_NAD_2_ligand
   70    74     1     0     0
SMALL
NO_CHARGES


@<TRIPOS>ATOM
      1 PA         36.7900  111.5120   38.5920 P.3       1 NAD501      0.0000 
      2 O1A        37.2480  110.5630   37.5650 O.co2     1 NAD501      0.0000 
      3 O2A        35.6920  110.7950   39.3370 O.co2     1 NAD501      0.0000 
      4 O5B        36.1740  112.8020   37.9150 O.3       1 NAD501      0.0000 
      5 C5B        37.0200  113.9670   37.5940 C.3       1 NAD501      0.0000 
      6 C4B        36.4550  115.0530   36.6710 C.3       1 NAD501      0.0000 
      7 O4B        35.9300  114.4690   35.4920 O.3       1 NAD501      0.0000 
      8 C3B        35.3070  115.8370   37.3670 C.3       1 NAD501      0.0000 
      9 O3B        35.0740  117.0760   36.6850 O.3       1 NAD501      0.0000 
     10 C2B        34.1720  114.8760   37.0390 C.3       1 NAD501      0.0000 
     11 O2B        32.9240  115.5790   37.1290 O.3       1 NAD501      0.0000 
     12 C1B        34.5240  114.6130   35.5510 C.3       1 NAD501      0.0000 
     13 N9A        33.9540  113.3630   35.1150 N.pl3     1 NAD501      0.0000 
     14 C8A        33.6320  112.2970   35.9330 C.2       1 NAD501      0.0000 
     15 N7A        33.0930  111.2570   35.1910 N.2       1 NAD501      0.0000 
     16 C5A        33.0940  111.7150   33.8880 C.ar      1 NAD501      0.0000 
     17 C6A        32.8160  111.0250   32.7240 C.ar      1 NAD501      0.0000 
     18 N6A        32.3710  109.7530   32.7420 N.pl3     1 NAD501      0.0000 
     19 N1A        33.0730  111.6550   31.5130 N.ar      1 NAD501      0.0000 
     20 C2A        33.5960  112.9350   31.4750 C.ar      1 NAD501      0.0000 
     21 N3A        33.8750  113.6230   32.6450 N.ar      1 NAD501      0.0000 
     22 C4A        33.6090  112.9720   33.8410 C.ar      1 NAD501      0.0000 
     23 O3         38.0960  111.9030   39.4710 O.3       1 NAD501      0.0000 
     24 PN         38.2940  112.8650   40.8190 P.3       1 NAD501      0.0000 
     25 O1N        37.5890  112.1780   41.9490 O.co2     1 NAD501      0.0000 
     26 O2N        37.7040  114.2290   40.6820 O.co2     1 NAD501      0.0000 
     27 O5D        39.9030  113.1450   41.2420 O.3       1 NAD501      0.0000 
     28 C5D        40.7210  112.1300   41.9120 C.3       1 NAD501      0.0000 
     29 C4D        41.3340  111.3730   40.7410 C.3       1 NAD501      0.0000 
     30 O4D        42.0010  112.3400   39.9530 O.3       1 NAD501      0.0000 
     31 C3D        42.4830  110.4530   41.1980 C.3       1 NAD501      0.0000 
     32 O3D        42.7670  109.4980   40.1710 O.3       1 NAD501      0.0000 
     33 C2D        43.6430  111.4500   41.2690 C.3       1 NAD501      0.0000 
     34 O2D        44.8860  110.7370   41.2490 O.3       1 NAD501      0.0000 
     35 C1D        43.4120  112.1060   39.9070 C.3       1 NAD501      0.0000 
     36 N1N        44.2070  113.3320   39.8330 N.pl3     1 NAD501      0.0000 
     37 C2N        45.2040  113.3850   38.9830 C.ar      1 NAD501      0.0000 
     38 C3N        45.9570  114.5030   38.8930 C.ar      1 NAD501      0.0000 
     39 C7N        46.9660  114.5980   38.0340 C.2       1 NAD501      0.0000 
     40 O7N        47.4530  115.7400   37.8630 O.2       1 NAD501      0.0000 
     41 N7N        47.4590  113.4970   37.4300 N.am      1 NAD501      0.0000 
     42 C4N        45.7180  115.5750   39.6710 C.ar      1 NAD501      0.0000 
     43 C5N        44.7130  115.5430   40.5450 C.ar      1 NAD501      0.0000 
     44 C6N        43.9560  114.3740   40.6020 C.ar      1 NAD501      0.0000 
     45 H          37.9925  113.6145   37.1419 H         1 NAD501      0.0000 
     46 H          37.3438  114.4734   38.5495 H         1 NAD501      0.0000 
     47 H          37.2377  115.7581   36.4486 H         1 NAD501      0.0000 
     48 H          35.4684  115.8668   38.3620 H         1 NAD501      0.0000 
     49 H          34.2683  114.0205   37.5695 H         1 NAD501      0.0000 
     50 H          34.1844  115.4291   34.9793 H         1 NAD501      0.0000 
     51 H          33.7633  112.2764   36.8905 H         1 NAD501      0.0000 
     52 H          32.1976  109.3348   31.8503 H         1 NAD501      0.0000 
     53 H          32.2538  109.3406   33.6454 H         1 NAD501      0.0000 
     54 H          33.7818  113.3859   30.5609 H         1 NAD501      0.0000 
     55 H          40.1209  111.4616   42.4813 H         1 NAD501      0.0000 
     56 H          41.4999  112.5744   42.4837 H         1 NAD501      0.0000 
     57 H          40.6303  110.8361   40.2171 H         1 NAD501      0.0000 
     58 H          42.2840  110.0800   42.1258 H         1 NAD501      0.0000 
     59 H          43.4882  112.1144   42.0090 H         1 NAD501      0.0000 
     60 H          43.6693  111.4011   39.1698 H         1 NAD501      0.0000 
     61 H          45.4315  112.5691   38.3651 H         1 NAD501      0.0000 
     62 H          48.1896  113.6500   36.7645 H         1 NAD501      0.0000 
     63 H          47.0500  112.6258   37.7015 H         1 NAD501      0.0000 
     64 H          46.3194  116.4226   39.5854 H         1 NAD501      0.0000 
     65 H          44.4837  116.3234   41.1581 H         1 NAD501      0.0000 
     66 H          43.1599  114.3532   41.2961 H         1 NAD501      0.0000 
     67 H          35.4691  117.7766   37.2792 H         1 NAD501      0.0000 
     68 H          32.4051  115.2889   36.3249 H         1 NAD501      0.0000 
     69 H          43.3064  108.7865   40.6214 H         1 NAD501      0.0000 
     70 H          44.8162  110.0745   41.9948 H         1 NAD501      0.0000 
@<TRIPOS>BOND
     1    2    1 ar   
     2    3    1 ar   
     3    4    1 1    
     4   23    1 1    
     5    5    4 1    
     6    6    5 1    
     7   45    5 1    
     8   46    5 1    
     9    7    6 1    
    10    8    6 1    
    11   47    6 1    
    12   12    7 1    
    13    9    8 1    
    14   10    8 1    
    15   48    8 1    
    16   67    9 1    
    17   11   10 1    
    18   12   10 1    
    19   49   10 1    
    20   68   11 1    
    21   13   12 1    
    22   50   12 1    
    23   14   13 1    
    24   22   13 1    
    25   15   14 2    
    26   51   14 1    
    27   16   15 1    
    28   17   16 ar   
    29   22   16 ar   
    30   18   17 1    
    31   19   17 ar   
    32   52   18 1    
    33   53   18 1    
    34   20   19 ar   
    35   21   20 ar   
    36   54   20 1    
    37   22   21 ar   
    38   24   23 1    
    39   25   24 ar   
    40   26   24 ar   
    41   27   24 1    
    42   28   27 1    
    43   29   28 1    
    44   55   28 1    
    45   56   28 1    
    46   30   29 1    
    47   31   29 1    
    48   57   29 1    
    49   35   30 1    
    50   32   31 1    
    51   33   31 1    
    52   58   31 1    
    53   69   32 1    
    54   34   33 1    
    55   35   33 1    
    56   59   33 1    
    57   70   34 1    
    58   36   35 1    
    59   60   35 1    
    60   37   36 ar   
    61   44   36 ar   
    62   38   37 ar   
    63   61   37 1    
    64   39   38 1    
    65   42   38 ar   
    66   40   39 2    
    67   41   39 am   
    68   62   41 1    
    69   63   41 1    
    70   43   42 ar   
    71   64   42 1    
    72   44   43 ar   
    73   65   43 1    
    74   66   44 1    
@<TRIPOS>SUBSTRUCTURE
     1 NAD501      1 GROUP   
@<TRIPOS>SET

