#    Name: 4lis_UPG_1_INTS_M
#    Modification time : Tue Mar 25 10:02:59 2014

@<TRIPOS>MOLECULE
4lis_UPG_1_INTS_M
   66     0    12     0     0
SMALL
NO_CHARGES


@<TRIPOS>ATOM
      1 O          -3.3465   -8.4590   29.5585 O.2       1 ALC1        0.0000 
      2 O          -2.2210   -8.2840   28.7110 O.2       9 ALL1        0.0000 
      3 O          -4.4720   -8.6340   30.4060 O.2       5 ALP1        0.0000 
      4 CA          0.7995   -6.2590   27.6985 C.3       4 GLC5        0.0000 
      5 CA         -1.1750   -6.7180   27.3000 C.3      12 GLL5        0.0000 
      6 CA          2.7740   -5.8000   28.0970 C.3       8 GLP5        0.0000 
      7 CA         -1.2775   -4.7825   28.4135 C.3       4 GLC5        0.0000 
      8 CA         -1.3800   -2.8470   29.5270 C.3       8 GLP5        0.0000 
      9 CA         -2.9560   -6.8990   26.8590 C.3       4 GLC5        0.0000 
     10 CA         -4.7370   -7.0800   26.4180 C.3       8 GLP5        0.0000 
     11 CA          0.6340   -8.0310   28.0930 C.3       4 GLC5        0.0000 
     12 CA         -0.7230   -7.7210   26.5750 C.3      12 GLL5        0.0000 
     13 CA          1.9910   -8.3410   29.6110 C.3       8 GLP5        0.0000 
     14 CA         -2.6935   -8.0730   26.3430 C.3       4 GLC5        0.0000 
     15 CA         -4.6640   -8.4250   26.1110 C.3       8 GLP5        0.0000 
     16 N          -3.3745  -11.0080   28.4785 N.am      2 SEC2        0.0000 
     17 N          -2.0280  -10.5020   28.2760 N.am     10 SEL2        0.0000 
     18 N          -4.7210  -11.5140   28.6810 N.am      6 SEP2        0.0000 
     19 CA          0.2425  -11.7825   26.7985 C.3       4 GLC5        0.0000 
     20 CA         -0.4590  -10.0940   26.0280 C.3      12 GLL5        0.0000 
     21 CA          0.9440  -13.4710   27.5690 C.3       8 GLP5        0.0000 
     22 CA         -2.8225   -9.2765   25.3585 C.3       4 GLC5        0.0000 
     23 CA         -0.9810  -10.1280   24.6060 C.3      12 GLL5        0.0000 
     24 O          -2.4735  -10.5720   23.0480 O.2       1 ALC1        0.0000 
     25 O          -2.1820  -10.9030   24.4690 O.2       9 ALL1        0.0000 
     26 O          -2.7650  -10.2410   21.6270 O.2       5 ALP1        0.0000 
     27 CA          1.1665  -11.8845   26.1030 C.3       4 GLC5        0.0000 
     28 CA          1.3890  -10.2980   24.6370 C.3      12 GLL5        0.0000 
     29 CA          2.6910   -8.1760   25.9085 C.3       4 GLC5        0.0000 
     30 CA          2.1650   -9.1320   24.0810 C.3      12 GLL5        0.0000 
     31 CA          3.2170   -7.2200   27.7360 C.3       8 GLP5        0.0000 
     32 N           3.2015   -4.5725   23.3615 N.am      2 SEC2        0.0000 
     33 N           3.0400   -6.0330   24.0580 N.am     10 SEL2        0.0000 
     34 N           3.3630   -3.1120   22.6650 N.am      6 SEP2        0.0000 
     35 N           2.8725   -5.5005   25.4780 N.am      2 SEC2        0.0000 
     36 N           2.7050   -4.9680   26.8980 N.am      6 SEP2        0.0000 
     37 N          -0.6155   -6.5380   22.9580 N.am      2 SEC2        0.0000 
     38 N           0.7450   -5.6370   23.2370 N.am     10 SEL2        0.0000 
     39 N          -1.9760   -7.4390   22.6790 N.am      6 SEP2        0.0000 
     40 NZ          2.3700  -10.3235   20.3650 N.4       3 LYC4        0.0000 
     41 NZ          2.4290   -8.8930   20.3040 N.4      11 LYL4        0.0000 
     42 NZ          1.3400  -12.6590   20.3720 N.4       7 LYP4        0.0000 
     43 N           3.9735   -8.8560   20.8025 N.am      2 SEC2        0.0000 
     44 N           2.4290   -8.8930   20.3040 N.am     10 SEL2        0.0000 
     45 N           5.5180   -8.8190   21.3010 N.am      6 SEP2        0.0000 
     46 N           2.3700  -10.3235   20.3650 N.am      2 SEC2        0.0000 
     47 N           2.3110  -11.7540   20.4260 N.am      6 SEP2        0.0000 
     48 N           4.5625   -4.7300   14.7610 N.am      2 SEC2        0.0000 
     49 N           3.8990   -4.0180   15.8040 N.am     10 SEL2        0.0000 
     50 N           5.2260   -5.4420   13.7180 N.am      6 SEP2        0.0000 
     51 N           4.1675   -2.7400   14.7445 N.am      2 SEC2        0.0000 
     52 N           4.4360   -1.4620   13.6850 N.am      6 SEP2        0.0000 
     53 N           5.8760   -7.0500   14.1860 N.am      2 SEC2        0.0000 
     54 N           5.1220   -6.5660   15.6290 N.am     10 SEL2        0.0000 
     55 N           6.6300   -7.5340   12.7430 N.am      6 SEP2        0.0000 
     56 CA          2.7887  -10.9706   23.1220 C.3       4 GLC5        0.0000 
     57 CA          4.0980  -12.1190   22.0940 C.3       8 GLP5        0.0000 
     58 CA          0.8353   -3.7973   17.5315 C.3       4 GLC5        0.0000 
     59 CA          2.4860   -3.9410   19.3600 C.3      12 GLL5        0.0000 
     60 CA         -0.8850   -3.8170   16.4520 C.3       8 GLP5        0.0000 
     61 CA          2.8110   -3.2425   15.5240 C.3       4 GLC5        0.0000 
     62 CA          2.6250   -3.6140   17.8620 C.3      12 GLL5        0.0000 
     63 CA          2.3530   -2.6040   13.4990 C.3       8 GLP5        0.0000 
     64 CA          5.9750   -4.5219   17.0541 C.3       4 GLC5        0.0000 
     65 CA          3.9130   -4.1480   17.2360 C.3      12 GLL5        0.0000 
     66 CA          7.3110   -3.4340   16.8500 C.3       8 GLP5        0.0000 
@<TRIPOS>BOND
@<TRIPOS>SUBSTRUCTURE
     1 ALC1        1 GROUP        1 X    ALC  0     ROOT ALC X 1
     2 SEC2       16 GROUP        1 X    SEC  0     **** SEC X 2
     3 LYC4       40 GROUP        1 X    LYC  0     **** LYC X 4
     4 GLC5        4 GROUP        1 X    GLC  0     **** GLC X 6
     5 ALP1        3 GROUP        1 Y    ALP  0     ROOT ALP Y 8
     6 SEP2       18 GROUP        1 Y    SEP  0     **** SEP Y 9
     7 LYP4       42 GROUP        1 Y    LYP  0     **** LYP Y 11
     8 GLP5        6 GROUP        1 Y    GLP  0     **** GLP Y 13
     9 ALL1        2 GROUP        1 Z    ALL  0     ROOT ALL Z 15
    10 SEL2       17 GROUP        1 Z    SEL  0     **** SEL Z 16
    11 LYL4       41 GROUP        1 Z    LYL  0     **** LYL Z 18
    12 GLL5        5 GROUP        1 Z    GLL  0     **** GLL Z 20
@<TRIPOS>SET

