#    Name: 4lis_UPG_1_ligand
#    Modification time : Tue Mar 25 10:02:59 2014

@<TRIPOS>MOLECULE
4lis_UPG_1_ligand
   58    60     1     0     0
SMALL
NO_CHARGES


@<TRIPOS>ATOM
      1 N1         -0.9890   -9.0300   26.8690 N.am      1 UPG401      0.0000 
      2 C2         -1.7630   -9.3570   27.9690 C.2       1 UPG401      0.0000 
      3 N3         -2.2210   -8.2840   28.7110 N.am      1 UPG401      0.0000 
      4 C4         -1.9830   -6.9360   28.4590 C.2       1 UPG401      0.0000 
      5 C5         -1.1750   -6.7180   27.3000 C.2       1 UPG401      0.0000 
      6 C6         -0.7230   -7.7210   26.5750 C.2       1 UPG401      0.0000 
      7 O2         -2.0280  -10.5020   28.2760 O.2       1 UPG401      0.0000 
      8 O4         -2.4560   -6.0950   29.2030 O.2       1 UPG401      0.0000 
      9 C1C        -0.4590  -10.0940   26.0280 C.3       1 UPG401      0.0000 
     10 C2C        -0.9810  -10.1280   24.6060 C.3       1 UPG401      0.0000 
     11 O2C        -2.1820  -10.9030   24.4690 O.3       1 UPG401      0.0000 
     12 C3C         0.1990  -10.7270   23.8010 C.3       1 UPG401      0.0000 
     13 C4C         1.3890  -10.2980   24.6370 C.3       1 UPG401      0.0000 
     14 O4C         0.9030   -9.9410   25.9630 O.3       1 UPG401      0.0000 
     15 O3C         0.1820  -12.1430   23.7030 O.3       1 UPG401      0.0000 
     16 C5C         2.1650   -9.1320   24.0810 C.3       1 UPG401      0.0000 
     17 O5C         1.3120   -7.9570   24.0490 O.3       1 UPG401      0.0000 
     18 PA          1.8560   -6.5900   23.3910 P.3       1 UPG401      0.0000 
     19 O1A         3.0400   -6.0330   24.0580 O.co2     1 UPG401      0.0000 
     20 O2A         0.7450   -5.6370   23.2370 O.co2     1 UPG401      0.0000 
     21 O3A         2.4440   -7.0910   21.9480 O.3       1 UPG401      0.0000 
     22 PB          1.7590   -7.6200   20.6410 P.3       1 UPG401      0.0000 
     23 O1B         0.3020   -7.7400   20.7410 O.co2     1 UPG401      0.0000 
     24 O2B         2.4290   -8.8930   20.3040 O.co2     1 UPG401      0.0000 
     25 O3B         2.0270   -6.4160   19.5430 O.3       1 UPG401      0.0000 
     26 C1'         2.9530   -5.3580   19.8030 C.3       1 UPG401      0.0000 
     27 C2'         2.4860   -3.9410   19.3600 C.3       1 UPG401      0.0000 
     28 C3'         2.6250   -3.6140   17.8620 C.3       1 UPG401      0.0000 
     29 C4'         3.9130   -4.1480   17.2360 C.3       1 UPG401      0.0000 
     30 C5'         4.0610   -5.6190   17.6610 C.3       1 UPG401      0.0000 
     31 C6'         5.2910   -6.3360   17.0680 C.3       1 UPG401      0.0000 
     32 O2'         1.1030   -3.6520   19.7010 O.3       1 UPG401      0.0000 
     33 O3'         2.5320   -2.1960   17.5680 O.3       1 UPG401      0.0000 
     34 O4'         3.8990   -4.0180   15.8040 O.3       1 UPG401      0.0000 
     35 O5'         4.1570   -5.6820   19.1070 O.3       1 UPG401      0.0000 
     36 O6'         5.1220   -6.5660   15.6290 O.3       1 UPG401      0.0000 
     37 H          -2.8245   -8.5110   29.5737 H         1 UPG401      0.0000 
     38 H          -0.9645   -5.7211   27.0622 H         1 UPG401      0.0000 
     39 H          -0.1223   -7.5259   25.7182 H         1 UPG401      0.0000 
     40 H          -0.6989  -11.0668   26.4846 H         1 UPG401      0.0000 
     41 H          -1.0963   -9.1106   24.2730 H         1 UPG401      0.0000 
     42 H           0.2553  -10.2179   22.8748 H         1 UPG401      0.0000 
     43 H           2.0631  -11.1516   24.7354 H         1 UPG401      0.0000 
     44 H           2.5126   -9.3893   23.0765 H         1 UPG401      0.0000 
     45 H           3.0412   -8.9609   24.7126 H         1 UPG401      0.0000 
     46 H           3.1733   -5.2991   20.8738 H         1 UPG401      0.0000 
     47 H           3.1257   -3.1983   19.8939 H         1 UPG401      0.0000 
     48 H           1.7897   -4.1337   17.3360 H         1 UPG401      0.0000 
     49 H           4.7412   -3.6027   17.6764 H         1 UPG401      0.0000 
     50 H           3.1719   -6.1578   17.3382 H         1 UPG401      0.0000 
     51 H           5.4195   -7.2827   17.6030 H         1 UPG401      0.0000 
     52 H           6.1706   -5.7140   17.2640 H         1 UPG401      0.0000 
     53 H          -2.4948  -10.7324   23.5346 H         1 UPG401      0.0000 
     54 H          -0.7518  -12.4077   23.9437 H         1 UPG401      0.0000 
     55 H           1.1431   -3.2251   20.6044 H         1 UPG401      0.0000 
     56 H           1.5865   -2.0541   17.2747 H         1 UPG401      0.0000 
     57 H           3.0232   -4.4065   15.5175 H         1 UPG401      0.0000 
     58 H           4.6464   -5.7537   15.2913 H         1 UPG401      0.0000 
@<TRIPOS>BOND
     1    2    1 1    
     2    6    1 1    
     3    9    1 1    
     4    3    2 1    
     5    7    2 2    
     6    4    3 1    
     7   37    3 1    
     8    5    4 1    
     9    8    4 2    
    10    6    5 2    
    11   38    5 1    
    12   39    6 1    
    13   10    9 1    
    14   14    9 1    
    15   40    9 1    
    16   11   10 1    
    17   12   10 1    
    18   41   10 1    
    19   53   11 1    
    20   13   12 1    
    21   15   12 1    
    22   42   12 1    
    23   14   13 1    
    24   16   13 1    
    25   43   13 1    
    26   54   15 1    
    27   17   16 1    
    28   44   16 1    
    29   45   16 1    
    30   18   17 1    
    31   19   18 ar   
    32   20   18 ar   
    33   21   18 1    
    34   22   21 1    
    35   23   22 ar   
    36   24   22 ar   
    37   25   22 1    
    38   26   25 1    
    39   27   26 1    
    40   35   26 1    
    41   46   26 1    
    42   28   27 1    
    43   32   27 1    
    44   47   27 1    
    45   29   28 1    
    46   33   28 1    
    47   48   28 1    
    48   30   29 1    
    49   34   29 1    
    50   49   29 1    
    51   31   30 1    
    52   35   30 1    
    53   50   30 1    
    54   36   31 1    
    55   51   31 1    
    56   52   31 1    
    57   55   32 1    
    58   56   33 1    
    59   57   34 1    
    60   58   36 1    
@<TRIPOS>SUBSTRUCTURE
     1 UPG401      1 GROUP   
@<TRIPOS>SET

