#    Name: 3sr4_TT8_1_INTS_M
#    Modification time : Mon Mar 24 18:05:36 2014

@<TRIPOS>MOLECULE
3sr4_TT8_1_INTS_M
   82     0    12     0     0
SMALL
NO_CHARGES


@<TRIPOS>ATOM
      1 OD1        41.7550   49.6340    1.0650 O.co2     3 ASC3        0.0000 
      2 OD1        41.8210   51.1390    1.6040 O.co2    11 ASL3        0.0000 
      3 OD1        41.6890   48.1290    0.5260 O.co2     7 ASP3        0.0000 
      4 OD1        40.9190   50.3010    0.8295 O.co2     3 ASC3        0.0000 
      5 OD1        40.0170   49.4630    0.0550 O.co2     7 ASP3        0.0000 
      6 O          40.9190   50.3010    0.8295 O.2       1 ALC1        0.0000 
      7 O          41.8210   51.1390    1.6040 O.2       9 ALL1        0.0000 
      8 O          40.0170   49.4630    0.0550 O.2       5 ALP1        0.0000 
      9 O          42.1025   50.2925    2.6940 O.2       1 ALC1        0.0000 
     10 O          42.3840   49.4460    3.7840 O.2       5 ALP1        0.0000 
     11 N          43.3895   53.8695   -0.7290 N.am      2 SEC2        0.0000 
     12 N          42.6880   53.1120    0.0640 N.am     10 SEL2        0.0000 
     13 N          44.0910   54.6270   -1.5220 N.am      6 SEP2        0.0000 
     14 CA         47.3380   43.1720    7.7455 C.3       4 GLC5        0.0000 
     15 CA         47.5070   43.5170    9.6100 C.3      12 GLL5        0.0000 
     16 CA         47.1690   42.8270    5.8810 C.3       8 GLP5        0.0000 
     17 CA         48.6195   41.9680    9.2800 C.3       4 GLC5        0.0000 
     18 CA         49.7320   40.4190    8.9500 C.3       8 GLP5        0.0000 
     19 N          43.5875   42.2395    8.1705 N.am      2 SEC2        0.0000 
     20 N          43.8450   43.6580    8.6140 N.am     10 SEL2        0.0000 
     21 N          43.3300   40.8210    7.7270 N.am      6 SEP2        0.0000 
     22 CA         42.7505   45.9170    6.5220 C.3       4 GLC5        0.0000 
     23 CA         42.8050   44.4990    8.1900 C.3      12 GLL5        0.0000 
     24 CA         42.6960   47.3350    4.8540 C.3       8 GLP5        0.0000 
     25 CA         41.0495   43.3740    7.3695 C.3       4 GLC5        0.0000 
     26 CA         39.2940   42.2490    6.5490 C.3       8 GLP5        0.0000 
     27 CA         41.0675   45.4645    7.9815 C.3       4 GLC5        0.0000 
     28 CA         39.3300   46.4300    7.7730 C.3       8 GLP5        0.0000 
     29 CA         42.5420   44.9015    9.7790 C.3       4 GLC5        0.0000 
     30 CA         42.2790   45.3040   11.3680 C.3       8 GLP5        0.0000 
     31 CA         42.6470   42.6955    9.1075 C.3       4 GLC5        0.0000 
     32 CA         42.4890   40.8920   10.0250 C.3       8 GLP5        0.0000 
     33 N          41.8225   45.9970    8.9440 N.am      2 SEC2        0.0000 
     34 N          43.0890   45.8580    8.0330 N.am     10 SEL2        0.0000 
     35 N          40.5560   46.1360    9.8550 N.am      6 SEP2        0.0000 
     36 CA         43.5210   46.8495    6.5680 C.3       4 GLC5        0.0000 
     37 CA         44.3460   46.3640    8.2820 C.3      12 GLL5        0.0000 
     38 CA         43.8110   42.5150    9.4505 C.3       4 GLC5        0.0000 
     39 CA         45.1330   44.1380    8.8760 C.3      12 GLL5        0.0000 
     40 O          45.6960   41.8275    9.7485 O.2       1 ALC1        0.0000 
     41 O          46.0760   43.2570    9.2760 O.2       9 ALL1        0.0000 
     42 O          45.3160   40.3980   10.2210 O.2       5 ALP1        0.0000 
     43 CA         40.5700   50.7700    2.7345 C.3       4 GLC5        0.0000 
     44 CA         41.5150   52.5300    2.0760 C.3      12 GLL5        0.0000 
     45 CA         39.6250   49.0100    3.3930 C.3       8 GLP5        0.0000 
     46 CA         40.6760   52.6125    0.0985 C.3       4 GLC5        0.0000 
     47 CA         39.8370   52.6950   -1.8790 C.3       8 GLP5        0.0000 
     48 CA         41.4255   54.1010    5.1055 C.3       4 GLC5        0.0000 
     49 CA         42.2020   52.8070    3.4450 C.3      12 GLL5        0.0000 
     50 CA         40.6490   55.3950    6.7660 C.3       8 GLP5        0.0000 
     51 CA         40.6485   52.2810    4.7210 C.3       4 GLC5        0.0000 
     52 CA         39.0950   51.7550    5.9970 C.3       8 GLP5        0.0000 
     53 CA         44.7395   54.3715    6.6190 C.3       4 GLC5        0.0000 
     54 CA         44.5390   53.0040    5.0270 C.3      12 GLL5        0.0000 
     55 CA         44.9400   55.7390    8.2110 C.3       8 GLP5        0.0000 
     56 CA         44.7835   55.2285    4.9230 C.3       4 GLC5        0.0000 
     57 CA         45.0280   57.4530    4.8190 C.3       8 GLP5        0.0000 
     58 CA         45.0950   52.3180    2.1055 C.3       4 GLC5        0.0000 
     59 CA         43.7410   52.6700    3.4400 C.3      12 GLL5        0.0000 
     60 CA         46.4490   51.9660    0.7710 C.3       8 GLP5        0.0000 
     61 CA         43.3960   48.0775    6.3125 C.3       4 GLC5        0.0000 
     62 CA         44.0960   48.8200    7.7710 C.3      12 GLL5        0.0000 
     63 CA         45.6885   50.5440   10.1760 C.3       4 GLC5        0.0000 
     64 CA         44.2880   50.0150    8.6790 C.3      12 GLL5        0.0000 
     65 CA         47.0890   51.0730   11.6730 C.3       8 GLP5        0.0000 
     66 O          42.1975   49.7995    8.7305 O.2       1 ALC1        0.0000 
     67 O          43.4780   49.9340    9.8240 O.2       9 ALL1        0.0000 
     68 O          40.9170   49.6650    7.6370 O.2       5 ALP1        0.0000 
     69 O          42.2765   49.4310    9.7640 O.2       1 ALC1        0.0000 
     70 O          41.0750   48.9280    9.7040 O.2       5 ALP1        0.0000 
     71 O          41.7740   50.6895    7.8175 O.2       1 ALC1        0.0000 
     72 O          42.6310   51.7140    7.9980 O.2       9 ALL1        0.0000 
     73 CA         43.3900   48.9780    5.6050 C.3       4 GLC5        0.0000 
     74 CA         44.0840   50.6210    6.3560 C.3      12 GLL5        0.0000 
     75 N          42.1920   55.7650    0.3645 N.am      2 SEC2        0.0000 
     76 N          41.5690   54.6990    0.9840 N.am     10 SEL2        0.0000 
     77 N          42.8150   56.8310   -0.2550 N.am      6 SEP2        0.0000 
     78 N          40.3000   55.1365    0.6910 N.am      2 SEC2        0.0000 
     79 N          39.0310   55.5740    0.3980 N.am      6 SEP2        0.0000 
     80 CA         43.6401   45.1720   10.0267 C.3       4 GLC5        0.0000 
     81 CA         46.3498   49.8745    5.8080 C.3       4 GLC5        0.0000 
     82 CA         48.0920   48.7520    5.6650 C.3       8 GLP5        0.0000 
@<TRIPOS>BOND
@<TRIPOS>SUBSTRUCTURE
     1 ALC1        6 GROUP        1 X    ALC  0     ROOT ALC X 1
     2 SEC2       11 GROUP        1 X    SEC  0     **** SEC X 2
     3 ASC3        1 GROUP        1 X    ASC  0     **** ASC X 3
     4 GLC5       14 GROUP        1 X    GLC  0     **** GLC X 6
     5 ALP1        8 GROUP        1 Y    ALP  0     ROOT ALP Y 8
     6 SEP2       13 GROUP        1 Y    SEP  0     **** SEP Y 9
     7 ASP3        3 GROUP        1 Y    ASP  0     **** ASP Y 10
     8 GLP5       16 GROUP        1 Y    GLP  0     **** GLP Y 13
     9 ALL1        7 GROUP        1 Z    ALL  0     ROOT ALL Z 15
    10 SEL2       12 GROUP        1 Z    SEL  0     **** SEL Z 16
    11 ASL3        2 GROUP        1 Z    ASL  0     **** ASL Z 17
    12 GLL5       15 GROUP        1 Z    GLL  0     **** GLL Z 20
@<TRIPOS>SET

