#    Name: 3sr4_TT8_1_ligand
#    Modification time : Mon Mar 24 18:05:36 2014

@<TRIPOS>MOLECULE
3sr4_TT8_1_ligand
   49    51     1     0     0
SMALL
NO_CHARGES


@<TRIPOS>ATOM
      1 C          41.9410   53.5070    0.9770 C.2       1 TT8417      0.0000 
      2 N          41.8210   51.1390    1.6040 N.4       1 TT8417      0.0000 
      3 O          42.6880   53.1120    0.0640 O.co2     1 TT8417      0.0000 
      4 C1         47.5070   43.5170    9.6100 C.3       1 TT8417      0.0000 
      5 N1         43.8450   43.6580    8.6140 N.ar      1 TT8417      0.0000 
      6 C2         42.8050   44.4990    8.1900 C.ar      1 TT8417      0.0000 
      7 N3         43.0890   45.8580    8.0330 N.ar      1 TT8417      0.0000 
      8 C4         44.3460   46.3640    8.2820 C.ar      1 TT8417      0.0000 
      9 C5         45.3930   45.5200    8.7080 C.ar      1 TT8417      0.0000 
     10 C6         45.1330   44.1380    8.8760 C.ar      1 TT8417      0.0000 
     11 N6         46.0760   43.2570    9.2760 N.pl3     1 TT8417      0.0000 
     12 N7         46.4920   46.2840    8.8670 N.2       1 TT8417      0.0000 
     13 C8         46.1950   47.5650    8.5630 C.2       1 TT8417      0.0000 
     14 N9         44.8630   47.6280    8.1970 N.pl3     1 TT8417      0.0000 
     15 CA         41.5150   52.5300    2.0760 C.3       1 TT8417      0.0000 
     16 CB         42.2020   52.8070    3.4450 C.3       1 TT8417      0.0000 
     17 SD         44.5390   53.0040    5.0270 S.3       1 TT8417      0.0000 
     18 CG         43.7410   52.6700    3.4400 C.3       1 TT8417      0.0000 
     19 C1'        44.0960   48.8200    7.7710 C.3       1 TT8417      0.0000 
     20 C2'        44.2880   50.0150    8.6790 C.3       1 TT8417      0.0000 
     21 O2'        43.4780   49.9340    9.8240 O.3       1 TT8417      0.0000 
     22 C3'        43.9240   51.1840    7.7670 C.3       1 TT8417      0.0000 
     23 O3'        42.6310   51.7140    7.9980 O.3       1 TT8417      0.0000 
     24 C4'        44.0840   50.6210    6.3560 C.3       1 TT8417      0.0000 
     25 O4'        44.5190   49.2700    6.4920 O.3       1 TT8417      0.0000 
     26 C5'        45.1310   51.3730    5.5460 C.3       1 TT8417      0.0000 
     27 OXT        41.5690   54.6990    0.9840 O.co2     1 TT8417      0.0000 
     28 H          41.8829   44.1317    8.0052 H         1 TT8417      0.0000 
     29 H          45.8091   42.2146    9.3836 H         1 TT8417      0.0000 
     30 H          46.7910   48.3156    8.5900 H         1 TT8417      0.0000 
     31 H          40.4407   52.6182    2.2120 H         1 TT8417      0.0000 
     32 H          41.7848   52.1118    4.1908 H         1 TT8417      0.0000 
     33 H          41.9360   53.8260    3.7681 H         1 TT8417      0.0000 
     34 H          44.2225   53.3770    2.7798 H         1 TT8417      0.0000 
     35 H          44.0717   51.6661    3.2158 H         1 TT8417      0.0000 
     36 H          43.0356   48.5954    7.7481 H         1 TT8417      0.0000 
     37 H          45.3383   50.0906    8.8902 H         1 TT8417      0.0000 
     38 H          44.7108   51.9313    7.8886 H         1 TT8417      0.0000 
     39 H          43.1430   50.6720    5.8533 H         1 TT8417      0.0000 
     40 H          46.0120   51.6158    6.1028 H         1 TT8417      0.0000 
     41 H          45.3674   50.9074    4.6119 H         1 TT8417      0.0000 
     42 H          41.0502   50.7363    1.1103 H         1 TT8417      0.0000 
     43 H          42.6067   51.1211    0.9856 H         1 TT8417      0.0000 
     44 H          42.0332   50.5267    2.3656 H         1 TT8417      0.0000 
     45 H          47.9824   42.6808    9.8834 H         1 TT8417      0.0000 
     46 H          48.0068   43.8972    8.8318 H         1 TT8417      0.0000 
     47 H          47.6002   44.1671   10.3641 H         1 TT8417      0.0000 
     48 H          42.6316   49.5024    9.5121 H         1 TT8417      0.0000 
     49 H          42.0075   50.9446    7.8592 H         1 TT8417      0.0000 
@<TRIPOS>BOND
     1    3    1 ar   
     2   15    1 1    
     3   27    1 ar   
     4   15    2 1    
     5   42    2 1    
     6   43    2 1    
     7   44    2 1    
     8   11    4 1    
     9   45    4 1    
    10   46    4 1    
    11   47    4 1    
    12    6    5 ar   
    13   10    5 ar   
    14    7    6 ar   
    15   28    6 1    
    16    8    7 ar   
    17    9    8 ar   
    18   14    8 1    
    19   10    9 ar   
    20   12    9 1    
    21   11   10 1    
    22   29   11 1    
    23   13   12 2    
    24   14   13 1    
    25   30   13 1    
    26   19   14 1    
    27   16   15 1    
    28   31   15 1    
    29   18   16 1    
    30   32   16 1    
    31   33   16 1    
    32   18   17 1    
    33   26   17 1    
    34   34   18 1    
    35   35   18 1    
    36   20   19 1    
    37   25   19 1    
    38   36   19 1    
    39   21   20 1    
    40   22   20 1    
    41   37   20 1    
    42   48   21 1    
    43   23   22 1    
    44   24   22 1    
    45   38   22 1    
    46   49   23 1    
    47   25   24 1    
    48   26   24 1    
    49   39   24 1    
    50   40   26 1    
    51   41   26 1    
@<TRIPOS>SUBSTRUCTURE
     1 TT8417      1 GROUP   
@<TRIPOS>SET

