#    Name: 2OS3_1_CAVITY_N1_6.mol2
#    Modification time : Tue Mar 11 03:47:15 2014

@<TRIPOS>MOLECULE
2OS3_1_CAVITY_N1_6.mol2
   75     0     6     0     0
SMALL
NO_CHARGES


@<TRIPOS>ATOM
      1 O         -18.3126  -90.5444   56.8537 O.2       2 ALA2        0.0000 
      2 CA        -17.8822  -90.7410   54.7859 C.3       5 GLY6        0.0000 
      3 CA        -22.3909  -90.0270   59.2200 C.3       5 GLY6        0.0000 
      4 N         -21.2029  -89.7366   58.3516 N.2       2 ALA2        0.0000 
      5 O         -20.0148  -89.4461   57.4831 O.2       2 ALA2        0.0000 
      6 OG        -24.3367  -90.8044   58.8890 O.2       1 SER1        0.0000 
      7 OG        -23.1486  -90.5140   58.0206 O.2       1 SER1        0.0000 
      8 DU        -21.9606  -90.2236   57.1521 H         6 CUB7        0.0000 
      9 O         -20.7725  -89.9332   56.2837 O.2       2 ALA2        0.0000 
     10 CA        -19.5845  -89.6427   55.4153 C.3       5 GLY6        0.0000 
     11 DU        -23.9064  -91.0010   56.8211 H         6 CUB7        0.0000 
     12 DU        -22.7183  -90.7106   55.9527 H         6 CUB7        0.0000 
     13 DU        -21.5302  -90.4202   55.0843 H         6 CUB7        0.0000 
     14 DU        -20.3422  -90.1298   54.2158 H         6 CUB7        0.0000 
     15 O         -19.1541  -89.8393   53.3474 O.2       2 ALA2        0.0000 
     16 O         -19.9119  -90.3264   52.1479 O.2       2 ALA2        0.0000 
     17 CA        -20.6696  -90.8134   50.9485 C.3       5 GLY6        0.0000 
     18 CA        -20.9594  -87.8608   59.3120 C.3       5 GLY6        0.0000 
     19 CA        -22.9051  -88.6383   58.9810 C.3       5 GLY6        0.0000 
     20 DU        -21.7171  -88.3479   58.1126 H         6 CUB7        0.0000 
     21 O         -20.5290  -88.0574   57.2441 O.2       2 ALA2        0.0000 
     22 OG        -23.6628  -89.1253   57.7815 O.2       1 SER1        0.0000 
     23 DU        -22.4748  -88.8349   56.9131 H         6 CUB7        0.0000 
     24 N         -21.2867  -88.5445   56.0447 N.2       2 ALA2        0.0000 
     25 N         -20.0987  -88.2540   55.1762 N.2       2 ALA2        0.0000 
     26 OG        -24.4206  -89.6123   56.5821 O.2       1 SER1        0.0000 
     27 DU        -23.2325  -89.3219   55.7137 H         6 CUB7        0.0000 
     28 N         -22.0444  -89.0315   54.8452 N.2       2 ALA2        0.0000 
     29 N         -20.8564  -88.7411   53.9768 N.2       2 ALA2        0.0000 
     30 O         -19.6683  -88.4507   53.1083 O.2       2 ALA2        0.0000 
     31 OG        -26.3663  -90.3898   56.2511 O.2       1 SER1        0.0000 
     32 CA        -25.1783  -90.0994   55.3826 C.3       5 GLY6        0.0000 
     33 N         -23.9902  -89.8089   54.5142 N.2       2 ALA2        0.0000 
     34 N         -21.6141  -89.2281   52.7773 N.2       2 ALA2        0.0000 
     35 N         -20.4261  -88.9377   51.9089 N.2       2 ALA2        0.0000 
     36 OD1       -19.2380  -88.6473   51.0405 O.3       3 ASP3        0.0000 
     37 N         -21.1838  -89.4247   50.7094 N.2       2 ALA2        0.0000 
     38 CA        -21.4735  -86.4722   59.0730 C.3       5 GLY6        0.0000 
     39 CA        -20.2855  -86.1817   58.2045 C.3       5 GLY6        0.0000 
     40 OG        -23.4193  -87.2496   58.7420 O.2       1 SER1        0.0000 
     41 DU        -22.2313  -86.9592   57.8735 H         6 CUB7        0.0000 
     42 N         -21.0432  -86.6688   57.0051 N.2       2 ALA2        0.0000 
     43 OG        -24.1770  -87.7366   57.5425 O.2       1 SER1        0.0000 
     44 CA        -22.9890  -87.4462   56.6741 C.3       5 GLY6        0.0000 
     45 N         -21.8009  -87.1558   55.8056 N.2       2 ALA2        0.0000 
     46 CA        -24.9347  -88.2236   56.3431 C.3       5 GLY6        0.0000 
     47 CA        -23.7467  -87.9332   55.4746 C.3       5 GLY6        0.0000 
     48 DU        -22.5586  -87.6428   54.6062 H         6 CUB7        0.0000 
     49 N         -21.3706  -87.3524   53.7377 N.2       2 ALA2        0.0000 
     50 N         -20.1825  -87.0620   52.8693 N.2       2 ALA2        0.0000 
     51 O         -24.5044  -88.4202   54.2752 O.2       2 ALA2        0.0000 
     52 N         -23.3164  -88.1298   53.4067 N.2       2 ALA2        0.0000 
     53 N         -22.1283  -87.8394   52.5383 N.2       2 ALA2        0.0000 
     54 CA        -20.9403  -87.5490   51.6699 C.3       5 GLY6        0.0000 
     55 CA        -23.1758  -85.3739   59.7024 C.3       5 GLY6        0.0000 
     56 NZ        -21.9877  -85.0835   58.8339 N.2       4 LYS4        0.0000 
     57 O         -20.7997  -84.7930   57.9655 O.2       2 ALA2        0.0000 
     58 CA        -23.9335  -85.8609   58.5029 C.3       5 GLY6        0.0000 
     59 CA        -22.7455  -85.5705   57.6345 C.3       5 GLY6        0.0000 
     60 N         -21.5574  -85.2801   56.7660 N.2       2 ALA2        0.0000 
     61 CA        -23.5032  -86.0575   56.4350 C.3       5 GLY6        0.0000 
     62 CA        -22.3151  -85.7671   55.5666 C.3       5 GLY6        0.0000 
     63 N         -21.1271  -85.4767   54.6982 N.2       2 ALA2        0.0000 
     64 O         -23.0728  -86.2541   54.3671 O.2       2 ALA2        0.0000 
     65 DU        -21.8848  -85.9637   53.4987 H         6 CUB7        0.0000 
     66 CA        -20.6967  -85.6733   52.6303 C.3       5 GLY6        0.0000 
     67 CA        -22.6425  -86.4507   52.2993 C.3       5 GLY6        0.0000 
     68 CA        -22.5019  -83.6948   58.5949 C.3       5 GLY6        0.0000 
     69 CA        -23.2597  -84.1818   57.3954 C.3       5 GLY6        0.0000 
     70 CA        -22.0716  -83.8914   56.5270 C.3       5 GLY6        0.0000 
     71 CA        -22.8293  -84.3784   55.3276 C.3       5 GLY6        0.0000 
     72 N         -21.6413  -84.0880   54.4591 N.2       2 ALA2        0.0000 
     73 O         -23.5870  -84.8654   54.1281 O.2       2 ALA2        0.0000 
     74 N         -22.3990  -84.5750   53.2597 N.2       2 ALA2        0.0000 
     75 CA        -21.2109  -84.2846   52.3912 C.3       5 GLY6        0.0000 
@<TRIPOS>BOND
@<TRIPOS>SUBSTRUCTURE
     1 SER1        6 GROUP   
     2 ALA2        1 GROUP   
     3 ASP3       36 GROUP   
     4 LYS4       56 GROUP   
     5 GLY6        2 GROUP   
     6 CUB7        8 GROUP   
@<TRIPOS>SET

