#    Name: 2os3_BB2_1_INTS_M
#    Modification time : Mon Mar 24 17:49:44 2014

@<TRIPOS>MOLECULE
2os3_BB2_1_INTS_M
   67     0    12     0     0
SMALL
NO_CHARGES


@<TRIPOS>ATOM
      1 CA        -23.4505  -86.1065   51.9820 C.3       4 GLC5        0.0000 
      2 CA        -21.9070  -84.6250   52.6020 C.3      12 GLL5        0.0000 
      3 CA        -24.9940  -87.5880   51.3620 C.3       8 GLP5        0.0000 
      4 CA        -21.3030  -85.0880   51.0585 C.3       4 GLC5        0.0000 
      5 CA        -20.6990  -85.5510   49.5150 C.3       8 GLP5        0.0000 
      6 Zn        -19.1985  -82.8850   52.4885 Zn        3 ZIC7        0.0000 
      7 Zn        -19.8390  -83.7400   51.8470 Zn       11 ZIL7        0.0000 
      8 Zn        -18.5580  -82.0300   53.1300 Zn        7 ZIP7        0.0000 
      9 N         -19.3980  -82.5465   51.0095 N.am      2 SEC2        0.0000 
     10 N         -19.8390  -83.7400   51.8470 N.am     10 SEL2        0.0000 
     11 N         -18.9570  -81.3530   50.1720 N.am      6 SEP2        0.0000 
     12 N         -18.7840  -84.8300   51.2585 N.am      2 SEC2        0.0000 
     13 N         -17.7290  -85.9200   50.6700 N.am      6 SEP2        0.0000 
     14 O         -22.2100  -81.5105   53.4095 O.2       1 ALC1        0.0000 
     15 O         -21.3200  -82.2110   52.6430 O.2       9 ALL1        0.0000 
     16 O         -23.1000  -80.8100   54.1760 O.2       5 ALP1        0.0000 
     17 Zn        -19.5905  -81.6225   52.8030 Zn        3 ZIC7        0.0000 
     18 Zn        -20.6230  -81.2150   52.4760 Zn       11 ZIL7        0.0000 
     19 O         -21.7040  -80.1105   52.7180 O.2       1 ALC1        0.0000 
     20 O         -20.6230  -81.2150   52.4760 O.2       9 ALL1        0.0000 
     21 O         -22.7850  -79.0060   52.9600 O.2       5 ALP1        0.0000 
     22 O         -21.8615  -81.0125   53.3260 O.2       1 ALC1        0.0000 
     23 N         -24.6485  -86.6480   53.5465 N.am      2 SEC2        0.0000 
     24 N         -23.2750  -87.0340   53.9880 N.am     10 SEL2        0.0000 
     25 N         -26.0220  -86.2620   53.1050 N.am      6 SEP2        0.0000 
     26 CA        -21.2930  -82.7915   55.4790 C.3       4 GLC5        0.0000 
     27 CA        -22.3570  -84.3070   55.0650 C.3      12 GLL5        0.0000 
     28 CA        -20.2290  -81.2760   55.8930 C.3       8 GLP5        0.0000 
     29 CA        -21.7075  -82.4450   58.6030 C.3       4 GLC5        0.0000 
     30 CA        -22.2590  -84.1600   58.9440 C.3      12 GLL5        0.0000 
     31 CA        -21.1560  -80.7300   58.2620 C.3       8 GLP5        0.0000 
     32 CA        -22.4890  -86.6795   60.7890 C.3       4 GLC5        0.0000 
     33 CA        -22.5600  -85.5040   59.5270 C.3      12 GLL5        0.0000 
     34 CA        -22.4180  -87.8550   62.0510 C.3       8 GLP5        0.0000 
     35 CA        -24.4625  -86.1975   60.0190 C.3       4 GLC5        0.0000 
     36 CA        -26.3650  -86.8910   60.5110 C.3       8 GLP5        0.0000 
     37 O         -19.7940  -86.8490   55.0795 O.2       1 ALC1        0.0000 
     38 O         -21.2190  -87.5180   54.7230 O.2       9 ALL1        0.0000 
     39 O         -18.3690  -86.1800   55.4360 O.2       5 ALP1        0.0000 
     40 N         -19.0255  -88.2495   57.1935 N.am      2 SEC2        0.0000 
     41 N         -20.3530  -88.5450   57.1900 N.am     10 SEL2        0.0000 
     42 N         -17.6980  -87.9540   57.1970 N.am      6 SEP2        0.0000 
     43 O         -19.9335  -89.9545   60.9655 O.2       1 ALC1        0.0000 
     44 O         -20.9520  -90.6980   60.4190 O.2       9 ALL1        0.0000 
     45 O         -18.9150  -89.2110   61.5120 O.2       5 ALP1        0.0000 
     46 CA        -21.3775  -82.8870   57.1317 C.3       4 GLC5        0.0000 
     47 CA        -22.1230  -84.8070   56.5040 C.3      12 GLL5        0.0000 
     48 CA        -20.2810  -81.3960   57.2420 C.3       8 GLP5        0.0000 
     49 CA        -24.2523  -85.0325   56.3344 C.3       4 GLC5        0.0000 
     50 CA        -22.8250  -83.9490   57.5390 C.3      12 GLL5        0.0000 
     51 CA        -25.9720  -85.8120   56.0070 C.3       8 GLP5        0.0000 
     52 CA        -23.9130  -82.7982   58.8278 C.3       4 GLC5        0.0000 
     53 CA        -25.2840  -81.5420   59.4140 C.3       8 GLP5        0.0000 
     54 CA        -20.6878  -85.3065   59.9967 C.3       4 GLC5        0.0000 
     55 CA        -18.9660  -85.7810   60.7580 C.3       8 GLP5        0.0000 
     56 CA        -22.6743  -84.2110   60.9853 C.3       4 GLC5        0.0000 
     57 CA        -22.9390  -83.5900   62.7350 C.3       8 GLP5        0.0000 
     58 CA        -19.0155  -88.7750   55.3122 C.3       4 GLC5        0.0000 
     59 CA        -21.4310  -88.9200   55.0770 C.3      12 GLL5        0.0000 
     60 CA        -17.1200  -88.1630   55.8850 C.3       8 GLP5        0.0000 
     61 CA        -25.5783  -89.0275   59.0802 C.3       4 GLC5        0.0000 
     62 CA        -23.8390  -89.9230   59.0750 C.3      12 GLL5        0.0000 
     63 CA        -27.0420  -87.7720   59.6860 C.3       8 GLP5        0.0000 
     64 CA        -25.1002  -90.3050   60.2142 C.3       4 GLC5        0.0000 
     65 CA        -26.0860  -90.3270   61.9540 C.3       8 GLP5        0.0000 
     66 CA        -22.3599  -89.0913   60.5773 C.3       4 GLC5        0.0000 
     67 CA        -22.3600  -89.6890   58.7590 C.3      12 GLL5        0.0000 
@<TRIPOS>BOND
@<TRIPOS>SUBSTRUCTURE
     1 ALC1       14 GROUP        1 X    ALC  0     ROOT ALC X 1
     2 SEC2        9 GROUP        1 X    SEC  0     **** SEC X 2
     3 ZIC7        6 GROUP        1 X    ZIC  0     **** ZIC X 5
     4 GLC5        1 GROUP        1 X    GLC  0     **** GLC X 6
     5 ALP1       16 GROUP        1 Y    ALP  0     ROOT ALP Y 8
     6 SEP2       11 GROUP        1 Y    SEP  0     **** SEP Y 9
     7 ZIP7        8 GROUP        1 Y    ZIP  0     **** ZIP Y 12
     8 GLP5        3 GROUP        1 Y    GLP  0     **** GLP Y 13
     9 ALL1       15 GROUP        1 Z    ALL  0     ROOT ALL Z 15
    10 SEL2       10 GROUP        1 Z    SEL  0     **** SEL Z 16
    11 ZIL7        7 GROUP        1 Z    ZIL  0     **** ZIL Z 19
    12 GLL5        2 GROUP        1 Z    GLL  0     **** GLL Z 20
@<TRIPOS>SET

