#    Name: 2os3_BB2_1_ligand
#    Modification time : Mon Mar 24 17:49:44 2014

@<TRIPOS>MOLECULE
2os3_BB2_1_ligand
   62    62     1     0     0
SMALL
NO_CHARGES


@<TRIPOS>ATOM
      1 C5        -21.9070  -84.6250   52.6020 C.3       1 BB2400      0.0000 
      2 C3        -20.9500  -83.4500   52.3440 C.2       1 BB2400      0.0000 
      3 O4        -19.8390  -83.7400   51.8470 O.2       1 BB2400      0.0000 
      4 N1        -21.3200  -82.2110   52.6430 N.am      1 BB2400      0.0000 
      5 O2        -20.6230  -81.2150   52.4760 O.3       1 BB2400      0.0000 
      6 C6        -21.6130  -85.2400   54.0320 C.3       1 BB2400      0.0000 
      7 C12       -22.1240  -86.6870   54.2400 C.2       1 BB2400      0.0000 
      8 O13       -23.2750  -87.0340   53.9880 O.2       1 BB2400      0.0000 
      9 C7        -22.3570  -84.3070   55.0650 C.3       1 BB2400      0.0000 
     10 C8        -22.1230  -84.8070   56.5040 C.3       1 BB2400      0.0000 
     11 C9        -22.8250  -83.9490   57.5390 C.3       1 BB2400      0.0000 
     12 C10       -22.2590  -84.1600   58.9440 C.3       1 BB2400      0.0000 
     13 C11       -22.5600  -85.5040   59.5270 C.3       1 BB2400      0.0000 
     14 N14       -21.2190  -87.5180   54.7230 N.am      1 BB2400      0.0000 
     15 C15       -21.4310  -88.9200   55.0770 C.3       1 BB2400      0.0000 
     16 C16       -20.3910  -89.8540   54.4020 C.3       1 BB2400      0.0000 
     17 C18       -20.3210  -89.6190   52.9050 C.3       1 BB2400      0.0000 
     18 C17       -20.7760  -91.3110   54.6950 C.3       1 BB2400      0.0000 
     19 C19       -21.3470  -89.0000   56.6200 C.2       1 BB2400      0.0000 
     20 O20       -20.3530  -88.5450   57.1900 O.2       1 BB2400      0.0000 
     21 N21       -22.3610  -89.5670   57.2920 N.am      1 BB2400      0.0000 
     22 C22       -22.3600  -89.6890   58.7590 C.3       1 BB2400      0.0000 
     23 C23       -23.6060  -90.1410   56.6800 C.3       1 BB2400      0.0000 
     24 C24       -24.3900  -90.6430   57.8740 C.3       1 BB2400      0.0000 
     25 C25       -23.8390  -89.9230   59.0750 C.3       1 BB2400      0.0000 
     26 C26       -21.5040  -90.8490   59.2900 C.3       1 BB2400      0.0000 
     27 O27       -20.9520  -90.6980   60.4190 O.3       1 BB2400      0.0000 
     28 H         -21.7521  -85.3953   51.8671 H         1 BB2400      0.0000 
     29 H         -22.9262  -84.2808   52.5878 H         1 BB2400      0.0000 
     30 H         -22.3273  -82.1136   53.0672 H         1 BB2400      0.0000 
     31 H         -20.5761  -85.1709   54.2338 H         1 BB2400      0.0000 
     32 H         -23.4127  -84.3248   54.8390 H         1 BB2400      0.0000 
     33 H         -21.9684  -83.3052   54.9584 H         1 BB2400      0.0000 
     34 H         -21.0450  -84.8115   56.7012 H         1 BB2400      0.0000 
     35 H         -22.4831  -85.8394   56.5779 H         1 BB2400      0.0000 
     36 H         -23.8939  -84.1896   57.5471 H         1 BB2400      0.0000 
     37 H         -22.7191  -82.8925   57.2686 H         1 BB2400      0.0000 
     38 H         -22.6617  -83.3690   59.6041 H         1 BB2400      0.0000 
     39 H         -21.1641  -84.0077   58.9048 H         1 BB2400      0.0000 
     40 H         -20.2115  -87.1822   54.8918 H         1 BB2400      0.0000 
     41 H         -22.4199  -89.2337   54.7891 H         1 BB2400      0.0000 
     42 H         -19.4296  -89.6617   54.8457 H         1 BB2400      0.0000 
     43 H         -22.0727  -88.7708   59.2102 H         1 BB2400      0.0000 
     44 H         -23.3613  -90.9563   56.0416 H         1 BB2400      0.0000 
     45 H         -24.1573  -89.3793   56.1819 H         1 BB2400      0.0000 
     46 H         -24.2449  -91.7020   57.9818 H         1 BB2400      0.0000 
     47 H         -25.4303  -90.4057   57.7484 H         1 BB2400      0.0000 
     48 H         -24.3268  -88.9810   59.1994 H         1 BB2400      0.0000 
     49 H         -23.9213  -90.5362   59.9457 H         1 BB2400      0.0000 
     50 H         -20.7736  -91.0708   58.4284 H         1 BB2400      0.0000 
     51 H         -22.2009  -91.7623   59.2188 H         1 BB2400      0.0000 
     52 H         -22.1828  -86.2436   58.9695 H         1 BB2400      0.0000 
     53 H         -22.1772  -85.6047   60.4453 H         1 BB2400      0.0000 
     54 H         -23.5442  -85.6650   59.6005 H         1 BB2400      0.0000 
     55 H         -20.0565  -88.6792   52.6886 H         1 BB2400      0.0000 
     56 H         -19.6534  -90.2200   52.4655 H         1 BB2400      0.0000 
     57 H         -21.2017  -89.7852   52.4614 H         1 BB2400      0.0000 
     58 H         -20.1328  -91.9554   54.2814 H         1 BB2400      0.0000 
     59 H         -20.7909  -91.5010   55.6767 H         1 BB2400      0.0000 
     60 H         -21.6837  -91.5340   54.3395 H         1 BB2400      0.0000 
     61 H         -21.1890  -80.4491   52.7810 H         1 BB2400      0.0000 
     62 H         -20.2520  -89.9989   60.2733 H         1 BB2400      0.0000 
@<TRIPOS>BOND
     1    2    1 1    
     2    6    1 1    
     3   28    1 1    
     4   29    1 1    
     5    3    2 2    
     6    4    2 am   
     7    5    4 1    
     8   30    4 1    
     9   61    5 1    
    10    7    6 1    
    11    9    6 1    
    12   31    6 1    
    13    8    7 2    
    14   14    7 am   
    15   10    9 1    
    16   32    9 1    
    17   33    9 1    
    18   11   10 1    
    19   34   10 1    
    20   35   10 1    
    21   12   11 1    
    22   36   11 1    
    23   37   11 1    
    24   13   12 1    
    25   38   12 1    
    26   39   12 1    
    27   52   13 1    
    28   53   13 1    
    29   54   13 1    
    30   15   14 1    
    31   40   14 1    
    32   16   15 1    
    33   19   15 1    
    34   41   15 1    
    35   17   16 1    
    36   18   16 1    
    37   42   16 1    
    38   55   17 1    
    39   56   17 1    
    40   57   17 1    
    41   58   18 1    
    42   59   18 1    
    43   60   18 1    
    44   20   19 2    
    45   21   19 am   
    46   22   21 1    
    47   23   21 1    
    48   25   22 1    
    49   26   22 1    
    50   43   22 1    
    51   24   23 1    
    52   44   23 1    
    53   45   23 1    
    54   25   24 1    
    55   46   24 1    
    56   47   24 1    
    57   48   25 1    
    58   49   25 1    
    59   27   26 1    
    60   50   26 1    
    61   51   26 1    
    62   62   27 1    
@<TRIPOS>SUBSTRUCTURE
     1 BB2400      1 GROUP   
@<TRIPOS>SET

