#    Name: 4j95_ACP_1_INTS_M
#    Modification time : Tue Mar 25 05:36:22 2014

@<TRIPOS>MOLECULE
4j95_ACP_1_INTS_M
   39     0    12     0     0
SMALL
NO_CHARGES


@<TRIPOS>ATOM
      1 N          10.6725    0.1460   23.3755 N.am      2 SEC2        0.0000 
      2 N          12.1490    0.7970   22.7980 N.am     10 SEL2        0.0000 
      3 N           9.1960   -0.5050   23.9530 N.am      6 SEP2        0.0000 
      4 N          17.2520    1.3485   22.8665 N.am      2 SEC2        0.0000 
      5 N          15.7230    1.1840   22.4640 N.am     10 SEL2        0.0000 
      6 N          18.7810    1.5130   23.2690 N.am      6 SEP2        0.0000 
      7 NZ         16.9930    2.3780   17.2395 N.4       3 LYC4        0.0000 
      8 NZ         16.6830    3.7430   18.3290 N.4      11 LYL4        0.0000 
      9 NZ         17.3030    1.0130   16.1500 N.4       7 LYP4        0.0000 
     10 CA         16.0870    8.8375   20.6970 C.3       4 GLC5        0.0000 
     11 CA         14.8550    7.3900   20.0630 C.3      12 GLL5        0.0000 
     12 CA         17.3190   10.2850   21.3310 C.3       8 GLP5        0.0000 
     13 CA         10.7170    7.4990   18.2285 C.3       4 GLC5        0.0000 
     14 CA         12.6600    7.5400   19.3070 C.3      12 GLL5        0.0000 
     15 CA          8.7740    7.4580   17.1500 C.3       8 GLP5        0.0000 
     16 O          11.7930    8.4375   11.2615 O.2       1 ALC1        0.0000 
     17 O          12.2200    8.0620   12.5290 O.2       9 ALL1        0.0000 
     18 O          11.3660    8.8130    9.9940 O.2       5 ALP1        0.0000 
     19 N          10.7375   10.8325   12.9555 N.am      2 SEC2        0.0000 
     20 N          11.7780   10.0680   13.8200 N.am     10 SEL2        0.0000 
     21 N           9.6970   11.5970   12.0910 N.am      6 SEP2        0.0000 
     22 CA         13.4880   11.5250   14.9720 C.3       4 GLC5        0.0000 
     23 CA         11.7820   10.7760   14.9790 C.3      12 GLL5        0.0000 
     24 CA         15.1940   12.2740   14.9650 C.3       8 GLP5        0.0000 
     25 CA         10.1125   11.3310   13.8835 C.3       4 GLC5        0.0000 
     26 CA          8.4430   11.8860   12.7880 C.3       8 GLP5        0.0000 
     27 CA         10.7435    8.8000   14.9530 C.3       4 GLC5        0.0000 
     28 CA          9.7050    6.8240   14.9270 C.3       8 GLP5        0.0000 
     29 CA         13.9620   10.6010   15.5505 C.3       4 GLC5        0.0000 
     30 CA         12.7300    8.9280   16.1360 C.3      12 GLL5        0.0000 
     31 CA         16.3238    6.7127   18.2375 C.3       4 GLC5        0.0000 
     32 CA         17.4190    6.6710   16.4880 C.3       8 GLP5        0.0000 
     33 CA         14.7255    8.5995   15.3262 C.3       4 GLC5        0.0000 
     34 CA         16.7200    8.6400   15.1190 C.3       8 GLP5        0.0000 
     35 CA         13.7012    9.2282   13.0053 C.3       4 GLC5        0.0000 
     36 CA         12.7320    8.1900   14.9310 C.3      12 GLL5        0.0000 
     37 CA         14.9180    9.9600   11.6570 C.3       8 GLP5        0.0000 
     38 CA         11.1561    7.7681   15.0859 C.3       4 GLC5        0.0000 
     39 CA         12.2370    8.8030   13.7760 C.3      12 GLL5        0.0000 
@<TRIPOS>BOND
@<TRIPOS>SUBSTRUCTURE
     1 ALC1       16 GROUP        1 X    ALC  0     ROOT ALC X 1
     2 SEC2        1 GROUP        1 X    SEC  0     **** SEC X 2
     3 LYC4        7 GROUP        1 X    LYC  0     **** LYC X 4
     4 GLC5       10 GROUP        1 X    GLC  0     **** GLC X 6
     5 ALP1       18 GROUP        1 Y    ALP  0     ROOT ALP Y 8
     6 SEP2        3 GROUP        1 Y    SEP  0     **** SEP Y 9
     7 LYP4        9 GROUP        1 Y    LYP  0     **** LYP Y 11
     8 GLP5       12 GROUP        1 Y    GLP  0     **** GLP Y 13
     9 ALL1       17 GROUP        1 Z    ALL  0     ROOT ALL Z 15
    10 SEL2        2 GROUP        1 Z    SEL  0     **** SEL Z 16
    11 LYL4        8 GROUP        1 Z    LYL  0     **** LYL Z 18
    12 GLL5       11 GROUP        1 Z    GLL  0     **** GLL Z 20
@<TRIPOS>SET

