#    Name: 4j95_ACP_1_ligand
#    Modification time : Tue Mar 25 05:36:23 2014

@<TRIPOS>MOLECULE
4j95_ACP_1_ligand
   45    47     1     0     0
SMALL
NO_CHARGES


@<TRIPOS>ATOM
      1 PG         12.0570    2.3140   22.4010 P.3       1 ACP801      0.0000 
      2 O1G        11.5690    2.4240   20.9890 O.co2     1 ACP801      0.0000 
      3 O2G        12.1490    0.7970   22.7980 O.co2     1 ACP801      0.0000 
      4 O3G        11.0590    3.0360   23.3610 O.co2     1 ACP801      0.0000 
      5 PB         14.8750    2.0500   21.4730 P.3       1 ACP801      0.0000 
      6 O1B        14.0870    1.1170   20.5990 O.co2     1 ACP801      0.0000 
      7 O2B        15.7230    1.1840   22.4640 O.co2     1 ACP801      0.0000 
      8 C3B        13.7230    3.1020   22.4590 C.3       1 ACP801      0.0000 
      9 PA         15.4430    3.6050   19.1910 P.3       1 ACP801      0.0000 
     10 O1A        14.4650    2.7340   18.4450 O.co2     1 ACP801      0.0000 
     11 O2A        16.6830    3.7430   18.3290 O.co2     1 ACP801      0.0000 
     12 O3A        15.8550    2.9400   20.5790 O.3       1 ACP801      0.0000 
     13 O5'        14.7930    5.0650   19.4350 O.3       1 ACP801      0.0000 
     14 C5'        15.6020    6.1190   19.9110 C.3       1 ACP801      0.0000 
     15 C4'        14.8550    7.3900   20.0630 C.3       1 ACP801      0.0000 
     16 O4'        14.8860    8.1620   18.8020 O.3       1 ACP801      0.0000 
     17 C3'        13.4600    7.1980   20.4390 C.3       1 ACP801      0.0000 
     18 O3'        13.1280    8.0510   21.5380 O.3       1 ACP801      0.0000 
     19 C2'        12.6600    7.5400   19.3070 C.3       1 ACP801      0.0000 
     20 O2'        11.4730    8.2210   19.7520 O.3       1 ACP801      0.0000 
     21 C1'        13.4600    8.3960   18.4500 C.3       1 ACP801      0.0000 
     22 N9         13.2600    8.0870   17.0980 N.pl3     1 ACP801      0.0000 
     23 C8         13.5540    6.9280   16.4880 C.2       1 ACP801      0.0000 
     24 N7         13.2360    6.9890   15.1980 N.2       1 ACP801      0.0000 
     25 C5         12.7320    8.1900   14.9310 C.ar      1 ACP801      0.0000 
     26 C6         12.2370    8.8030   13.7760 C.ar      1 ACP801      0.0000 
     27 N6         12.2200    8.0620   12.5290 N.pl3     1 ACP801      0.0000 
     28 N1         11.7780   10.0680   13.8200 N.ar      1 ACP801      0.0000 
     29 C2         11.7820   10.7760   14.9790 C.ar      1 ACP801      0.0000 
     30 N3         12.2570   10.2060   16.1270 N.ar      1 ACP801      0.0000 
     31 C4         12.7300    8.9280   16.1360 C.ar      1 ACP801      0.0000 
     32 H          14.0341    3.0449   23.4184 H         1 ACP801      0.0000 
     33 H          13.6429    3.9791   21.9644 H         1 ACP801      0.0000 
     34 H          16.4652    6.3011   19.2288 H         1 ACP801      0.0000 
     35 H          16.0568    5.8616   20.8962 H         1 ACP801      0.0000 
     36 H          15.3490    7.9989   20.8337 H         1 ACP801      0.0000 
     37 H          13.3042    6.1628   20.7017 H         1 ACP801      0.0000 
     38 H          12.3935    6.6409   18.7655 H         1 ACP801      0.0000 
     39 H          13.2320    9.4315   18.6618 H         1 ACP801      0.0000 
     40 H          13.9489    6.1476   16.9378 H         1 ACP801      0.0000 
     41 H          12.5575    7.1216   12.5713 H         1 ACP801      0.0000 
     42 H          11.8721    8.5528   11.7302 H         1 ACP801      0.0000 
     43 H          11.4252   11.7503   14.9971 H         1 ACP801      0.0000 
     44 H          12.8916    7.4300   22.2853 H         1 ACP801      0.0000 
     45 H          11.6423    8.4338   20.7143 H         1 ACP801      0.0000 
@<TRIPOS>BOND
     1    2    1 ar   
     2    3    1 ar   
     3    4    1 ar   
     4    8    1 1    
     5    6    5 ar   
     6    7    5 ar   
     7    8    5 1    
     8   12    5 1    
     9   32    8 1    
    10   33    8 1    
    11   10    9 ar   
    12   11    9 ar   
    13   12    9 1    
    14   13    9 1    
    15   14   13 1    
    16   15   14 1    
    17   34   14 1    
    18   35   14 1    
    19   16   15 1    
    20   17   15 1    
    21   36   15 1    
    22   21   16 1    
    23   18   17 1    
    24   19   17 1    
    25   37   17 1    
    26   44   18 1    
    27   20   19 1    
    28   21   19 1    
    29   38   19 1    
    30   45   20 1    
    31   22   21 1    
    32   39   21 1    
    33   23   22 1    
    34   31   22 1    
    35   24   23 2    
    36   40   23 1    
    37   25   24 1    
    38   26   25 ar   
    39   31   25 ar   
    40   27   26 1    
    41   28   26 ar   
    42   41   27 1    
    43   42   27 1    
    44   29   28 ar   
    45   30   29 ar   
    46   43   29 1    
    47   31   30 ar   
@<TRIPOS>SUBSTRUCTURE
     1 ACP801      1 GROUP   
@<TRIPOS>SET

