#    Name: 4euf_NAD_1_INTS_M
#    Modification time : Mon Mar 24 18:40:45 2014

@<TRIPOS>MOLECULE
4euf_NAD_1_INTS_M
   73     0     9     0     0
SMALL
NO_CHARGES


@<TRIPOS>ATOM
      1 N          -5.1370   -3.4700   19.1065 N.am      2 SEC2        0.0000 
      2 N          -4.7670   -3.6670   17.8700 N.am      8 SEL2        0.0000 
      3 N          -5.5070   -3.2730   20.3430 N.am      5 SEP2        0.0000 
      4 CA         -8.1190   -6.3600   16.6495 C.3       3 GLC5        0.0000 
      5 CA         -7.9380   -5.3760   18.3130 C.3       9 GLL5        0.0000 
      6 CA         -8.3000   -7.3440   14.9860 C.3       6 GLP5        0.0000 
      7 CA        -10.6515   -5.2010   17.9515 C.3       3 GLC5        0.0000 
      8 CA         -9.1210   -4.9440   19.2070 C.3       9 GLL5        0.0000 
      9 CA        -12.1820   -5.4580   16.6960 C.3       6 GLP5        0.0000 
     10 N         -10.2150   -6.4615   17.6830 N.am      2 SEC2        0.0000 
     11 N         -10.0430   -5.9900   19.2250 N.am      8 SEL2        0.0000 
     12 N         -10.3870   -6.9330   16.1410 N.am      5 SEP2        0.0000 
     13 O          -8.9930   -3.7120   22.3935 O.2       1 ALC1        0.0000 
     14 O          -9.5920   -4.0030   21.1290 O.2       7 ALL1        0.0000 
     15 O          -8.3940   -3.4210   23.6580 O.2       4 ALP1        0.0000 
     16 N         -10.6495   -6.4795   23.4760 N.am      2 SEC2        0.0000 
     17 N          -9.6030   -6.0340   22.4290 N.am      8 SEL2        0.0000 
     18 N         -11.6960   -6.9250   24.5230 N.am      5 SEP2        0.0000 
     19 O          -8.4240   -5.7850   23.3355 O.2       1 ALC1        0.0000 
     20 O          -9.6030   -6.0340   22.4290 O.2       7 ALL1        0.0000 
     21 O          -7.2450   -5.5360   24.2420 O.2       4 ALP1        0.0000 
     22 CA        -11.4095   -4.5355   20.1990 C.3       3 GLC5        0.0000 
     23 CA        -10.5390   -6.0980   20.4740 C.3       9 GLL5        0.0000 
     24 CA        -12.2800   -2.9730   19.9240 C.3       6 GLP5        0.0000 
     25 CA        -11.6020   -5.4085   22.3060 C.3       3 GLC5        0.0000 
     26 CA        -12.6650   -4.7190   24.1380 C.3       6 GLP5        0.0000 
     27 CA        -11.8370   -6.1035   19.0935 C.3       3 GLC5        0.0000 
     28 CA        -13.1350   -6.1090   17.7130 C.3       6 GLP5        0.0000 
     29 CA        -11.9770  -10.4030   19.2170 C.3       3 GLC5        0.0000 
     30 CA        -12.4820   -9.0620   20.8900 C.3       9 GLL5        0.0000 
     31 CA        -11.4720  -11.7440   17.5440 C.3       6 GLP5        0.0000 
     32 N         -16.0855   -9.1010   22.1495 N.am      2 SEC2        0.0000 
     33 N         -14.6140   -8.9530   21.7360 N.am      8 SEL2        0.0000 
     34 N         -17.5570   -9.2490   22.5630 N.am      5 SEP2        0.0000 
     35 CA        -13.5735   -6.1695   23.0130 C.3       3 GLC5        0.0000 
     36 CA        -14.4820   -7.6200   21.8880 C.3       9 GLL5        0.0000 
     37 CA        -13.2605   -8.5070   23.3105 C.3       3 GLC5        0.0000 
     38 CA        -12.0390   -9.3940   24.7330 C.3       6 GLP5        0.0000 
     39 CA        -16.0515   -7.5240   21.4060 C.3       3 GLC5        0.0000 
     40 CA        -17.6210   -7.4280   20.9240 C.3       6 GLP5        0.0000 
     41 CA        -14.6410   -7.7135   20.1780 C.3       3 GLC5        0.0000 
     42 CA        -14.8000   -7.8070   18.4680 C.3       6 GLP5        0.0000 
     43 CA        -12.4980   -6.2370   22.5615 C.3       3 GLC5        0.0000 
     44 CA        -12.3310   -7.7550   20.9850 C.3       9 GLL5        0.0000 
     45 N          -6.4345   -0.3285   15.7560 N.am      2 SEC2        0.0000 
     46 N          -6.5150   -1.6780   15.4110 N.am      8 SEL2        0.0000 
     47 N          -6.3540    1.0210   16.1010 N.am      5 SEP2        0.0000 
     48 CA         -9.4090   -1.4910   11.2155 C.3       3 GLC5        0.0000 
     49 CA         -8.1980   -2.8610   12.1630 C.3       9 GLL5        0.0000 
     50 CA        -10.6200   -0.1210   10.2680 C.3       6 GLP5        0.0000 
     51 CA         -8.3790   -5.8125   13.4520 C.3       3 GLC5        0.0000 
     52 CA         -8.4580   -4.2810   11.9180 C.3       9 GLL5        0.0000 
     53 N          -9.6735   -5.8080    9.2370 N.am      2 SEC2        0.0000 
     54 N          -8.1290   -5.3410    9.8200 N.am      8 SEL2        0.0000 
     55 N         -11.2180   -6.2750    8.6540 N.am      5 SEP2        0.0000 
     56 CA         -6.1620   -1.4840   10.9940 C.3       3 GLC5        0.0000 
     57 CA         -7.1820   -3.3300   10.2220 C.3       9 GLL5        0.0000 
     58 CA         -5.1420    0.3620   11.7660 C.3       6 GLP5        0.0000 
     59 CA        -10.6130   -3.9478   19.9192 C.3       3 GLC5        0.0000 
     60 CA        -12.3649   -8.9711   22.8774 C.3       3 GLC5        0.0000 
     61 CA        -13.7454   -8.1776   19.7449 C.3       3 GLC5        0.0000 
     62 CA        -13.6190   -9.6210   21.2270 C.3       9 GLL5        0.0000 
     63 CA         -7.0228   -1.1827   12.8012 C.3       3 GLC5        0.0000 
     64 CA         -7.6610   -2.7100   13.5780 C.3       9 GLL5        0.0000 
     65 CA         -6.1160    0.4200   12.7320 C.3       6 GLP5        0.0000 
     66 CA         -4.7867   -3.3825    7.1927 C.3       3 GLC5        0.0000 
     67 CA         -4.7610   -3.9190    9.4270 C.3       9 GLL5        0.0000 
     68 CA         -5.3890   -3.1170    5.2610 C.3       6 GLP5        0.0000 
     69 CA         -5.6792    0.3743    8.3945 C.3       3 GLC5        0.0000 
     70 CA         -4.5640   -1.1760    8.5420 C.3       9 GLL5        0.0000 
     71 CA         -6.2280    2.1850    7.9470 C.3       6 GLP5        0.0000 
     72 CA         -5.1291   -2.3850    7.0346 C.3       3 GLC5        0.0000 
     73 CA         -5.6970   -1.6970    9.1420 C.3       9 GLL5        0.0000 
@<TRIPOS>BOND
@<TRIPOS>SUBSTRUCTURE
     1 ALC1       13 GROUP        1 X    ALC  0     ROOT ALC X 1
     2 SEC2        1 GROUP        1 X    SEC  0     **** SEC X 2
     3 GLC5        4 GROUP        1 X    GLC  0     **** GLC X 6
     4 ALP1       15 GROUP        1 Y    ALP  0     ROOT ALP Y 8
     5 SEP2        3 GROUP        1 Y    SEP  0     **** SEP Y 9
     6 GLP5        6 GROUP        1 Y    GLP  0     **** GLP Y 13
     7 ALL1       14 GROUP        1 Z    ALL  0     ROOT ALL Z 15
     8 SEL2        2 GROUP        1 Z    SEL  0     **** SEL Z 16
     9 GLL5        5 GROUP        1 Z    GLL  0     **** GLL Z 20
@<TRIPOS>SET

