#    Name: 4euf_NAD_1_ligand
#    Modification time : Mon Mar 24 18:40:45 2014

@<TRIPOS>MOLECULE
4euf_NAD_1_ligand
   70    74     1     0     0
SMALL
NO_CHARGES


@<TRIPOS>ATOM
      1 PA         -5.7160   -4.4770   17.1900 P.3       1 NAD1001     0.0000 
      2 O1A        -4.7670   -3.6670   17.8700 O.co2     1 NAD1001     0.0000 
      3 O2A        -5.4580   -5.8880   17.0890 O.co2     1 NAD1001     0.0000 
      4 O5B        -7.1140   -4.3010   17.8400 O.3       1 NAD1001     0.0000 
      5 C5B        -7.9380   -5.3760   18.3130 C.3       1 NAD1001     0.0000 
      6 C4B        -9.1210   -4.9440   19.2070 C.3       1 NAD1001     0.0000 
      7 O4B       -10.0430   -5.9900   19.2250 O.3       1 NAD1001     0.0000 
      8 C3B        -8.7710   -4.9010   20.6220 C.3       1 NAD1001     0.0000 
      9 O3B        -9.5920   -4.0030   21.1290 O.3       1 NAD1001     0.0000 
     10 C2B        -9.3060   -6.1660   21.1180 C.3       1 NAD1001     0.0000 
     11 O2B        -9.6030   -6.0340   22.4290 O.3       1 NAD1001     0.0000 
     12 C1B       -10.5390   -6.0980   20.4740 C.3       1 NAD1001     0.0000 
     13 N9A       -11.1480   -7.4000   20.5280 N.pl3     1 NAD1001     0.0000 
     14 C8A       -10.4650   -8.5590   20.1510 C.2       1 NAD1001     0.0000 
     15 N7A       -11.3960   -9.5910   20.3940 N.2       1 NAD1001     0.0000 
     16 C5A       -12.4820   -9.0620   20.8900 C.ar      1 NAD1001     0.0000 
     17 C6A       -13.6190   -9.6210   21.2270 C.ar      1 NAD1001     0.0000 
     18 N6A       -13.7010  -10.9100   21.0840 N.pl3     1 NAD1001     0.0000 
     19 N1A       -14.6140   -8.9530   21.7360 N.ar      1 NAD1001     0.0000 
     20 C2A       -14.4820   -7.6200   21.8880 C.ar      1 NAD1001     0.0000 
     21 N3A       -13.3250   -7.0280   21.4690 N.ar      1 NAD1001     0.0000 
     22 C4A       -12.3310   -7.7550   20.9850 C.ar      1 NAD1001     0.0000 
     23 O3         -5.9620   -4.0080   15.7250 O.3       1 NAD1001     0.0000 
     24 PN         -5.6640   -2.7170   14.9720 P.3       1 NAD1001     0.0000 
     25 O1N        -4.2630   -2.5630   14.8010 O.co2     1 NAD1001     0.0000 
     26 O2N        -6.5150   -1.6780   15.4110 O.co2     1 NAD1001     0.0000 
     27 O5D        -6.2430   -2.8800   13.6330 O.3       1 NAD1001     0.0000 
     28 C5D        -7.6610   -2.7100   13.5780 C.3       1 NAD1001     0.0000 
     29 C4D        -8.1980   -2.8610   12.1630 C.3       1 NAD1001     0.0000 
     30 O4D        -7.0580   -2.6050   11.4130 O.3       1 NAD1001     0.0000 
     31 C3D        -8.4580   -4.2810   11.9180 C.3       1 NAD1001     0.0000 
     32 O3D        -9.8040   -4.3260   11.5600 O.3       1 NAD1001     0.0000 
     33 C2D        -7.4640   -4.6540   10.7890 C.3       1 NAD1001     0.0000 
     34 O2D        -8.1290   -5.3410    9.8200 O.3       1 NAD1001     0.0000 
     35 C1D        -7.1820   -3.3300   10.2220 C.3       1 NAD1001     0.0000 
     36 N1N        -5.8550   -3.0300    9.5910 N.pl3     1 NAD1001     0.0000 
     37 C2N        -4.7610   -3.9190    9.4270 C.ar      1 NAD1001     0.0000 
     38 C3N        -3.6080   -3.3770    8.8220 C.ar      1 NAD1001     0.0000 
     39 C7N        -2.4890   -4.1110    8.5500 C.2       1 NAD1001     0.0000 
     40 O7N        -2.6000   -5.4440    8.3760 O.2       1 NAD1001     0.0000 
     41 N7N        -1.4650   -3.3560    8.2680 N.am      1 NAD1001     0.0000 
     42 C4N        -3.5190   -2.0420    8.4070 C.ar      1 NAD1001     0.0000 
     43 C5N        -4.5640   -1.1760    8.5420 C.ar      1 NAD1001     0.0000 
     44 C6N        -5.6970   -1.6970    9.1420 C.ar      1 NAD1001     0.0000 
     45 H          -7.3412   -6.1143   18.8993 H         1 NAD1001     0.0000 
     46 H          -8.3688   -5.9581   17.4642 H         1 NAD1001     0.0000 
     47 H          -9.5306   -4.0525   18.8806 H         1 NAD1001     0.0000 
     48 H          -7.7883   -4.8079   20.7796 H         1 NAD1001     0.0000 
     49 H          -8.7468   -6.9518   20.8259 H         1 NAD1001     0.0000 
     50 H         -11.1236   -5.3393   20.7727 H         1 NAD1001     0.0000 
     51 H          -9.6156   -8.6390   19.8233 H         1 NAD1001     0.0000 
     52 H         -12.8783  -11.3687   20.7482 H         1 NAD1001     0.0000 
     53 H         -14.5792  -11.3242   21.3229 H         1 NAD1001     0.0000 
     54 H         -15.2315   -7.0542   22.3093 H         1 NAD1001     0.0000 
     55 H          -7.9618   -1.7117   13.9470 H         1 NAD1001     0.0000 
     56 H          -8.1805   -3.4495   14.2155 H         1 NAD1001     0.0000 
     57 H          -8.9742   -2.2556   11.9909 H         1 NAD1001     0.0000 
     58 H          -8.2143   -4.8284   12.7840 H         1 NAD1001     0.0000 
     59 H          -6.6312   -5.0723   11.1940 H         1 NAD1001     0.0000 
     60 H          -7.9758   -2.9501    9.6635 H         1 NAD1001     0.0000 
     61 H          -4.8087   -4.8652    9.7220 H         1 NAD1001     0.0000 
     62 H          -0.6142   -3.8329    8.0472 H         1 NAD1001     0.0000 
     63 H          -1.6242   -2.3692    8.2983 H         1 NAD1001     0.0000 
     64 H          -2.6216   -1.7164    7.9848 H         1 NAD1001     0.0000 
     65 H          -4.5239   -0.2231    8.2304 H         1 NAD1001     0.0000 
     66 H          -6.5302   -1.0474    9.2839 H         1 NAD1001     0.0000 
     67 H          -9.2110   -3.7818   22.0267 H         1 NAD1001     0.0000 
     68 H          -8.7254   -5.8638   22.8772 H         1 NAD1001     0.0000 
     69 H         -10.2497   -4.8390   12.2936 H         1 NAD1001     0.0000 
     70 H          -9.0675   -5.4194   10.1563 H         1 NAD1001     0.0000 
@<TRIPOS>BOND
     1    2    1 ar   
     2    3    1 ar   
     3    4    1 1    
     4   23    1 1    
     5    5    4 1    
     6    6    5 1    
     7   45    5 1    
     8   46    5 1    
     9    7    6 1    
    10    8    6 1    
    11   47    6 1    
    12   12    7 1    
    13    9    8 1    
    14   10    8 1    
    15   48    8 1    
    16   67    9 1    
    17   11   10 1    
    18   12   10 1    
    19   49   10 1    
    20   68   11 1    
    21   13   12 1    
    22   50   12 1    
    23   14   13 1    
    24   22   13 1    
    25   15   14 2    
    26   51   14 1    
    27   16   15 1    
    28   17   16 ar   
    29   22   16 ar   
    30   18   17 1    
    31   19   17 ar   
    32   52   18 1    
    33   53   18 1    
    34   20   19 ar   
    35   21   20 ar   
    36   54   20 1    
    37   22   21 ar   
    38   24   23 1    
    39   25   24 ar   
    40   26   24 ar   
    41   27   24 1    
    42   28   27 1    
    43   29   28 1    
    44   55   28 1    
    45   56   28 1    
    46   30   29 1    
    47   31   29 1    
    48   57   29 1    
    49   35   30 1    
    50   32   31 1    
    51   33   31 1    
    52   58   31 1    
    53   69   32 1    
    54   34   33 1    
    55   35   33 1    
    56   59   33 1    
    57   70   34 1    
    58   36   35 1    
    59   60   35 1    
    60   37   36 ar   
    61   44   36 ar   
    62   38   37 ar   
    63   61   37 1    
    64   39   38 1    
    65   42   38 ar   
    66   40   39 2    
    67   41   39 am   
    68   62   41 1    
    69   63   41 1    
    70   43   42 ar   
    71   64   42 1    
    72   44   43 ar   
    73   65   43 1    
    74   66   44 1    
@<TRIPOS>SUBSTRUCTURE
     1 NAD1001     1 GROUP   
@<TRIPOS>SET

