#    Name: 3rc3_ANP_1_INTS_M
#    Modification time : Tue Mar 25 11:21:50 2014

@<TRIPOS>MOLECULE
3rc3_ANP_1_INTS_M
   56     0     9     0     0
SMALL
NO_CHARGES


@<TRIPOS>ATOM
      1 NZ         28.9310   76.1290   24.6745 N.4       2 LYC4        0.0000 
      2 NZ         29.1780   75.4430   25.8720 N.4       8 LYL4        0.0000 
      3 NZ         29.1730   76.2930   22.3130 N.4       5 LYP4        0.0000 
      4 N          28.9310   76.1290   24.6745 N.am      1 SEC2        0.0000 
      5 N          29.1780   75.4430   25.8720 N.am      7 SEL2        0.0000 
      6 N          28.6840   76.8150   23.4770 N.am      4 SEP2        0.0000 
      7 N          28.4280   78.4110   25.9030 N.am      1 SEC2        0.0000 
      8 N          27.9810   77.5300   26.7680 N.am      7 SEL2        0.0000 
      9 N          28.8750   79.2920   25.0380 N.am      4 SEP2        0.0000 
     10 N          26.8860   77.5945   25.6620 N.am      1 SEC2        0.0000 
     11 N          25.7910   77.6590   24.5560 N.am      4 SEP2        0.0000 
     12 NZ         32.8670   75.6305   25.2795 N.4       2 LYC4        0.0000 
     13 NZ         32.0330   75.4920   26.5270 N.4       8 LYL4        0.0000 
     14 NZ         33.1400   76.6800   23.2630 N.4       5 LYP4        0.0000 
     15 N          32.1115   76.4815   25.1495 N.am      1 SEC2        0.0000 
     16 N          32.0330   75.4920   26.5270 N.am      7 SEL2        0.0000 
     17 N          32.1900   77.4710   23.7720 N.am      4 SEP2        0.0000 
     18 N          32.8670   75.6305   25.2795 N.am      1 SEC2        0.0000 
     19 N          33.7010   75.7690   24.0320 N.am      4 SEP2        0.0000 
     20 NZ         31.7200   77.7520   25.1085 N.4       2 LYC4        0.0000 
     21 NZ         31.2500   78.0330   26.4450 N.4       8 LYL4        0.0000 
     22 N          31.0415   79.4735   26.4590 N.am      1 SEC2        0.0000 
     23 N          31.2500   78.0330   26.4450 N.am      7 SEL2        0.0000 
     24 N          30.8330   80.9140   26.4730 N.am      4 SEP2        0.0000 
     25 N          31.7200   77.7520   25.1085 N.am      1 SEC2        0.0000 
     26 N          32.1845   80.8260   28.7515 N.am      1 SEC2        0.0000 
     27 N          32.2690   79.3470   28.9520 N.am      7 SEL2        0.0000 
     28 N          32.1000   82.3050   28.5510 N.am      4 SEP2        0.0000 
     29 N          32.8810   80.3070   29.7685 N.am      1 SEC2        0.0000 
     30 N          33.4930   81.2670   30.5850 N.am      4 SEP2        0.0000 
     31 N          33.5965   77.0465   31.8525 N.am      1 SEC2        0.0000 
     32 N          33.3760   77.8410   30.8390 N.am      7 SEL2        0.0000 
     33 N          33.8170   76.2520   32.8660 N.am      4 SEP2        0.0000 
     34 CA         33.3615   79.9085   26.6920 C.3       3 GLC5        0.0000 
     35 CA         34.5380   78.4370   27.1050 C.3       9 GLL5        0.0000 
     36 CA         32.1850   81.3800   26.2790 C.3       6 GLP5        0.0000 
     37 CA         35.5395   80.1860   27.9245 C.3       3 GLC5        0.0000 
     38 CA         36.5410   81.9350   28.7440 C.3       6 GLP5        0.0000 
     39 CA         36.9890   79.4230   26.0505 C.3       3 GLC5        0.0000 
     40 CA         35.7270   77.6620   26.5010 C.3       9 GLL5        0.0000 
     41 CA         38.2510   81.1840   25.6000 C.3       6 GLP5        0.0000 
     42 N          36.9450   75.8560   24.7045 N.am      1 SEC2        0.0000 
     43 N          36.4630   75.4290   25.9380 N.am      7 SEL2        0.0000 
     44 N          37.4270   76.2830   23.4710 N.am      4 SEP2        0.0000 
     45 CA         38.9520   78.8280   27.3640 C.3       3 GLC5        0.0000 
     46 CA         37.7080   77.2740   27.7570 C.3       9 GLL5        0.0000 
     47 CA         40.1960   80.3820   26.9710 C.3       6 GLP5        0.0000 
     48 CA         38.2590   76.7620   25.8335 C.3       3 GLC5        0.0000 
     49 CA         38.8100   76.2500   23.9100 C.3       6 GLP5        0.0000 
     50 CA         37.8655   77.7135   31.5730 C.3       3 GLC5        0.0000 
     51 CA         39.5530   78.6380   30.6770 C.3       9 GLL5        0.0000 
     52 CA         36.1780   76.7890   32.4690 C.3       6 GLP5        0.0000 
     53 CA         37.2835   76.5855   25.3145 C.3       3 GLC5        0.0000 
     54 CA         35.7870   76.1800   26.9370 C.3       9 GLL5        0.0000 
     55 CA         37.7140   76.0785   29.8717 C.3       3 GLC5        0.0000 
     56 CA         38.2260   75.4270   31.7960 C.3       6 GLP5        0.0000 
@<TRIPOS>BOND
@<TRIPOS>SUBSTRUCTURE
     1 SEC2        4 GROUP        1 X    SEC  0     ROOT SEC X 2
     2 LYC4        1 GROUP        1 X    LYC  0     **** LYC X 4
     3 GLC5       34 GROUP        1 X    GLC  0     **** GLC X 6
     4 SEP2        6 GROUP        1 Y    SEP  0     ROOT SEP Y 9
     5 LYP4        3 GROUP        1 Y    LYP  0     **** LYP Y 11
     6 GLP5       36 GROUP        1 Y    GLP  0     **** GLP Y 13
     7 SEL2        5 GROUP        1 Z    SEL  0     ROOT SEL Z 16
     8 LYL4        2 GROUP        1 Z    LYL  0     **** LYL Z 18
     9 GLL5       35 GROUP        1 Z    GLL  0     **** GLL Z 20
@<TRIPOS>SET

