#    Name: 3rc3_ANP_1_ligand
#    Modification time : Tue Mar 25 11:21:50 2014

@<TRIPOS>MOLECULE
3rc3_ANP_1_ligand
   43    45     1     0     0
SMALL
NO_CHARGES


@<TRIPOS>ATOM
      1 PG         28.6540   76.1760   27.1140 P.3       1 ANP801      0.0000 
      2 O1G        29.1780   75.4430   25.8720 O.co2     1 ANP801      0.0000 
      3 O2G        27.8570   75.3250   28.1210 O.co2     1 ANP801      0.0000 
      4 O3G        27.9810   77.5300   26.7680 O.co2     1 ANP801      0.0000 
      5 PB         31.6260   76.7710   27.2480 P.3       1 ANP801      0.0000 
      6 O1B        32.0330   75.4920   26.5270 O.co2     1 ANP801      0.0000 
      7 O2B        31.2500   78.0330   26.4450 O.co2     1 ANP801      0.0000 
      8 N3B        30.1050   76.4630   28.0680 N.4       1 ANP801      0.0000 
      9 PA         33.0500   78.1690   29.3680 P.3       1 ANP801      0.0000 
     10 O1A        32.2690   79.3470   28.9520 O.co2     1 ANP801      0.0000 
     11 O2A        33.3760   77.8410   30.8390 O.co2     1 ANP801      0.0000 
     12 O3A        32.6400   76.8910   28.5180 O.3       1 ANP801      0.0000 
     13 O5'        34.5190   78.3170   28.5580 O.3       1 ANP801      0.0000 
     14 C5'        34.5380   78.4370   27.1050 C.3       1 ANP801      0.0000 
     15 C4'        35.7270   77.6620   26.5010 C.3       1 ANP801      0.0000 
     16 O4'        36.9570   78.2330   26.9700 O.3       1 ANP801      0.0000 
     17 C3'        35.7870   76.1800   26.9370 C.3       1 ANP801      0.0000 
     18 O3'        36.4630   75.4290   25.9380 O.3       1 ANP801      0.0000 
     19 C2'        36.6960   76.1860   28.1380 C.3       1 ANP801      0.0000 
     20 O2'        37.2210   74.8850   28.5290 O.3       1 ANP801      0.0000 
     21 C1'        37.7080   77.2740   27.7570 C.3       1 ANP801      0.0000 
     22 N9         38.2820   77.9170   28.9780 N.pl3     1 ANP801      0.0000 
     23 C8         37.5640   78.7220   29.8390 C.2       1 ANP801      0.0000 
     24 N7         38.3180   79.1560   30.8720 N.2       1 ANP801      0.0000 
     25 C5         39.5530   78.6380   30.6770 C.ar      1 ANP801      0.0000 
     26 C6         40.8680   78.7260   31.3940 C.ar      1 ANP801      0.0000 
     27 N6         40.9530   79.4670   32.5370 N.pl3     1 ANP801      0.0000 
     28 N1         41.9270   78.0350   30.8380 N.ar      1 ANP801      0.0000 
     29 C2         41.8340   77.2740   29.6850 C.ar      1 ANP801      0.0000 
     30 N3         40.6750   77.2040   28.9800 N.ar      1 ANP801      0.0000 
     31 C4         39.5360   77.8180   29.4170 C.ar      1 ANP801      0.0000 
     32 H          34.6301   79.4848   26.7959 H         1 ANP801      0.0000 
     33 H          33.6183   78.0361   26.6631 H         1 ANP801      0.0000 
     34 H          35.6763   77.6972   25.4355 H         1 ANP801      0.0000 
     35 H          34.8543   75.8443   27.1870 H         1 ANP801      0.0000 
     36 H          36.0887   76.6347   28.9602 H         1 ANP801      0.0000 
     37 H          38.4736   76.8213   27.1704 H         1 ANP801      0.0000 
     38 H          36.6164   78.9438   29.7025 H         1 ANP801      0.0000 
     39 H          40.1043   79.8945   32.8484 H         1 ANP801      0.0000 
     40 H          41.8565   79.5173   32.9626 H         1 ANP801      0.0000 
     41 H          42.6753   76.7493   29.3615 H         1 ANP801      0.0000 
     42 H          36.0662   74.5126   25.9905 H         1 ANP801      0.0000 
     43 H          36.5289   74.4996   29.1393 H         1 ANP801      0.0000 
@<TRIPOS>BOND
     1    2    1 ar   
     2    3    1 ar   
     3    4    1 ar   
     4    8    1 1    
     5    6    5 ar   
     6    7    5 ar   
     7    8    5 1    
     8   12    5 1    
     9   10    9 ar   
    10   11    9 ar   
    11   12    9 1    
    12   13    9 1    
    13   14   13 1    
    14   15   14 1    
    15   32   14 1    
    16   33   14 1    
    17   16   15 1    
    18   17   15 1    
    19   34   15 1    
    20   21   16 1    
    21   18   17 1    
    22   19   17 1    
    23   35   17 1    
    24   42   18 1    
    25   20   19 1    
    26   21   19 1    
    27   36   19 1    
    28   43   20 1    
    29   22   21 1    
    30   37   21 1    
    31   23   22 1    
    32   31   22 1    
    33   24   23 2    
    34   38   23 1    
    35   25   24 1    
    36   26   25 ar   
    37   31   25 ar   
    38   27   26 1    
    39   28   26 ar   
    40   39   27 1    
    41   40   27 1    
    42   29   28 ar   
    43   30   29 ar   
    44   41   29 1    
    45   31   30 ar   
@<TRIPOS>SUBSTRUCTURE
     1 ANP801      1 GROUP   
@<TRIPOS>SET

