#    Name: 3dtt_NAP_1_INTS_M
#    Modification time : Tue Mar 25 00:19:48 2014

@<TRIPOS>MOLECULE
3dtt_NAP_1_INTS_M
   98     0    12     0     0
SMALL
NO_CHARGES


@<TRIPOS>ATOM
      1 CA         21.3795   49.0365   20.8435 C.3       4 GLC5        0.0000 
      2 CA         21.2950   48.2730   22.6580 C.3      12 GLL5        0.0000 
      3 CA         21.4640   49.8000   19.0290 C.3       8 GLP5        0.0000 
      4 N          20.1450   48.0295   20.4505 N.am      2 SEC2        0.0000 
      5 N          20.0420   48.3480   21.9820 N.am     10 SEL2        0.0000 
      6 N          20.2480   47.7110   18.9190 N.am      6 SEP2        0.0000 
      7 N          23.0805   50.2970   24.3640 N.am      2 SEC2        0.0000 
      8 N          21.6350   50.1770   24.1480 N.am     10 SEL2        0.0000 
      9 N          24.5260   50.4170   24.5800 N.am      6 SEP2        0.0000 
     10 CA         19.6985   49.9025   20.9680 C.3       4 GLC5        0.0000 
     11 CA         19.1300   49.0390   22.7860 C.3      12 GLL5        0.0000 
     12 CA         20.2670   50.7660   19.1500 C.3       8 GLP5        0.0000 
     13 CA         15.1565   51.2300   24.0685 C.3       4 GLC5        0.0000 
     14 CA         15.3290   51.2540   22.2540 C.3      12 GLL5        0.0000 
     15 CA         14.9840   51.2060   25.8830 C.3       8 GLP5        0.0000 
     16 CA         15.2540   49.8020   20.7170 C.3       4 GLC5        0.0000 
     17 CA         15.1790   48.3500   19.1800 C.3       8 GLP5        0.0000 
     18 CA         16.2840   52.3845   21.0250 C.3       4 GLC5        0.0000 
     19 CA         17.2390   53.5150   19.7960 C.3       8 GLP5        0.0000 
     20 N          27.7210   46.2155   20.9285 N.am      2 SEC2        0.0000 
     21 N          26.3100   45.8230   20.8400 N.am     10 SEL2        0.0000 
     22 N          29.1320   46.6080   21.0170 N.am      6 SEP2        0.0000 
     23 CA         22.9795   48.2045   18.7675 C.3       4 GLC5        0.0000 
     24 CA         24.4950   46.6090   18.5060 C.3      12 GLL5        0.0000 
     25 CA         21.4010   46.0970   17.4185 C.3       4 GLC5        0.0000 
     26 CA         23.1630   45.6820   16.5180 C.3      12 GLL5        0.0000 
     27 CA         19.6390   46.5120   18.3190 C.3       8 GLP5        0.0000 
     28 N          22.4300   46.1760   13.9950 N.am      2 SEC2        0.0000 
     29 N          22.2950   46.2490   15.5480 N.am     10 SEL2        0.0000 
     30 N          22.5650   46.1030   12.4420 N.am      6 SEP2        0.0000 
     31 O          21.8225   47.3365   16.3080 O.2       1 ALC1        0.0000 
     32 O          22.2950   46.2490   15.5480 O.2       9 ALL1        0.0000 
     33 O          21.3500   48.4240   17.0680 O.2       5 ALP1        0.0000 
     34 N          22.9285   44.9740   13.6860 N.am      2 SEC2        0.0000 
     35 N          23.2920   43.8450   14.9300 N.am     10 SEL2        0.0000 
     36 O          21.8780   44.1290   13.9980 O.2       1 ALC1        0.0000 
     37 O          23.2920   43.8450   14.9300 O.2       9 ALL1        0.0000 
     38 O          20.4640   44.4130   13.0660 O.2       5 ALP1        0.0000 
     39 CA         26.8190   45.7870   16.7405 C.3       4 GLC5        0.0000 
     40 CA         25.1560   45.4120   15.3450 C.3      12 GLL5        0.0000 
     41 CA         28.4820   46.1620   18.1360 C.3       8 GLP5        0.0000 
     42 CA         24.2010   46.8410   14.3060 C.3       4 GLC5        0.0000 
     43 CA         23.2460   48.2700   13.2670 C.3       8 GLP5        0.0000 
     44 N          31.4615   43.0235   16.9485 N.am      2 SEC2        0.0000 
     45 N          30.1930   42.4990   17.2880 N.am     10 SEL2        0.0000 
     46 N          32.7300   43.5480   16.6090 N.am      6 SEP2        0.0000 
     47 CA         30.8920   42.6805   14.8650 C.3       4 GLC5        0.0000 
     48 CA         28.9080   43.4890   14.8970 C.3      12 GLL5        0.0000 
     49 CA         32.8760   41.8720   14.8330 C.3       8 GLP5        0.0000 
     50 CA         27.8295   45.5465   16.0910 C.3       4 GLC5        0.0000 
     51 CA         27.1770   44.9310   14.0460 C.3      12 GLL5        0.0000 
     52 CA         27.7910   46.9680   13.9310 C.3       4 GLC5        0.0000 
     53 CA         28.4050   49.0050   13.8160 C.3       8 GLP5        0.0000 
     54 N          22.0670   49.9225   26.7995 N.am      2 SEC2        0.0000 
     55 N          20.8880   50.5280   26.7000 N.am     10 SEL2        0.0000 
     56 N          23.2460   49.3170   26.8990 N.am      6 SEP2        0.0000 
     57 N          20.8520   51.5005   27.5915 N.am      2 SEC2        0.0000 
     58 N          20.8160   52.4730   28.4830 N.am      6 SEP2        0.0000 
     59 NZ         17.1485   50.4435   26.7585 N.4       3 LYC4        0.0000 
     60 NZ         18.5140   50.8580   27.3010 N.4      11 LYL4        0.0000 
     61 NZ         15.3270   48.7750   26.2380 N.4       7 LYP4        0.0000 
     62 N          18.4595   52.3390   27.2460 N.am      2 SEC2        0.0000 
     63 N          18.5140   50.8580   27.3010 N.am     10 SEL2        0.0000 
     64 N          18.4050   53.8200   27.1910 N.am      6 SEP2        0.0000 
     65 N          17.1485   50.4435   26.7585 N.am      2 SEC2        0.0000 
     66 N          15.7830   50.0290   26.2160 N.am      6 SEP2        0.0000 
     67 N          18.2620   51.1805   28.6010 N.am      2 SEC2        0.0000 
     68 N          18.0100   51.5030   29.9010 N.am      6 SEP2        0.0000 
     69 NZ         19.0355   48.2505   28.5810 N.4       3 LYC4        0.0000 
     70 NZ         19.4540   48.5410   27.0890 N.4      11 LYL4        0.0000 
     71 NZ         19.7760   47.4730   30.5210 N.4       7 LYP4        0.0000 
     72 N          17.8105   48.1685   26.8205 N.am      2 SEC2        0.0000 
     73 N          19.4540   48.5410   27.0890 N.am     10 SEL2        0.0000 
     74 N          16.1670   47.7960   26.5520 N.am      6 SEP2        0.0000 
     75 N          20.1685   48.0770   28.4355 N.am      2 SEC2        0.0000 
     76 N          20.8830   47.6130   29.7820 N.am      6 SEP2        0.0000 
     77 N          19.0355   48.2505   28.5810 N.am      2 SEC2        0.0000 
     78 N          18.6170   47.9600   30.0730 N.am      6 SEP2        0.0000 
     79 CA         22.6388   50.1375   22.9677 C.3       4 GLC5        0.0000 
     80 CA         21.1220   48.8650   24.0530 C.3      12 GLL5        0.0000 
     81 CA         24.0690   51.7060   22.5800 C.3       8 GLP5        0.0000 
     82 CA         15.3897   50.1303   24.1972 C.3       4 GLC5        0.0000 
     83 CA         15.5490   48.4970   22.5480 C.3      12 GLL5        0.0000 
     84 CA         15.4872   48.7023   20.8457 C.3       4 GLC5        0.0000 
     85 CA         16.6760   49.3190   22.5480 C.3      12 GLL5        0.0000 
     86 CA         26.4128   46.4068   17.9482 C.3       4 GLC5        0.0000 
     87 CA         24.6598   48.8118   17.8633 C.3       4 GLC5        0.0000 
     88 CA         24.9760   50.9720   17.9660 C.3       8 GLP5        0.0000 
     89 CA         23.4618   47.2290   15.0168 C.3       4 GLC5        0.0000 
     90 CA         24.1920   46.6940   17.0150 C.3      12 GLL5        0.0000 
     91 CA         29.5825   44.9850   15.1755 C.3       4 GLC5        0.0000 
     92 CA         28.1720   43.3070   16.0570 C.3      12 GLL5        0.0000 
     93 CA         30.6250   46.5720   14.8740 C.3       8 GLP5        0.0000 
     94 CA         28.3555   44.8561   16.8248 C.3       4 GLC5        0.0000 
     95 CA         28.0025   45.6110   12.2380 C.3       4 GLC5        0.0000 
     96 CA         28.4110   44.3090   13.8940 C.3      12 GLL5        0.0000 
     97 CA         28.2110   46.6020   10.5060 C.3       8 GLP5        0.0000 
     98 CA         29.2095   45.5960   14.4220 C.3       4 GLC5        0.0000 
@<TRIPOS>BOND
@<TRIPOS>SUBSTRUCTURE
     1 ALC1       31 GROUP        1 X    ALC  0     ROOT ALC X 1
     2 SEC2        4 GROUP        1 X    SEC  0     **** SEC X 2
     3 LYC4       59 GROUP        1 X    LYC  0     **** LYC X 4
     4 GLC5        1 GROUP        1 X    GLC  0     **** GLC X 6
     5 ALP1       33 GROUP        1 Y    ALP  0     ROOT ALP Y 8
     6 SEP2        6 GROUP        1 Y    SEP  0     **** SEP Y 9
     7 LYP4       61 GROUP        1 Y    LYP  0     **** LYP Y 11
     8 GLP5        3 GROUP        1 Y    GLP  0     **** GLP Y 13
     9 ALL1       32 GROUP        1 Z    ALL  0     ROOT ALL Z 15
    10 SEL2        5 GROUP        1 Z    SEL  0     **** SEL Z 16
    11 LYL4       60 GROUP        1 Z    LYL  0     **** LYL Z 18
    12 GLL5        2 GROUP        1 Z    GLL  0     **** GLL Z 20
@<TRIPOS>SET

