#    Name: 3dtt_NAP_1_ligand
#    Modification time : Tue Mar 25 00:19:48 2014

@<TRIPOS>MOLECULE
3dtt_NAP_1_ligand
   73    77     1     0     0
SMALL
NO_CHARGES


@<TRIPOS>ATOM
      1 PA         22.4170   44.9230   21.0760 P.3       1 NAP300      0.0000 
      2 O1A        21.9770   44.5400   19.7130 O.co2     1 NAP300      0.0000 
      3 O2A        22.0420   43.9220   22.1040 O.co2     1 NAP300      0.0000 
      4 O5B        21.6990   46.3090   21.4150 O.3       1 NAP300      0.0000 
      5 C5B        21.7260   46.8180   22.7270 C.3       1 NAP300      0.0000 
      6 C4B        21.2950   48.2730   22.6580 C.3       1 NAP300      0.0000 
      7 O4B        20.0420   48.3480   21.9820 O.3       1 NAP300      0.0000 
      8 C3B        21.1220   48.8650   24.0530 C.3       1 NAP300      0.0000 
      9 O3B        21.6350   50.1770   24.1480 O.3       1 NAP300      0.0000 
     10 C2B        19.6270   48.8690   24.2180 C.3       1 NAP300      0.0000 
     11 O2B        19.1320   49.9120   25.0320 O.3       1 NAP300      0.0000 
     12 C1B        19.1300   49.0390   22.7860 C.3       1 NAP300      0.0000 
     13 N9A        17.7640   48.5220   22.7030 N.pl3     1 NAP300      0.0000 
     14 C8A        17.3320   47.2160   22.8120 C.2       1 NAP300      0.0000 
     15 N7A        15.9810   47.2240   22.7050 N.2       1 NAP300      0.0000 
     16 C5A        15.5490   48.4970   22.5480 C.ar      1 NAP300      0.0000 
     17 C6A        14.2810   49.0830   22.4020 C.ar      1 NAP300      0.0000 
     18 N6A        13.1640   48.3580   22.3390 N.pl3     1 NAP300      0.0000 
     19 N1A        14.1960   50.4580   22.2410 N.ar      1 NAP300      0.0000 
     20 C2A        15.3290   51.2540   22.2540 C.ar      1 NAP300      0.0000 
     21 N3A        16.5760   50.6710   22.4080 N.ar      1 NAP300      0.0000 
     22 C4A        16.6760   49.3190   22.5480 C.ar      1 NAP300      0.0000 
     23 O3         23.9480   45.3450   21.2300 O.3       1 NAP300      0.0000 
     24 PN         25.2370   44.9240   20.3830 P.3       1 NAP300      0.0000 
     25 O1N        26.3100   45.8230   20.8400 O.co2     1 NAP300      0.0000 
     26 O2N        25.4600   43.4620   20.4560 O.co2     1 NAP300      0.0000 
     27 O5D        24.8620   45.2980   18.8550 O.3       1 NAP300      0.0000 
     28 C5D        24.4950   46.6090   18.5060 C.3       1 NAP300      0.0000 
     29 C4D        24.1920   46.6940   17.0150 C.3       1 NAP300      0.0000 
     30 O4D        25.3830   46.4510   16.2880 O.3       1 NAP300      0.0000 
     31 C3D        23.1630   45.6820   16.5180 C.3       1 NAP300      0.0000 
     32 O3D        22.2950   46.2490   15.5480 O.3       1 NAP300      0.0000 
     33 C2D        23.9990   44.5800   15.8950 C.3       1 NAP300      0.0000 
     34 O2D        23.2920   43.8450   14.9300 O.3       1 NAP300      0.0000 
     35 C1D        25.1560   45.4120   15.3450 C.3       1 NAP300      0.0000 
     36 N1N        26.4440   44.7160   15.1860 N.pl3     1 NAP300      0.0000 
     37 C2N        26.9280   43.9160   16.2030 C.ar      1 NAP300      0.0000 
     38 C3N        28.1720   43.3070   16.0570 C.ar      1 NAP300      0.0000 
     39 C7N        28.8020   42.5950   17.2130 C.2       1 NAP300      0.0000 
     40 O7N        30.1930   42.4990   17.2880 O.2       1 NAP300      0.0000 
     41 N7N        28.0180   42.0890   18.1500 N.am      1 NAP300      0.0000 
     42 C4N        28.9080   43.4890   14.8970 C.ar      1 NAP300      0.0000 
     43 C5N        28.4110   44.3090   13.8940 C.ar      1 NAP300      0.0000 
     44 C6N        27.1770   44.9310   14.0460 C.ar      1 NAP300      0.0000 
     45 P2B        19.5080   49.9630   26.6000 P.3       1 NAP300      0.0000 
     46 O1X        20.8880   50.5280   26.7000 O.co2     1 NAP300      0.0000 
     47 O2X        18.5140   50.8580   27.3010 O.co2     1 NAP300      0.0000 
     48 O3X        19.4540   48.5410   27.0890 O.co2     1 NAP300      0.0000 
     49 H          22.7237   46.7853   23.1649 H         1 NAP300      0.0000 
     50 H          21.0355   46.2959   23.3895 H         1 NAP300      0.0000 
     51 H          22.0484   48.8346   22.1392 H         1 NAP300      0.0000 
     52 H          21.5324   48.1817   24.7540 H         1 NAP300      0.0000 
     53 H          19.3193   47.8907   24.5365 H         1 NAP300      0.0000 
     54 H          19.1424   50.1006   22.5834 H         1 NAP300      0.0000 
     55 H          17.8931   46.4568   22.9392 H         1 NAP300      0.0000 
     56 H          13.2777   47.3673   22.4136 H         1 NAP300      0.0000 
     57 H          12.3130   48.8701   22.2228 H         1 NAP300      0.0000 
     58 H          15.2452   52.2734   22.1498 H         1 NAP300      0.0000 
     59 H          25.2938   47.3363   18.7223 H         1 NAP300      0.0000 
     60 H          23.5956   46.9469   19.0452 H         1 NAP300      0.0000 
     61 H          23.8189   47.6889   16.7918 H         1 NAP300      0.0000 
     62 H          22.6572   45.2788   17.3616 H         1 NAP300      0.0000 
     63 H          24.3934   43.9966   16.7069 H         1 NAP300      0.0000 
     64 H          24.8479   45.8481   14.4048 H         1 NAP300      0.0000 
     65 H          26.3818   43.7691   17.0571 H         1 NAP300      0.0000 
     66 H          28.4785   41.6124   18.8989 H         1 NAP300      0.0000 
     67 H          27.0358   42.2289   18.0247 H         1 NAP300      0.0000 
     68 H          29.8137   43.0213   14.7799 H         1 NAP300      0.0000 
     69 H          28.9574   44.4582   13.0333 H         1 NAP300      0.0000 
     70 H          26.8222   45.5480   13.3028 H         1 NAP300      0.0000 
     71 H          21.3925   50.4835   25.0685 H         1 NAP300      0.0000 
     72 H          21.9233   47.0698   15.9818 H         1 NAP300      0.0000 
     73 H          22.5426   44.4435   14.6469 H         1 NAP300      0.0000 
@<TRIPOS>BOND
     1    2    1 ar   
     2    3    1 ar   
     3    4    1 1    
     4   23    1 1    
     5    5    4 1    
     6    6    5 1    
     7   49    5 1    
     8   50    5 1    
     9    7    6 1    
    10    8    6 1    
    11   51    6 1    
    12   12    7 1    
    13    9    8 1    
    14   10    8 1    
    15   52    8 1    
    16   71    9 1    
    17   11   10 1    
    18   12   10 1    
    19   53   10 1    
    20   45   11 1    
    21   13   12 1    
    22   54   12 1    
    23   14   13 1    
    24   22   13 1    
    25   15   14 2    
    26   55   14 1    
    27   16   15 1    
    28   17   16 ar   
    29   22   16 ar   
    30   18   17 1    
    31   19   17 ar   
    32   56   18 1    
    33   57   18 1    
    34   20   19 ar   
    35   21   20 ar   
    36   58   20 1    
    37   22   21 ar   
    38   24   23 1    
    39   25   24 ar   
    40   26   24 ar   
    41   27   24 1    
    42   28   27 1    
    43   29   28 1    
    44   59   28 1    
    45   60   28 1    
    46   30   29 1    
    47   31   29 1    
    48   61   29 1    
    49   35   30 1    
    50   32   31 1    
    51   33   31 1    
    52   62   31 1    
    53   72   32 1    
    54   34   33 1    
    55   35   33 1    
    56   63   33 1    
    57   73   34 1    
    58   36   35 1    
    59   64   35 1    
    60   37   36 ar   
    61   44   36 ar   
    62   38   37 ar   
    63   65   37 1    
    64   39   38 1    
    65   42   38 ar   
    66   40   39 2    
    67   41   39 am   
    68   66   41 1    
    69   67   41 1    
    70   43   42 ar   
    71   68   42 1    
    72   44   43 ar   
    73   69   43 1    
    74   70   44 1    
    75   46   45 ar   
    76   47   45 ar   
    77   48   45 ar   
@<TRIPOS>SUBSTRUCTURE
     1 NAP300      1 GROUP   
@<TRIPOS>SET

