#    Name: 3kdd_JZQ_1_INTS_M
#    Modification time : Mon Mar 24 19:17:49 2014

@<TRIPOS>MOLECULE
3kdd_JZQ_1_INTS_M
  115     0     9     0     0
SMALL
NO_CHARGES


@<TRIPOS>ATOM
      1 CA         21.0730   29.8645   13.3490 C.3       3 GLC5        0.0000 
      2 CA         20.9360   27.7840   13.9310 C.3       9 GLL5        0.0000 
      3 CA         21.2100   31.9450   12.7670 C.3       6 GLP5        0.0000 
      4 CA         21.4090   26.7360   12.4005 C.3       3 GLC5        0.0000 
      5 CA         21.8820   25.6880   10.8700 C.3       6 GLP5        0.0000 
      6 CA         20.5660   23.1240   16.0495 C.3       3 GLC5        0.0000 
      7 CA         20.0300   25.2410   15.6370 C.3       9 GLL5        0.0000 
      8 CA         21.1020   21.0070   16.4620 C.3       6 GLP5        0.0000 
      9 CA         22.0875   30.1940   13.8520 C.3       3 GLC5        0.0000 
     10 CA         22.9650   28.4430   14.9370 C.3       9 GLL5        0.0000 
     11 CA         22.8950   26.7020   13.6540 C.3       3 GLC5        0.0000 
     12 CA         21.7370   27.7920   15.0110 C.3       9 GLL5        0.0000 
     13 CA         24.0530   25.6120   12.2970 C.3       6 GLP5        0.0000 
     14 CA         19.5000   28.0315   16.7350 C.3       3 GLC5        0.0000 
     15 CA         21.3510   27.1650   16.1920 C.3       9 GLL5        0.0000 
     16 CA         17.6490   28.8980   17.2780 C.3       6 GLP5        0.0000 
     17 O          18.2575   26.1460   18.4715 O.2       1 ALC1        0.0000 
     18 O          18.3120   24.8540   17.3280 O.2       7 ALL1        0.0000 
     19 O          18.2030   27.4380   19.6150 O.2       4 ALP1        0.0000 
     20 N          14.5160   23.6080   20.0010 N.am      2 SEC2        0.0000 
     21 N          14.3210   23.1510   18.7030 N.am      8 SEL2        0.0000 
     22 N          14.7110   24.0650   21.2990 N.am      5 SEP2        0.0000 
     23 CA         16.0095   26.2260   19.1645 C.3       3 GLC5        0.0000 
     24 CA         15.9400   24.5570   17.7100 C.3       9 GLL5        0.0000 
     25 CA         16.0790   27.8950   20.6190 C.3       6 GLP5        0.0000 
     26 CA         16.8675   25.9705   20.0810 C.3       3 GLC5        0.0000 
     27 CA         17.6560   24.0460   19.5430 C.3       9 GLL5        0.0000 
     28 CA         22.6030   21.2005   21.0045 C.3       3 GLC5        0.0000 
     29 CA         21.5480   22.3650   20.2370 C.3       9 GLL5        0.0000 
     30 CA         23.6580   20.0360   21.7720 C.3       6 GLP5        0.0000 
     31 N          15.1240   24.8115   19.9740 N.am      2 SEC2        0.0000 
     32 N          15.5370   25.5580   18.6490 N.am      8 SEL2        0.0000 
     33 O          14.6140   26.3690   18.4545 O.2       1 ALC1        0.0000 
     34 O          15.5370   25.5580   18.6490 O.2       7 ALL1        0.0000 
     35 O          13.6910   27.1800   18.2600 O.2       4 ALP1        0.0000 
     36 CA         18.3710   20.3170   19.8250 C.3       3 GLC5        0.0000 
     37 CA         19.1960   22.0620   19.7970 C.3       9 GLL5        0.0000 
     38 CA         17.5460   18.5720   19.8530 C.3       6 GLP5        0.0000 
     39 CA         20.0130   19.8265   19.2195 C.3       3 GLC5        0.0000 
     40 CA         20.4580   21.5220   20.0270 C.3       9 GLL5        0.0000 
     41 CA         19.5680   18.1310   18.4120 C.3       6 GLP5        0.0000 
     42 CA         21.7810   20.2450   20.4610 C.3       3 GLC5        0.0000 
     43 CA         23.1040   18.9680   20.8950 C.3       6 GLP5        0.0000 
     44 CA         15.0215   24.0925   13.7570 C.3       3 GLC5        0.0000 
     45 CA         15.2200   23.2390   15.1980 C.3       9 GLL5        0.0000 
     46 CA         14.8230   24.9460   12.3160 C.3       6 GLP5        0.0000 
     47 CA         10.9170   23.9620   14.8355 C.3       3 GLC5        0.0000 
     48 CA         11.9340   22.7570   14.5910 C.3       9 GLL5        0.0000 
     49 CA          9.9000   25.1670   15.0800 C.3       6 GLP5        0.0000 
     50 CA         11.6105   22.6410   12.5575 C.3       3 GLC5        0.0000 
     51 CA         11.2870   22.5250   10.5240 C.3       6 GLP5        0.0000 
     52 CA         12.7945   24.3115   13.4605 C.3       3 GLC5        0.0000 
     53 CA         13.6550   25.8660   12.3300 C.3       6 GLP5        0.0000 
     54 CA         11.6315   20.7380   12.6645 C.3       3 GLC5        0.0000 
     55 CA         12.5540   20.3490   14.5550 C.3       9 GLL5        0.0000 
     56 CA         10.7090   21.1270   10.7740 C.3       6 GLP5        0.0000 
     57 CA         14.3285   19.2710   14.6855 C.3       3 GLC5        0.0000 
     58 CA         16.1030   18.1930   14.8160 C.3       6 GLP5        0.0000 
     59 CA         15.2950   20.1780   14.4195 C.3       3 GLC5        0.0000 
     60 CA         14.4870   22.1630   14.0230 C.3       9 GLL5        0.0000 
     61 O          11.8020   21.4155   17.8550 O.2       1 ALC1        0.0000 
     62 O          12.7750   20.1510   17.7610 O.2       7 ALL1        0.0000 
     63 O          10.8290   22.6800   17.9490 O.2       4 ALP1        0.0000 
     64 N           9.6470   19.7420   19.3350 N.am      2 SEC2        0.0000 
     65 N          10.3050   19.0900   18.0860 N.am      8 SEL2        0.0000 
     66 N           8.9890   20.3940   20.5840 N.am      5 SEP2        0.0000 
     67 N           9.4350   20.4355   17.3960 N.am      2 SEC2        0.0000 
     68 N           8.5650   21.7810   16.7060 N.am      5 SEP2        0.0000 
     69 CA         11.7970   20.3435   19.3725 C.3       3 GLC5        0.0000 
     70 CA         12.7160   18.7520   18.1230 C.3       9 GLL5        0.0000 
     71 CA         10.8780   21.9350   20.6220 C.3       6 GLP5        0.0000 
     72 CA         15.6960   18.8875   20.1125 C.3       3 GLC5        0.0000 
     73 CA         13.8460   19.2030   20.3720 C.3       9 GLL5        0.0000 
     74 CA         15.8500   18.3885   21.4470 C.3       3 GLC5        0.0000 
     75 CA         13.8510   18.8560   21.7200 C.3       9 GLL5        0.0000 
     76 CA         17.8490   17.9210   21.1740 C.3       6 GLP5        0.0000 
     77 CA         14.1345   20.5340   23.0005 C.3       3 GLC5        0.0000 
     78 CA         14.4180   22.2120   24.2810 C.3       6 GLP5        0.0000 
     79 CA         12.2225   15.3790   21.1415 C.3       3 GLC5        0.0000 
     80 CA         12.0500   17.2580   21.4170 C.3       9 GLL5        0.0000 
     81 CA         12.3950   13.5000   20.8660 C.3       6 GLP5        0.0000 
     82 CA          9.2265   17.8360   19.6335 C.3       3 GLC5        0.0000 
     83 CA         11.1530   17.0670   19.0160 C.3       9 GLL5        0.0000 
     84 CA          7.3000   18.6050   20.2510 C.3       6 GLP5        0.0000 
     85 CA         22.6445   29.8813   16.4597 C.3       3 GLC5        0.0000 
     86 CA         21.9030   31.3060   17.4280 C.3       6 GLP5        0.0000 
     87 CA         23.9465   27.7473   13.6937 C.3       3 GLC5        0.0000 
     88 CA         23.8070   28.4700   16.0460 C.3       9 GLL5        0.0000 
     89 CA         24.5070   27.0380   11.8960 C.3       6 GLP5        0.0000 
     90 CA         21.7235   29.3923   16.5147 C.3       3 GLC5        0.0000 
     91 CA         22.3567   29.4078   17.3430 C.3       3 GLC5        0.0000 
     92 CA         22.1970   27.1830   17.2930 C.3       9 GLL5        0.0000 
     93 CA         17.7213   22.5895   21.2335 C.3       3 GLC5        0.0000 
     94 CA         19.0230   23.4480   19.7890 C.3       9 GLL5        0.0000 
     95 CA         17.1030   21.4320   22.8010 C.3       6 GLP5        0.0000 
     96 CA         20.6008   21.5049   18.2133 C.3       3 GLC5        0.0000 
     97 CA         18.4650   21.6120   21.3565 C.3       3 GLC5        0.0000 
     98 CA         14.2913   23.4530   13.3910 C.3       3 GLC5        0.0000 
     99 CA         16.0988   22.6980   13.3293 C.3       3 GLC5        0.0000 
    100 CA         17.3440   22.6950   12.0480 C.3       6 GLP5        0.0000 
    101 CA         12.6528   20.0808   21.8502 C.3       3 GLC5        0.0000 
    102 CA         11.8950   21.7830   21.7230 C.3       6 GLP5        0.0000 
    103 CA         14.2978   16.5793   21.8142 C.3       3 GLC5        0.0000 
    104 CA         12.9700   17.9010   22.2350 C.3       9 GLL5        0.0000 
    105 CA         15.1850   14.7800   21.6510 C.3       6 GLP5        0.0000 
    106 CA         12.3085   20.0146   20.8730 C.3       3 GLC5        0.0000 
    107 CA         12.0610   17.6130   20.0750 C.3       9 GLL5        0.0000 
    108 CA         12.5755   15.6100   19.7193 C.3       3 GLC5        0.0000 
    109 CA         13.5440   13.8800   19.8930 C.3       6 GLP5        0.0000 
    110 CA         11.0125   17.0947   22.8620 C.3       3 GLC5        0.0000 
    111 CA          9.5150   16.6100   23.8980 C.3       6 GLP5        0.0000 
    112 CA         13.5786   17.2236   23.0616 C.3       3 GLC5        0.0000 
    113 CA         14.4270   16.6290   24.4260 C.3       6 GLP5        0.0000 
    114 CA         20.7193   23.0257   21.9976 C.3       3 GLC5        0.0000 
    115 CA         20.7000   23.1750   23.8980 C.3       6 GLP5        0.0000 
@<TRIPOS>BOND
@<TRIPOS>SUBSTRUCTURE
     1 ALC1       17 GROUP        1 X    ALC  0     ROOT ALC X 1
     2 SEC2       20 GROUP        1 X    SEC  0     **** SEC X 2
     3 GLC5        1 GROUP        1 X    GLC  0     **** GLC X 6
     4 ALP1       19 GROUP        1 Y    ALP  0     ROOT ALP Y 8
     5 SEP2       22 GROUP        1 Y    SEP  0     **** SEP Y 9
     6 GLP5        3 GROUP        1 Y    GLP  0     **** GLP Y 13
     7 ALL1       18 GROUP        1 Z    ALL  0     ROOT ALL Z 15
     8 SEL2       21 GROUP        1 Z    SEL  0     **** SEL Z 16
     9 GLL5        2 GROUP        1 Z    GLL  0     **** GLL Z 20
@<TRIPOS>SET

