#    Name: 3kdd_JZQ_1_ligand
#    Modification time : Mon Mar 24 19:17:49 2014

@<TRIPOS>MOLECULE
3kdd_JZQ_1_ligand
   80    84     1     0     0
SMALL
NO_CHARGES


@<TRIPOS>ATOM
      1 F1         20.9360   27.7840   13.9310 F         1 JZQ100      0.0000 
      2 F2         21.8310   26.5760   18.4360 F         1 JZQ100      0.0000 
      3 O2         20.1430   26.5120   16.2750 O.3       1 JZQ100      0.0000 
      4 O8         18.5390   23.4190   15.6150 O.2       1 JZQ100      0.0000 
      5 C12        18.8880   24.4270   16.2010 C.2       1 JZQ100      0.0000 
      6 C21        20.0300   25.2410   15.6370 C.3       1 JZQ100      0.0000 
      7 C40        23.8070   28.4700   16.0460 C.ar      1 JZQ100      0.0000 
      8 C41        22.9650   28.4430   14.9370 C.ar      1 JZQ100      0.0000 
      9 C42        21.7370   27.7920   15.0110 C.ar      1 JZQ100      0.0000 
     10 C45        21.3510   27.1650   16.1920 C.ar      1 JZQ100      0.0000 
     11 C46        22.1970   27.1830   17.2930 C.ar      1 JZQ100      0.0000 
     12 C47        23.4240   27.8360   17.2230 C.ar      1 JZQ100      0.0000 
     13 C16        14.8800   23.4820   17.6680 C.2       1 JZQ100      0.0000 
     14 N2         18.3120   24.8540   17.3280 N.am      1 JZQ100      0.0000 
     15 O3         14.3210   23.1510   18.7030 O.2       1 JZQ100      0.0000 
     16 C14        15.9400   24.5570   17.7100 C.3       1 JZQ100      0.0000 
     17 C22        19.0230   23.4480   19.7890 C.ar      1 JZQ100      0.0000 
     18 C15        17.6560   24.0460   19.5430 C.3       1 JZQ100      0.0000 
     19 C25        21.5480   22.3650   20.2370 C.ar      1 JZQ100      0.0000 
     20 C13        17.3440   24.0400   18.0450 C.3       1 JZQ100      0.0000 
     21 O5         15.5370   25.5580   18.6490 O.3       1 JZQ100      0.0000 
     22 C23        19.1960   22.0620   19.7970 C.ar      1 JZQ100      0.0000 
     23 C27        20.1130   24.2890   20.0070 C.ar      1 JZQ100      0.0000 
     24 C24        20.4580   21.5220   20.0270 C.ar      1 JZQ100      0.0000 
     25 C26        21.3800   23.7500   20.2270 C.ar      1 JZQ100      0.0000 
     26 C20        13.7810   20.6630   17.0470 C.2       1 JZQ100      0.0000 
     27 N3         14.5650   22.9520   16.4800 N.am      1 JZQ100      0.0000 
     28 O4         14.8870   20.1430   16.9220 O.2       1 JZQ100      0.0000 
     29 C17        13.4670   21.9680   16.3660 C.3       1 JZQ100      0.0000 
     30 C18        13.0320   21.7570   14.9090 C.3       1 JZQ100      0.0000 
     31 C19        15.2200   23.2390   15.1980 C.3       1 JZQ100      0.0000 
     32 C29        11.9340   22.7570   14.5910 C.3       1 JZQ100      0.0000 
     33 C30        12.5540   20.3490   14.5550 C.3       1 JZQ100      0.0000 
     34 S1         14.4870   22.1630   14.0230 S.3       1 JZQ100      0.0000 
     35 N4         12.7750   20.1510   17.7610 N.am      1 JZQ100      0.0000 
     36 O7         10.3050   19.0900   18.0860 O.3       1 JZQ100      0.0000 
     37 C31        12.7160   18.7520   18.1230 C.3       1 JZQ100      0.0000 
     38 C32        12.9200   18.5560   19.5700 C.ar      1 JZQ100      0.0000 
     39 C33        13.8460   19.2030   20.3720 C.ar      1 JZQ100      0.0000 
     40 C34        13.8510   18.8560   21.7200 C.ar      1 JZQ100      0.0000 
     41 C35        11.3370   18.1130   17.9220 C.3       1 JZQ100      0.0000 
     42 C36        12.0610   17.6130   20.0750 C.ar      1 JZQ100      0.0000 
     43 C37        12.0500   17.2580   21.4170 C.ar      1 JZQ100      0.0000 
     44 C38        12.9700   17.9010   22.2350 C.ar      1 JZQ100      0.0000 
     45 C39        11.1530   17.0670   19.0160 C.3       1 JZQ100      0.0000 
     46 H          20.9585   24.6496   15.7522 H         1 JZQ100      0.0000 
     47 H          19.8638   25.3512   14.5483 H         1 JZQ100      0.0000 
     48 H          24.7095   28.9578   15.9938 H         1 JZQ100      0.0000 
     49 H          23.2508   28.9040   14.0640 H         1 JZQ100      0.0000 
     50 H          24.0463   27.8494   18.0408 H         1 JZQ100      0.0000 
     51 H          18.5269   25.7824   17.7434 H         1 JZQ100      0.0000 
     52 H          15.9902   25.0109   16.7043 H         1 JZQ100      0.0000 
     53 H          17.6323   25.0701   19.9059 H         1 JZQ100      0.0000 
     54 H          16.9011   23.4638   20.0646 H         1 JZQ100      0.0000 
     55 H          22.4820   21.9642   20.4004 H         1 JZQ100      0.0000 
     56 H          17.4098   23.0094   17.6875 H         1 JZQ100      0.0000 
     57 H          18.3926   21.4448   19.6334 H         1 JZQ100      0.0000 
     58 H          19.9827   25.3087   20.0056 H         1 JZQ100      0.0000 
     59 H          20.5870   20.5030   20.0422 H         1 JZQ100      0.0000 
     60 H          22.1830   24.3670   20.3804 H         1 JZQ100      0.0000 
     61 H          12.5714   22.3980   16.8903 H         1 JZQ100      0.0000 
     62 H          16.2439   22.9744   15.1589 H         1 JZQ100      0.0000 
     63 H          15.0135   24.1994   14.8046 H         1 JZQ100      0.0000 
     64 H          11.9796   20.7441   18.0921 H         1 JZQ100      0.0000 
     65 H          13.4265   18.1502   17.5948 H         1 JZQ100      0.0000 
     66 H          14.4822   19.8876   20.0029 H         1 JZQ100      0.0000 
     67 H          14.5255   19.3170   22.3613 H         1 JZQ100      0.0000 
     68 H          11.3052   17.6344   16.9825 H         1 JZQ100      0.0000 
     69 H          11.4106   16.5724   21.7777 H         1 JZQ100      0.0000 
     70 H          13.0068   17.6716   23.2439 H         1 JZQ100      0.0000 
     71 H          11.4992   16.1341   18.6741 H         1 JZQ100      0.0000 
     72 H          10.1534   17.0720   19.3444 H         1 JZQ100      0.0000 
     73 H          12.2457   23.7001   14.7068 H         1 JZQ100      0.0000 
     74 H          11.6124   22.6682   13.6483 H         1 JZQ100      0.0000 
     75 H          11.1384   22.6363   15.1847 H         1 JZQ100      0.0000 
     76 H          13.2665   19.6648   14.7105 H         1 JZQ100      0.0000 
     77 H          11.7622   20.0771   15.1019 H         1 JZQ100      0.0000 
     78 H          12.2848   20.2787   13.5945 H         1 JZQ100      0.0000 
     79 H          14.5538   25.6681   18.5037 H         1 JZQ100      0.0000 
     80 H           9.7640   19.0382   17.2466 H         1 JZQ100      0.0000 
@<TRIPOS>BOND
     1    9    1 1    
     2   11    2 1    
     3    6    3 1    
     4   10    3 1    
     5    5    4 2    
     6    6    5 1    
     7   14    5 am   
     8   46    6 1    
     9   47    6 1    
    10    8    7 ar   
    11   12    7 ar   
    12   48    7 1    
    13    9    8 ar   
    14   49    8 1    
    15   10    9 ar   
    16   11   10 ar   
    17   12   11 ar   
    18   50   12 1    
    19   15   13 2    
    20   16   13 1    
    21   27   13 am   
    22   20   14 1    
    23   51   14 1    
    24   20   16 1    
    25   21   16 1    
    26   52   16 1    
    27   18   17 1    
    28   22   17 ar   
    29   23   17 ar   
    30   20   18 1    
    31   53   18 1    
    32   54   18 1    
    33   24   19 ar   
    34   25   19 ar   
    35   55   19 1    
    36   56   20 1    
    37   79   21 1    
    38   24   22 ar   
    39   57   22 1    
    40   25   23 ar   
    41   58   23 1    
    42   59   24 1    
    43   60   25 1    
    44   28   26 2    
    45   29   26 1    
    46   35   26 am   
    47   29   27 1    
    48   31   27 1    
    49   30   29 1    
    50   61   29 1    
    51   32   30 1    
    52   33   30 1    
    53   34   30 1    
    54   34   31 1    
    55   62   31 1    
    56   63   31 1    
    57   73   32 1    
    58   74   32 1    
    59   75   32 1    
    60   76   33 1    
    61   77   33 1    
    62   78   33 1    
    63   37   35 1    
    64   64   35 1    
    65   41   36 1    
    66   80   36 1    
    67   38   37 1    
    68   41   37 1    
    69   65   37 1    
    70   39   38 ar   
    71   42   38 ar   
    72   40   39 ar   
    73   66   39 1    
    74   44   40 ar   
    75   67   40 1    
    76   45   41 1    
    77   68   41 1    
    78   43   42 ar   
    79   45   42 1    
    80   44   43 ar   
    81   69   43 1    
    82   70   44 1    
    83   71   45 1    
    84   72   45 1    
@<TRIPOS>SUBSTRUCTURE
     1 JZQ100      1 GROUP   
@<TRIPOS>SET

