#    Name: 1cq6_PY4_1_INTS_M
#    Modification time : Mon Mar 24 20:51:50 2014

@<TRIPOS>MOLECULE
1cq6_PY4_1_INTS_M
   57     0    12     0     0
SMALL
NO_CHARGES


@<TRIPOS>ATOM
      1 N          27.1305    3.9290  -15.5160 N.am      2 SEC2        0.0000 
      2 N          26.6660    4.8700  -14.7930 N.am     10 SEL2        0.0000 
      3 N          27.5950    2.9880  -16.2390 N.am      6 SEP2        0.0000 
      4 CA         27.1030    7.7150  -17.8730 C.3       4 GLC5        0.0000 
      5 CA         27.1000    6.1970  -16.6950 C.3      12 GLL5        0.0000 
      6 CA         27.1060    9.2330  -19.0510 C.3       8 GLP5        0.0000 
      7 CA         25.0995    6.4395  -17.4520 C.3       4 GLC5        0.0000 
      8 CA         23.0990    6.6820  -18.2090 C.3       8 GLP5        0.0000 
      9 N          25.8255    9.1395  -16.1565 N.am      2 SEC2        0.0000 
     10 N          25.1830    8.0930  -15.3960 N.am     10 SEL2        0.0000 
     11 N          26.4680   10.1860  -16.9170 N.am      6 SEP2        0.0000 
     12 O          23.9085    8.2445  -15.9995 O.2       1 ALC1        0.0000 
     13 O          25.1830    8.0930  -15.3960 O.2       9 ALL1        0.0000 
     14 O          22.6340    8.3960  -16.6030 O.2       5 ALP1        0.0000 
     15 CA         25.8335    7.7860  -11.9030 C.3       4 GLC5        0.0000 
     16 CA         23.8280    7.5600  -12.7500 C.3      12 GLL5        0.0000 
     17 CA         27.8390    8.0120  -11.0560 C.3       8 GLP5        0.0000 
     18 CA         24.6720    2.7480  -11.1465 C.3       4 GLC5        0.0000 
     19 CA         24.7800    4.7720  -11.6930 C.3      12 GLL5        0.0000 
     20 CA         24.5640    0.7240  -10.6000 C.3       8 GLP5        0.0000 
     21 CA         26.5385    5.7490  -11.3130 C.3       4 GLC5        0.0000 
     22 CA         28.2970    6.7260  -10.9330 C.3       8 GLP5        0.0000 
     23 N          22.9130    2.3150  -10.1625 N.am      2 SEC2        0.0000 
     24 N          22.3450    3.5810  -10.6420 N.am     10 SEL2        0.0000 
     25 N          23.4810    1.0490   -9.6830 N.am      6 SEP2        0.0000 
     26 N          21.6300    2.8205  -11.3070 N.am      2 SEC2        0.0000 
     27 N          20.9150    2.0600  -11.9720 N.am      6 SEP2        0.0000 
     28 N          20.7930    3.7310  -10.3555 N.am      2 SEC2        0.0000 
     29 N          19.2410    3.8810  -10.0690 N.am      6 SEP2        0.0000 
     30 NZ         22.4265    5.1560   -7.9925 N.4       3 LYC4        0.0000 
     31 NZ         21.9460    5.8610   -9.4990 N.4      11 LYL4        0.0000 
     32 NZ         21.7010    4.5950   -5.9610 N.4       7 LYP4        0.0000 
     33 N          21.3280    5.4540   -8.1075 N.am      2 SEC2        0.0000 
     34 N          21.9460    5.8610   -9.4990 N.am     10 SEL2        0.0000 
     35 N          20.7100    5.0470   -6.7160 N.am      6 SEP2        0.0000 
     36 N          22.4265    5.1560   -7.9925 N.am      2 SEC2        0.0000 
     37 N          22.9070    4.4510   -6.4860 N.am      6 SEP2        0.0000 
     38 NZ         23.3095    4.3580   -7.7145 N.4       3 LYC4        0.0000 
     39 NZ         23.7120    4.2650   -8.9430 N.4      11 LYL4        0.0000 
     40 N          24.8565    3.1855   -9.0705 N.am      2 SEC2        0.0000 
     41 N          23.7120    4.2650   -8.9430 N.am     10 SEL2        0.0000 
     42 N          26.0010    2.1060   -9.1980 N.am      6 SEP2        0.0000 
     43 N          25.2515    4.5760   -8.8800 N.am      2 SEC2        0.0000 
     44 N          26.7910    4.8870   -8.8170 N.am      6 SEP2        0.0000 
     45 N          23.3095    4.3580   -7.7145 N.am      2 SEC2        0.0000 
     46 CA         26.0715    9.3650  -12.4785 C.3       4 GLC5        0.0000 
     47 CA         24.0360   10.0500  -12.7070 C.3      12 GLL5        0.0000 
     48 CA         28.1070    8.6800  -12.2500 C.3       8 GLP5        0.0000 
     49 CA         25.7630    8.7325  -10.6550 C.3       4 GLC5        0.0000 
     50 CA         23.6870    9.4530  -10.2540 C.3      12 GLL5        0.0000 
     51 CA         28.1863    7.5008  -15.8405 C.3       4 GLC5        0.0000 
     52 CA         26.3450    6.0740  -15.3810 C.3      12 GLL5        0.0000 
     53 CA         29.6500    8.8660  -15.6430 C.3       8 GLP5        0.0000 
     54 CA         24.5510    4.9062  -15.5648 C.3       4 GLC5        0.0000 
     55 CA         23.2270    3.2990  -16.0920 C.3       8 GLP5        0.0000 
     56 CA         24.4650    4.1122  -14.6982 C.3       4 GLC5        0.0000 
     57 CA         26.1470    4.4980  -13.6110 C.3      12 GLL5        0.0000 
@<TRIPOS>BOND
@<TRIPOS>SUBSTRUCTURE
     1 ALC1       12 GROUP        1 X    ALC  0     ROOT ALC X 1
     2 SEC2        1 GROUP        1 X    SEC  0     **** SEC X 2
     3 LYC4       30 GROUP        1 X    LYC  0     **** LYC X 4
     4 GLC5        4 GROUP        1 X    GLC  0     **** GLC X 6
     5 ALP1       14 GROUP        1 Y    ALP  0     ROOT ALP Y 8
     6 SEP2        3 GROUP        1 Y    SEP  0     **** SEP Y 9
     7 LYP4       32 GROUP        1 Y    LYP  0     **** LYP Y 11
     8 GLP5        6 GROUP        1 Y    GLP  0     **** GLP Y 13
     9 ALL1       13 GROUP        1 Z    ALL  0     ROOT ALL Z 15
    10 SEL2        2 GROUP        1 Z    SEL  0     **** SEL Z 16
    11 LYL4       31 GROUP        1 Z    LYL  0     **** LYL Z 18
    12 GLL5        5 GROUP        1 Z    GLL  0     **** GLL Z 20
@<TRIPOS>SET

