#    Name: 1cq6_PY4_1_ligand
#    Modification time : Mon Mar 24 20:51:50 2014

@<TRIPOS>MOLECULE
1cq6_PY4_1_ligand
   37    37     1     0     0
SMALL
NO_CHARGES


@<TRIPOS>ATOM
      1 N1         26.6660    4.8700  -14.7930 N.ar      1 PY4413      0.0000 
      2 C2         26.3450    6.0740  -15.3810 C.ar      1 PY4413      0.0000 
      3 C2A        27.1000    6.1970  -16.6950 C.3       1 PY4413      0.0000 
      4 C3         25.4050    6.9530  -14.6940 C.ar      1 PY4413      0.0000 
      5 O3         25.1830    8.0930  -15.3960 O.3       1 PY4413      0.0000 
      6 C4         24.8170    6.6330  -13.4730 C.ar      1 PY4413      0.0000 
      7 C4A        23.8280    7.5600  -12.7500 C.3       1 PY4413      0.0000 
      8 C5         25.2590    5.3530  -12.9980 C.ar      1 PY4413      0.0000 
      9 C6         26.1470    4.4980  -13.6110 C.ar      1 PY4413      0.0000 
     10 C5A        24.7800    4.7720  -11.6930 C.3       1 PY4413      0.0000 
     11 O4P        23.8560    5.4910  -10.9880 O.3       1 PY4413      0.0000 
     12 P          22.8420    4.7780  -10.0380 P.3       1 PY4413      0.0000 
     13 O1P        22.3450    3.5810  -10.6420 O.co2     1 PY4413      0.0000 
     14 O2P        21.9460    5.8610   -9.4990 O.co2     1 PY4413      0.0000 
     15 O3P        23.7120    4.2650   -8.9430 O.co2     1 PY4413      0.0000 
     16 N          23.7740    8.8460  -13.5780 N.4       1 PY4413      0.0000 
     17 CA         24.0360   10.0500  -12.7070 C.3       1 PY4413      0.0000 
     18 C          23.9820   11.3390  -13.5270 C.2       1 PY4413      0.0000 
     19 O          24.1820   11.0850  -14.8370 O.co2     1 PY4413      0.0000 
     20 CB         23.1020   10.1040  -11.5050 C.3       1 PY4413      0.0000 
     21 CG         23.6870    9.4530  -10.2540 C.3       1 PY4413      0.0000 
     22 OXT        23.7810   12.5280  -13.0320 O.co2     1 PY4413      0.0000 
     23 H          24.1934    7.7768  -11.7707 H         1 PY4413      0.0000 
     24 H          22.8629    7.1042  -12.7284 H         1 PY4413      0.0000 
     25 H          26.3944    3.6085  -13.1664 H         1 PY4413      0.0000 
     26 H          25.7130    4.5630  -11.0748 H         1 PY4413      0.0000 
     27 H          24.4075    3.7222  -11.9284 H         1 PY4413      0.0000 
     28 H          25.0706    9.9606  -12.3173 H         1 PY4413      0.0000 
     29 H          22.1573    9.6012  -11.7607 H         1 PY4413      0.0000 
     30 H          22.8628   11.1547  -11.2822 H         1 PY4413      0.0000 
     31 H          28.0902    6.1663  -16.5587 H         1 PY4413      0.0000 
     32 H          26.8681    5.4577  -17.3272 H         1 PY4413      0.0000 
     33 H          26.8949    7.0571  -17.1621 H         1 PY4413      0.0000 
     34 H          23.8978    8.4868  -10.4021 H         1 PY4413      0.0000 
     35 H          24.5354    9.8973   -9.9662 H         1 PY4413      0.0000 
     36 H          23.0547    9.4998   -9.4807 H         1 PY4413      0.0000 
     37 H          24.2257    8.0396  -15.6801 H         1 PY4413      0.0000 
@<TRIPOS>BOND
     1    2    1 ar   
     2    9    1 ar   
     3    3    2 1    
     4    4    2 ar   
     5   31    3 1    
     6   32    3 1    
     7   33    3 1    
     8    5    4 1    
     9    6    4 ar   
    10   37    5 1    
    11    7    6 1    
    12    8    6 ar   
    13   16    7 1    
    14   23    7 1    
    15   24    7 1    
    16    9    8 ar   
    17   10    8 1    
    18   25    9 1    
    19   11   10 1    
    20   26   10 1    
    21   27   10 1    
    22   12   11 1    
    23   13   12 ar   
    24   14   12 ar   
    25   15   12 ar   
    26   17   16 1    
    27   18   17 1    
    28   20   17 1    
    29   28   17 1    
    30   19   18 ar   
    31   22   18 ar   
    32   21   20 1    
    33   29   20 1    
    34   30   20 1    
    35   34   21 1    
    36   35   21 1    
    37   36   21 1    
@<TRIPOS>SUBSTRUCTURE
     1 PY4413      1 GROUP   
@<TRIPOS>SET

