#    Name: 1y56_FAD_3_INTS_M
#    Modification time : Tue Mar 25 10:48:03 2014

@<TRIPOS>MOLECULE
1y56_FAD_3_INTS_M
  132     0     9     0     0
SMALL
NO_CHARGES


@<TRIPOS>ATOM
      1 N         124.9190   54.9430   21.0590 N.am      2 SEC2        0.0000 
      2 N         126.2960   54.1980   20.6800 N.am      8 SEL2        0.0000 
      3 N         123.5420   55.6880   21.4380 N.am      5 SEP2        0.0000 
      4 N         123.1040   53.2750   20.0125 N.am      2 SEC2        0.0000 
      5 N         124.4430   52.5000   20.0910 N.am      8 SEL2        0.0000 
      6 N         121.7650   54.0500   19.9340 N.am      5 SEP2        0.0000 
      7 N         123.3960   51.9750   19.6580 N.am      2 SEC2        0.0000 
      8 N         122.3490   51.4500   19.2250 N.am      5 SEP2        0.0000 
      9 CA        129.1205   49.8030   22.7865 C.3       3 GLC5        0.0000 
     10 CA        128.1510   51.4710   22.7140 C.3       9 GLL5        0.0000 
     11 CA        130.0900   48.1350   22.8590 C.3       6 GLP5        0.0000 
     12 O         126.8765   50.4980   24.7565 O.2       1 ALC1        0.0000 
     13 O         126.3280   51.7240   24.2930 O.2       7 ALL1        0.0000 
     14 O         127.4250   49.2720   25.2200 O.2       4 ALP1        0.0000 
     15 CA        129.5985   53.7310   26.3250 C.3       3 GLC5        0.0000 
     16 CA        128.5310   52.7020   24.7500 C.3       9 GLL5        0.0000 
     17 CA        130.6660   54.7600   27.9000 C.3       6 GLP5        0.0000 
     18 O         127.6045   51.5340   26.5520 O.2       1 ALC1        0.0000 
     19 O         128.1040   52.5470   26.0940 O.2       7 ALL1        0.0000 
     20 O         127.1050   50.5210   27.0100 O.2       4 ALP1        0.0000 
     21 O         127.7645   50.9095   25.6570 O.2       1 ALC1        0.0000 
     22 CA        129.8300   49.8885   23.6820 C.3       3 GLC5        0.0000 
     23 CA        129.5700   51.6420   24.5050 C.3       9 GLL5        0.0000 
     24 CA        131.2795   51.2840   23.2345 C.3       3 GLC5        0.0000 
     25 CA        132.9890   50.9260   21.9640 C.3       6 GLP5        0.0000 
     26 CA        129.7305   53.6860   23.6145 C.3       3 GLC5        0.0000 
     27 CA        129.8910   55.7300   22.7240 C.3       6 GLP5        0.0000 
     28 CA        134.1780   49.8425   25.3080 C.3       3 GLC5        0.0000 
     29 CA        133.8570   51.4540   26.7140 C.3       9 GLL5        0.0000 
     30 CA        134.4990   48.2310   23.9020 C.3       6 GLP5        0.0000 
     31 CA        134.1770   51.6845   28.6650 C.3       3 GLC5        0.0000 
     32 CA        134.4970   51.9150   30.6160 C.3       6 GLP5        0.0000 
     33 CA        135.4470   50.0285   26.9765 C.3       3 GLC5        0.0000 
     34 CA        137.0370   48.6030   27.2390 C.3       6 GLP5        0.0000 
     35 O         136.1970   51.7095   27.8565 O.2       1 ALC1        0.0000 
     36 O         135.0140   52.1160   26.9660 O.2       7 ALL1        0.0000 
     37 O         137.3800   51.3030   28.7470 O.2       4 ALP1        0.0000 
     38 N         134.6670   49.6860   28.1980 N.am      2 SEC2        0.0000 
     39 N         133.6660   50.2140   27.2040 N.am      8 SEL2        0.0000 
     40 N         135.6680   49.1580   29.1920 N.am      5 SEP2        0.0000 
     41 CA        133.5120   48.8820   25.4330 C.3       3 GLC5        0.0000 
     42 CA        132.5250   49.5330   26.9640 C.3       9 GLL5        0.0000 
     43 CA        132.9780   47.4645   27.6465 C.3       3 GLC5        0.0000 
     44 CA        133.4310   45.3960   28.3290 C.3       6 GLP5        0.0000 
     45 CA        130.8515   48.4690   27.1850 C.3       3 GLC5        0.0000 
     46 CA        129.1780   47.4050   27.4060 C.3       6 GLP5        0.0000 
     47 CA        131.6960   50.4555   28.3455 C.3       3 GLC5        0.0000 
     48 CA        130.8670   51.3780   29.7270 C.3       6 GLP5        0.0000 
     49 CA        133.2305   49.4915   28.9060 C.3       3 GLC5        0.0000 
     50 CA        133.9360   49.4500   30.8480 C.3       6 GLP5        0.0000 
     51 N         130.5925   49.7700   27.4550 N.am      2 SEC2        0.0000 
     52 N         131.5420   50.0730   26.2260 N.am      8 SEL2        0.0000 
     53 N         129.6430   49.4670   28.6840 N.am      5 SEP2        0.0000 
     54 CA        130.9655   51.9455   27.3635 C.3       3 GLC5        0.0000 
     55 CA        131.7000   51.3210   25.7070 C.3       9 GLL5        0.0000 
     56 CA        130.2310   52.5700   29.0200 C.3       6 GLP5        0.0000 
     57 N         121.0400   53.7410   12.5110 N.am      2 SEC2        0.0000 
     58 N         120.1750   55.2420   12.4760 N.am      8 SEL2        0.0000 
     59 N         121.9050   52.2400   12.5460 N.am      5 SEP2        0.0000 
     60 N         119.8755   52.3020   10.8980 N.am      2 SEC2        0.0000 
     61 N         119.7940   53.6670   10.9460 N.am      8 SEL2        0.0000 
     62 N         119.9570   50.9370   10.8500 N.am      5 SEP2        0.0000 
     63 N         115.6445   55.1650   11.7740 N.am      2 SEC2        0.0000 
     64 N         116.3680   56.4410   11.8450 N.am      8 SEL2        0.0000 
     65 N         114.9210   53.8890   11.7030 N.am      5 SEP2        0.0000 
     66 N         117.0575   57.4630   14.7790 N.am      2 SEC2        0.0000 
     67 N         117.8680   57.8290   13.6810 N.am      8 SEL2        0.0000 
     68 N         116.2470   57.0970   15.8770 N.am      5 SEP2        0.0000 
     69 CA        116.4600   62.2800   17.4315 C.3       3 GLC5        0.0000 
     70 CA        118.3610   61.3930   16.9970 C.3       9 GLL5        0.0000 
     71 CA        114.5590   63.1670   17.8660 C.3       6 GLP5        0.0000 
     72 CA        121.5685   61.1545   19.0235 C.3       3 GLC5        0.0000 
     73 CA        121.1370   60.4660   17.4290 C.3       9 GLL5        0.0000 
     74 CA        122.0000   61.8430   20.6180 C.3       6 GLP5        0.0000 
     75 CA        123.2040   60.8900   18.1130 C.3       3 GLC5        0.0000 
     76 CA        125.2710   61.3140   18.7970 C.3       6 GLP5        0.0000 
     77 CA        122.1245   60.9165   15.7300 C.3       3 GLC5        0.0000 
     78 CA        123.1120   61.3670   14.0310 C.3       6 GLP5        0.0000 
     79 CA        119.1060   56.3840   15.2060 C.3       3 GLC5        0.0000 
     80 CA        119.9920   58.0340   14.8060 C.3       9 GLL5        0.0000 
     81 CA        118.2200   54.7340   15.6060 C.3       6 GLP5        0.0000 
     82 CA        122.6050   57.6520   12.8765 C.3       3 GLC5        0.0000 
     83 CA        121.9040   56.5910   14.3690 C.3       9 GLL5        0.0000 
     84 CA        123.3060   58.7130   11.3840 C.3       6 GLP5        0.0000 
     85 CA        120.8650   53.6490   14.4500 C.3       3 GLC5        0.0000 
     86 CA        121.9660   55.2950   15.1330 C.3       9 GLL5        0.0000 
     87 CA        119.7640   52.0030   13.7670 C.3       6 GLP5        0.0000 
     88 N         123.7020   54.4380   12.4970 N.am      2 SEC2        0.0000 
     89 N         123.9630   54.7850   13.8960 N.am      8 SEL2        0.0000 
     90 N         123.4410   54.0910   11.0980 N.am      5 SEP2        0.0000 
     91 CA        122.2110   52.3975   14.4810 C.3       3 GLC5        0.0000 
     92 CA        123.5050   53.5110   15.8980 C.3       9 GLL5        0.0000 
     93 CA        120.9170   51.2840   13.0640 C.3       6 GLP5        0.0000 
     94 O         122.6355   52.4985   18.2190 O.2       1 ALC1        0.0000 
     95 O         122.9220   53.5470   17.2130 O.2       7 ALL1        0.0000 
     96 O         122.3490   51.4500   19.2250 O.2       4 ALP1        0.0000 
     97 CA        125.4900   51.1600   15.3530 C.3       3 GLC5        0.0000 
     98 CA        124.9520   53.0690   16.0100 C.3       9 GLL5        0.0000 
     99 CA        126.0280   49.2510   14.6960 C.3       6 GLP5        0.0000 
    100 CA        126.4920   52.6925   14.4400 C.3       3 GLC5        0.0000 
    101 CA        128.0320   52.3160   12.8700 C.3       6 GLP5        0.0000 
    102 N         125.3865   48.9965   17.6200 N.am      2 SEC2        0.0000 
    103 N         125.9560   50.2410   18.3500 N.am      8 SEL2        0.0000 
    104 N         124.8170   47.7520   16.8900 N.am      5 SEP2        0.0000 
    105 CA        129.8537   51.8775   21.0720 C.3       3 GLC5        0.0000 
    106 CA        128.0860   51.9870   21.2900 C.3       9 GLL5        0.0000 
    107 CA        131.5890   52.0260   20.1420 C.3       6 GLP5        0.0000 
    108 CA        128.3158   53.8005   22.4855 C.3       3 GLC5        0.0000 
    109 CA        128.5130   55.8720   22.9690 C.3       6 GLP5        0.0000 
    110 CA        128.2545   54.2100   23.6010 C.3       3 GLC5        0.0000 
    111 CA        127.4610   52.3940   23.7160 C.3       9 GLL5        0.0000 
    112 CA        132.3028   52.6965   27.5427 C.3       3 GLC5        0.0000 
    113 CA        132.8580   52.0440   25.9470 C.3       9 GLL5        0.0000 
    114 CA        131.2480   53.6440   28.7550 C.3       6 GLP5        0.0000 
    115 CA        132.6340   51.3042   23.8955 C.3       3 GLC5        0.0000 
    116 CA        135.0788   51.8305   25.1277 C.3       3 GLC5        0.0000 
    117 CA        136.8000   51.9120   23.9250 C.3       6 GLP5        0.0000 
    118 CA        118.0838   57.7578   16.3010 C.3       3 GLC5        0.0000 
    119 CA        118.6660   58.4620   14.5810 C.3       9 GLL5        0.0000 
    120 CA        117.7610   56.5100   17.6640 C.3       6 GLP5        0.0000 
    121 CA        116.6968   58.0743   15.0300 C.3       3 GLC5        0.0000 
    122 CA        114.9870   57.1430   15.1220 C.3       6 GLP5        0.0000 
    123 CA        118.9731   57.9350   16.8528 C.3       3 GLC5        0.0000 
    124 CA        118.9360   60.2200   16.2350 C.3       9 GLL5        0.0000 
    125 CA        120.0775   55.3385   15.1785 C.3       3 GLC5        0.0000 
    126 CA        123.7512   53.5132   13.5463 C.3       3 GLC5        0.0000 
    127 CA        123.4120   54.8640   15.2170 C.3       9 GLL5        0.0000 
    128 CA        124.0440   52.8390   11.5350 C.3       6 GLP5        0.0000 
    129 CA        123.2987   51.4490   16.1500 C.3       3 GLC5        0.0000 
    130 CA        122.3690   49.6080   16.3460 C.3       6 GLP5        0.0000 
    131 CA        123.4205   55.3621   17.3142 C.3       3 GLC5        0.0000 
    132 CA        123.7440   56.4290   19.0920 C.3       6 GLP5        0.0000 
@<TRIPOS>BOND
@<TRIPOS>SUBSTRUCTURE
     1 ALC1       12 GROUP        1 X    ALC  0     ROOT ALC X 1
     2 SEC2        1 GROUP        1 X    SEC  0     **** SEC X 2
     3 GLC5        9 GROUP        1 X    GLC  0     **** GLC X 6
     4 ALP1       14 GROUP        1 Y    ALP  0     ROOT ALP Y 8
     5 SEP2        3 GROUP        1 Y    SEP  0     **** SEP Y 9
     6 GLP5       11 GROUP        1 Y    GLP  0     **** GLP Y 13
     7 ALL1       13 GROUP        1 Z    ALL  0     ROOT ALL Z 15
     8 SEL2        2 GROUP        1 Z    SEL  0     **** SEL Z 16
     9 GLL5       10 GROUP        1 Z    GLL  0     **** GLL Z 20
@<TRIPOS>SET

