#    Name: 1y56_FAD_3_ligand
#    Modification time : Tue Mar 25 10:48:03 2014

@<TRIPOS>MOLECULE
1y56_FAD_3_ligand
   84    89     1     0     0
SMALL
NO_CHARGES


@<TRIPOS>ATOM
      1 PA        125.9030   52.8700   20.1060 P.3       1 FAD800      0.0000 
      2 O1A       126.2960   54.1980   20.6800 O.co2     1 FAD800      0.0000 
      3 O2A       124.4430   52.5000   20.0910 O.co2     1 FAD800      0.0000 
      4 O5B       126.7710   51.7290   20.8260 O.3       1 FAD800      0.0000 
      5 C5B       128.0860   51.9870   21.2900 C.3       1 FAD800      0.0000 
      6 C4B       128.1510   51.4710   22.7140 C.3       1 FAD800      0.0000 
      7 O4B       129.5130   51.3720   23.1140 O.3       1 FAD800      0.0000 
      8 C3B       127.4610   52.3940   23.7160 C.3       1 FAD800      0.0000 
      9 O3B       126.3280   51.7240   24.2930 O.3       1 FAD800      0.0000 
     10 C2B       128.5310   52.7020   24.7500 C.3       1 FAD800      0.0000 
     11 O2B       128.1040   52.5470   26.0940 O.3       1 FAD800      0.0000 
     12 C1B       129.5700   51.6420   24.5050 C.3       1 FAD800      0.0000 
     13 N9A       130.9120   52.0770   24.9480 N.pl3     1 FAD800      0.0000 
     14 C8A       131.5270   53.2500   24.7060 C.2       1 FAD800      0.0000 
     15 N7A       132.7320   53.2320   25.3230 N.2       1 FAD800      0.0000 
     16 C5A       132.8580   52.0440   25.9470 C.ar      1 FAD800      0.0000 
     17 C6A       133.8570   51.4540   26.7140 C.ar      1 FAD800      0.0000 
     18 N6A       135.0140   52.1160   26.9660 N.pl3     1 FAD800      0.0000 
     19 N1A       133.6660   50.2140   27.2040 N.ar      1 FAD800      0.0000 
     20 C2A       132.5250   49.5330   26.9640 C.ar      1 FAD800      0.0000 
     21 N3A       131.5420   50.0730   26.2260 N.ar      1 FAD800      0.0000 
     22 C4A       131.7000   51.3210   25.7070 C.ar      1 FAD800      0.0000 
     23 N1        120.1750   55.2420   12.4760 N.2       1 FAD800      0.0000 
     24 C2        119.3590   54.6380   11.5920 C.2       1 FAD800      0.0000 
     25 O2        119.7940   53.6670   10.9460 O.2       1 FAD800      0.0000 
     26 N3        118.0920   55.0450   11.3810 N.am      1 FAD800      0.0000 
     27 C4        117.5530   56.0830   12.0490 C.2       1 FAD800      0.0000 
     28 O4        116.3680   56.4410   11.8450 O.2       1 FAD800      0.0000 
     29 C4X       118.3330   56.7700   12.9710 C.2       1 FAD800      0.0000 
     30 N5        117.8680   57.8290   13.6810 N.2       1 FAD800      0.0000 
     31 C5X       118.6660   58.4620   14.5810 C.ar      1 FAD800      0.0000 
     32 C6        118.1470   59.5490   15.2950 C.ar      1 FAD800      0.0000 
     33 C7        118.9360   60.2200   16.2350 C.ar      1 FAD800      0.0000 
     34 C7M       118.3610   61.3930   16.9970 C.3       1 FAD800      0.0000 
     35 C8        120.2550   59.7940   16.4510 C.ar      1 FAD800      0.0000 
     36 C8M       121.1370   60.4660   17.4290 C.3       1 FAD800      0.0000 
     37 C9        120.7750   58.7130   15.7400 C.ar      1 FAD800      0.0000 
     38 C9A       119.9920   58.0340   14.8060 C.ar      1 FAD800      0.0000 
     39 N10       120.5210   56.9900   14.1330 N.pl3     1 FAD800      0.0000 
     40 C10       119.7320   56.3000   13.1810 C.2       1 FAD800      0.0000 
     41 C1'       121.9040   56.5910   14.3690 C.3       1 FAD800      0.0000 
     42 C2'       121.9660   55.2950   15.1330 C.3       1 FAD800      0.0000 
     43 O2'       121.4920   55.5550   16.4480 O.3       1 FAD800      0.0000 
     44 C3'       123.4120   54.8640   15.2170 C.3       1 FAD800      0.0000 
     45 O3'       123.9630   54.7850   13.8960 O.3       1 FAD800      0.0000 
     46 C4'       123.5050   53.5110   15.8980 C.3       1 FAD800      0.0000 
     47 O4'       122.9220   53.5470   17.2130 O.3       1 FAD800      0.0000 
     48 C5'       124.9520   53.0690   16.0100 C.3       1 FAD800      0.0000 
     49 O5'       124.9280   51.9250   16.8520 O.3       1 FAD800      0.0000 
     50 P         126.2590   51.5130   17.6110 P.3       1 FAD800      0.0000 
     51 O1P       127.3820   51.5940   16.6100 O.co2     1 FAD800      0.0000 
     52 O2P       125.9560   50.2410   18.3500 O.co2     1 FAD800      0.0000 
     53 O3P       126.4440   52.7740   18.5980 O.3       1 FAD800      0.0000 
     54 H         128.3150   53.0483   21.3035 H         1 FAD800      0.0000 
     55 H         128.8368   51.4639   20.7056 H         1 FAD800      0.0000 
     56 H         127.6733   50.5049   22.7623 H         1 FAD800      0.0000 
     57 H         127.2033   53.2926   23.2108 H         1 FAD800      0.0000 
     58 H         128.9650   53.6405   24.5410 H         1 FAD800      0.0000 
     59 H         129.2650   50.7598   25.0677 H         1 FAD800      0.0000 
     60 H         131.1739   53.9798   24.1839 H         1 FAD800      0.0000 
     61 H         135.0697   53.0524   26.6194 H         1 FAD800      0.0000 
     62 H         135.7089   51.6091   27.4761 H         1 FAD800      0.0000 
     63 H         132.4083   48.5690   27.3611 H         1 FAD800      0.0000 
     64 H         117.5023   54.5332   10.6684 H         1 FAD800      0.0000 
     65 H         117.1801   59.8552   15.1268 H         1 FAD800      0.0000 
     66 H         121.7474   58.4124   15.9059 H         1 FAD800      0.0000 
     67 H         122.4361   57.3633   14.9425 H         1 FAD800      0.0000 
     68 H         122.4370   56.4635   13.4160 H         1 FAD800      0.0000 
     69 H         121.4011   54.5605   14.6342 H         1 FAD800      0.0000 
     70 H         123.9478   55.5836   15.8166 H         1 FAD800      0.0000 
     71 H         122.9859   52.7823   15.2763 H         1 FAD800      0.0000 
     72 H         125.5223   53.8802   16.4381 H         1 FAD800      0.0000 
     73 H         125.3143   52.8399   15.0187 H         1 FAD800      0.0000 
     74 H         119.0262   61.7852   17.6323 H         1 FAD800      0.0000 
     75 H         118.0721   62.1284   16.3840 H         1 FAD800      0.0000 
     76 H         117.5610   61.1295   17.5360 H         1 FAD800      0.0000 
     77 H         122.0417   60.0416   17.4661 H         1 FAD800      0.0000 
     78 H         121.2747   61.4305   17.2036 H         1 FAD800      0.0000 
     79 H         120.7593   60.4323   18.3543 H         1 FAD800      0.0000 
     80 H         126.6803   50.8415   24.6045 H         1 FAD800      0.0000 
     81 H         127.3611   51.8789   26.0540 H         1 FAD800      0.0000 
     82 H         121.9200   54.8555   17.0203 H         1 FAD800      0.0000 
     83 H         124.6986   54.1109   13.9624 H         1 FAD800      0.0000 
     84 H         122.9054   52.5938   17.5148 H         1 FAD800      0.0000 
@<TRIPOS>BOND
     1    2    1 ar   
     2    3    1 ar   
     3    4    1 1    
     4   53    1 1    
     5    5    4 1    
     6    6    5 1    
     7   54    5 1    
     8   55    5 1    
     9    7    6 1    
    10    8    6 1    
    11   56    6 1    
    12   12    7 1    
    13    9    8 1    
    14   10    8 1    
    15   57    8 1    
    16   80    9 1    
    17   11   10 1    
    18   12   10 1    
    19   58   10 1    
    20   81   11 1    
    21   13   12 1    
    22   59   12 1    
    23   14   13 1    
    24   22   13 1    
    25   15   14 2    
    26   60   14 1    
    27   16   15 1    
    28   17   16 ar   
    29   22   16 ar   
    30   18   17 1    
    31   19   17 ar   
    32   61   18 1    
    33   62   18 1    
    34   20   19 ar   
    35   21   20 ar   
    36   63   20 1    
    37   22   21 ar   
    38   24   23 1    
    39   40   23 2    
    40   25   24 2    
    41   26   24 am   
    42   27   26 am   
    43   64   26 1    
    44   28   27 2    
    45   29   27 1    
    46   30   29 2    
    47   40   29 1    
    48   31   30 1    
    49   32   31 ar   
    50   38   31 ar   
    51   33   32 ar   
    52   65   32 1    
    53   34   33 1    
    54   35   33 ar   
    55   74   34 1    
    56   75   34 1    
    57   76   34 1    
    58   36   35 1    
    59   37   35 ar   
    60   77   36 1    
    61   78   36 1    
    62   79   36 1    
    63   38   37 ar   
    64   66   37 1    
    65   39   38 1    
    66   40   39 1    
    67   41   39 1    
    68   42   41 1    
    69   67   41 1    
    70   68   41 1    
    71   43   42 1    
    72   44   42 1    
    73   69   42 1    
    74   82   43 1    
    75   45   44 1    
    76   46   44 1    
    77   70   44 1    
    78   83   45 1    
    79   47   46 1    
    80   48   46 1    
    81   71   46 1    
    82   84   47 1    
    83   49   48 1    
    84   72   48 1    
    85   73   48 1    
    86   50   49 1    
    87   51   50 ar   
    88   52   50 ar   
    89   53   50 1    
@<TRIPOS>SUBSTRUCTURE
     1 FAD800      1 GROUP   
@<TRIPOS>SET

