#    Name: 1q9s_FMN_2_INTS_M
#    Modification time : Mon Mar 24 23:17:06 2014

@<TRIPOS>MOLECULE
1q9s_FMN_2_INTS_M
   78     0    12     0     0
SMALL
NO_CHARGES


@<TRIPOS>ATOM
      1 N          28.1385   38.2105    3.9460 N.am      2 SEC2        0.0000 
      2 N          27.4200   38.9320    4.8630 N.am     10 SEL2        0.0000 
      3 N          28.8570   37.4890    3.0290 N.am      6 SEP2        0.0000 
      4 O          26.3710   40.5115    2.9135 O.2       1 ALC1        0.0000 
      5 O          26.0980   40.6730    4.2020 O.2       9 ALL1        0.0000 
      6 O          26.6440   40.3500    1.6250 O.2       5 ALP1        0.0000 
      7 N          23.7970   43.4995    3.1990 N.am      2 SEC2        0.0000 
      8 N          24.7510   42.4800    3.7260 N.am     10 SEL2        0.0000 
      9 N          22.8430   44.5190    2.6720 N.am      6 SEP2        0.0000 
     10 N          24.3045   44.0270    4.0905 N.am      2 SEC2        0.0000 
     11 N          23.8580   45.5740    4.4550 N.am      6 SEP2        0.0000 
     12 N          24.3740   41.7045    2.5130 N.am      2 SEC2        0.0000 
     13 N          23.9970   40.9290    1.3000 N.am      6 SEP2        0.0000 
     14 N          24.0880   44.3440    5.3845 N.am      2 SEC2        0.0000 
     15 N          24.3180   43.1140    6.3140 N.am     10 SEL2        0.0000 
     16 CA         21.6960   46.8770   11.0000 C.3       4 GLC5        0.0000 
     17 CA         22.2050   46.0310    9.6550 C.3      12 GLL5        0.0000 
     18 CA         21.1870   47.7230   12.3450 C.3       8 GLP5        0.0000 
     19 CA         24.1885   46.8210    9.7455 C.3       4 GLC5        0.0000 
     20 CA         26.1720   47.6110    9.8360 C.3       8 GLP5        0.0000 
     21 CA         21.9080   47.6865    8.4810 C.3       4 GLC5        0.0000 
     22 CA         21.6110   49.3420    7.3070 C.3       8 GLP5        0.0000 
     23 CA         24.2790   43.4595   13.1405 C.3       4 GLC5        0.0000 
     24 CA         23.4100   44.2560   11.7120 C.3      12 GLL5        0.0000 
     25 CA         25.1480   42.6630   14.5690 C.3       8 GLP5        0.0000 
     26 CA         22.2985   45.9895   12.0285 C.3       4 GLC5        0.0000 
     27 CA         23.3805   45.2850   13.4770 C.3       4 GLC5        0.0000 
     28 CA         23.3510   46.3140   15.2420 C.3       8 GLP5        0.0000 
     29 CA         23.5410   40.6390    9.4015 C.3       4 GLC5        0.0000 
     30 CA         25.6650   40.3600    9.2700 C.3      12 GLL5        0.0000 
     31 CA         21.4170   40.9180    9.5330 C.3       8 GLP5        0.0000 
     32 CA         26.0435   38.4270    8.2265 C.3       4 GLC5        0.0000 
     33 CA         26.4220   36.4940    7.1830 C.3       8 GLP5        0.0000 
     34 CA         28.8260   41.7075   10.1970 C.3       4 GLC5        0.0000 
     35 CA         27.0930   40.4880    9.7770 C.3      12 GLL5        0.0000 
     36 CA         30.5590   42.9270   10.6170 C.3       8 GLP5        0.0000 
     37 O          25.8120   39.5140   12.7600 O.2       1 ALC1        0.0000 
     38 O          26.3220   40.3450   12.0540 O.2       9 ALL1        0.0000 
     39 O          25.3020   38.6830   13.4660 O.2       5 ALP1        0.0000 
     40 CA         29.6180   41.4190   11.1485 C.3       4 GLC5        0.0000 
     41 CA         28.6770   39.9110   11.6800 C.3      12 GLL5        0.0000 
     42 CA         29.9475   39.3970    9.9990 C.3       4 GLC5        0.0000 
     43 CA         31.2180   38.8830    8.3180 C.3       8 GLP5        0.0000 
     44 Zn         26.8700   38.6485   16.4280 Zn        3 ZIC7        0.0000 
     45 Zn         27.2780   38.2610   15.6070 Zn       11 ZIL7        0.0000 
     46 Zn         26.4620   39.0360   17.2490 Zn        7 ZIP7        0.0000 
     47 N          26.0915   37.1105   15.8530 N.am      2 SEC2        0.0000 
     48 N          27.2780   38.2610   15.6070 N.am     10 SEL2        0.0000 
     49 N          24.9050   35.9600   16.0990 N.am      6 SEP2        0.0000 
     50 N          28.8975   35.1765   15.4945 N.am      2 SEC2        0.0000 
     51 N          28.1940   36.0430   14.7850 N.am     10 SEL2        0.0000 
     52 N          29.6010   34.3100   16.2040 N.am      6 SEP2        0.0000 
     53 N          31.0330   38.0010   15.5620 N.am      2 SEC2        0.0000 
     54 N          29.7480   37.8970   15.4870 N.am     10 SEL2        0.0000 
     55 N          32.3180   38.1050   15.6370 N.am      6 SEP2        0.0000 
     56 N          30.4595   39.2595   15.2720 N.am      2 SEC2        0.0000 
     57 N          31.1710   40.6220   15.0570 N.am      6 SEP2        0.0000 
     58 CA         22.6240   42.7332    7.1550 C.3       4 GLC5        0.0000 
     59 CA         24.5820   42.5380    8.6330 C.3      12 GLL5        0.0000 
     60 CA         20.9160   42.5010    6.1840 C.3       8 GLP5        0.0000 
     61 CA         22.5678   42.4410    8.6635 C.3       4 GLC5        0.0000 
     62 CA         24.0820   43.3930    7.6190 C.3      12 GLL5        0.0000 
     63 CA         25.0244   45.2362    8.2105 C.3       4 GLC5        0.0000 
     64 CA         23.1090   44.8350    9.3240 C.3      12 GLL5        0.0000 
     65 CA         26.6350   46.0730    7.8620 C.3       8 GLP5        0.0000 
     66 CA         21.3392   45.2815    8.2189 C.3       4 GLC5        0.0000 
     67 CA         23.3550   44.5350    7.9690 C.3      12 GLL5        0.0000 
     68 CA         19.9600   45.2050    7.2870 C.3       8 GLP5        0.0000 
     69 CA         22.4015   42.6249   10.1541 C.3       4 GLC5        0.0000 
     70 CA         22.9402   41.8025    9.4240 C.3       4 GLC5        0.0000 
     71 CA         24.3450   42.8360    9.9970 C.3      12 GLL5        0.0000 
     72 CA         25.8685   44.0100    9.0085 C.3       4 GLC5        0.0000 
     73 CA         27.4560   45.0470    8.6130 C.3       8 GLP5        0.0000 
     74 CA         30.5262   38.9903   12.7973 C.3       4 GLC5        0.0000 
     75 CA         32.3300   38.2810   13.1790 C.3       8 GLP5        0.0000 
     76 CA         29.6807   40.8362   13.7048 C.3       4 GLC5        0.0000 
     77 CA         28.7680   39.4880   13.1510 C.3      12 GLL5        0.0000 
     78 CA         30.6390   41.9730   14.9940 C.3       8 GLP5        0.0000 
@<TRIPOS>BOND
@<TRIPOS>SUBSTRUCTURE
     1 ALC1        4 GROUP        1 X    ALC  0     ROOT ALC X 1
     2 SEC2        1 GROUP        1 X    SEC  0     **** SEC X 2
     3 ZIC7       44 GROUP        1 X    ZIC  0     **** ZIC X 5
     4 GLC5       16 GROUP        1 X    GLC  0     **** GLC X 6
     5 ALP1        6 GROUP        1 Y    ALP  0     ROOT ALP Y 8
     6 SEP2        3 GROUP        1 Y    SEP  0     **** SEP Y 9
     7 ZIP7       46 GROUP        1 Y    ZIP  0     **** ZIP Y 12
     8 GLP5       18 GROUP        1 Y    GLP  0     **** GLP Y 13
     9 ALL1        5 GROUP        1 Z    ALL  0     ROOT ALL Z 15
    10 SEL2        2 GROUP        1 Z    SEL  0     **** SEL Z 16
    11 ZIL7       45 GROUP        1 Z    ZIL  0     **** ZIL Z 19
    12 GLL5       17 GROUP        1 Z    GLL  0     **** GLL Z 20
@<TRIPOS>SET

