#    Name: 1q9s_FMN_2_ligand
#    Modification time : Mon Mar 24 23:17:06 2014

@<TRIPOS>MOLECULE
1q9s_FMN_2_ligand
   50    52     1     0     0
SMALL
NO_CHARGES


@<TRIPOS>ATOM
      1 N1         26.4170   40.0870    6.5280 N.2       1 FMN401      0.0000 
      2 C2         26.6700   39.8400    5.1820 C.2       1 FMN401      0.0000 
      3 O2         27.4200   38.9320    4.8630 O.2       1 FMN401      0.0000 
      4 N3         26.0980   40.6730    4.2020 N.am      1 FMN401      0.0000 
      5 C4         25.2880   41.7790    4.5850 C.2       1 FMN401      0.0000 
      6 O4         24.7510   42.4800    3.7260 O.2       1 FMN401      0.0000 
      7 C4A        25.0560   42.0370    5.9360 C.2       1 FMN401      0.0000 
      8 N5         24.3180   43.1140    6.3140 N.2       1 FMN401      0.0000 
      9 C5A        24.0820   43.3930    7.6190 C.ar      1 FMN401      0.0000 
     10 C6         23.3550   44.5350    7.9690 C.ar      1 FMN401      0.0000 
     11 C7         23.1090   44.8350    9.3240 C.ar      1 FMN401      0.0000 
     12 C7M        22.2050   46.0310    9.6550 C.3       1 FMN401      0.0000 
     13 C8         23.6150   43.9800   10.3530 C.ar      1 FMN401      0.0000 
     14 C8M        23.4100   44.2560   11.7120 C.3       1 FMN401      0.0000 
     15 C9         24.3450   42.8360    9.9970 C.ar      1 FMN401      0.0000 
     16 C9A        24.5820   42.5380    8.6330 C.ar      1 FMN401      0.0000 
     17 N10        25.3410   41.4060    8.2610 N.pl3     1 FMN401      0.0000 
     18 C10        25.6060   41.1720    6.9070 C.2       1 FMN401      0.0000 
     19 C1'        25.6650   40.3600    9.2700 C.3       1 FMN401      0.0000 
     20 C2'        27.0930   40.4880    9.7770 C.3       1 FMN401      0.0000 
     21 O2'        27.9680   39.9200    8.7990 O.3       1 FMN401      0.0000 
     22 C3'        27.2480   39.7700   11.1250 C.3       1 FMN401      0.0000 
     23 O3'        26.3220   40.3450   12.0540 O.3       1 FMN401      0.0000 
     24 C4'        28.6770   39.9110   11.6800 C.3       1 FMN401      0.0000 
     25 O4'        29.5750   39.1140   10.8990 O.3       1 FMN401      0.0000 
     26 C5'        28.7680   39.4880   13.1510 C.3       1 FMN401      0.0000 
     27 O5'        28.4030   38.1160   13.3460 O.3       1 FMN401      0.0000 
     28 P          28.3050   37.5260   14.8560 P.3       1 FMN401      0.0000 
     29 O1P        27.2780   38.2610   15.6070 O.co2     1 FMN401      0.0000 
     30 O2P        28.1940   36.0430   14.7850 O.co2     1 FMN401      0.0000 
     31 O3P        29.7480   37.8970   15.4870 O.co2     1 FMN401      0.0000 
     32 H          26.2607   40.4889    3.2102 H         1 FMN401      0.0000 
     33 H          22.9966   45.1611    7.2391 H         1 FMN401      0.0000 
     34 H          24.7098   42.2113   10.7209 H         1 FMN401      0.0000 
     35 H          25.5355   39.3622    8.8306 H         1 FMN401      0.0000 
     36 H          24.9797   40.4380   10.1243 H         1 FMN401      0.0000 
     37 H          27.3037   41.5354    9.9250 H         1 FMN401      0.0000 
     38 H          27.0437   38.7236   10.9759 H         1 FMN401      0.0000 
     39 H          28.9533   40.9613   11.6177 H         1 FMN401      0.0000 
     40 H          28.1156   40.1661   13.7317 H         1 FMN401      0.0000 
     41 H          29.8029   39.6826   13.4883 H         1 FMN401      0.0000 
     42 H          22.0985   46.1542   10.6417 H         1 FMN401      0.0000 
     43 H          22.5729   46.8866    9.2908 H         1 FMN401      0.0000 
     44 H          21.2876   45.9202    9.2727 H         1 FMN401      0.0000 
     45 H          23.8279   43.5626   12.2990 H         1 FMN401      0.0000 
     46 H          23.8018   45.1376   11.9752 H         1 FMN401      0.0000 
     47 H          22.4373   44.2872   11.9420 H         1 FMN401      0.0000 
     48 H          27.3783   39.6972    8.0227 H         1 FMN401      0.0000 
     49 H          26.3301   39.7294   12.8420 H         1 FMN401      0.0000 
     50 H          29.2453   39.1990    9.9588 H         1 FMN401      0.0000 
@<TRIPOS>BOND
     1    2    1 1    
     2   18    1 2    
     3    3    2 2    
     4    4    2 am   
     5    5    4 am   
     6   32    4 1    
     7    6    5 2    
     8    7    5 1    
     9    8    7 2    
    10   18    7 1    
    11    9    8 1    
    12   10    9 ar   
    13   16    9 ar   
    14   11   10 ar   
    15   33   10 1    
    16   12   11 1    
    17   13   11 ar   
    18   42   12 1    
    19   43   12 1    
    20   44   12 1    
    21   14   13 1    
    22   15   13 ar   
    23   45   14 1    
    24   46   14 1    
    25   47   14 1    
    26   16   15 ar   
    27   34   15 1    
    28   17   16 1    
    29   18   17 1    
    30   19   17 1    
    31   20   19 1    
    32   35   19 1    
    33   36   19 1    
    34   21   20 1    
    35   22   20 1    
    36   37   20 1    
    37   48   21 1    
    38   23   22 1    
    39   24   22 1    
    40   38   22 1    
    41   49   23 1    
    42   25   24 1    
    43   26   24 1    
    44   39   24 1    
    45   50   25 1    
    46   27   26 1    
    47   40   26 1    
    48   41   26 1    
    49   28   27 1    
    50   29   28 ar   
    51   30   28 ar   
    52   31   28 ar   
@<TRIPOS>SUBSTRUCTURE
     1 FMN401      1 GROUP   
@<TRIPOS>SET

