#    Name: 3r2y_P4O_1_INTS_M
#    Modification time : Tue Mar 25 10:29:33 2014

@<TRIPOS>MOLECULE
3r2y_P4O_1_INTS_M
   66     0     6     0     0
SMALL
NO_CHARGES


@<TRIPOS>ATOM
      1 CA          8.6895   18.5650   50.3065 C.3       2 GLC5        0.0000 
      2 CA          6.8640   19.7810   50.4750 C.3       6 GLL5        0.0000 
      3 CA         10.5150   17.3490   50.1380 C.3       4 GLP5        0.0000 
      4 CA          9.4990   19.6690   48.3055 C.3       2 GLC5        0.0000 
      5 CA          7.7990   20.6640   48.5620 C.3       6 GLL5        0.0000 
      6 CA         11.1990   18.6740   48.0490 C.3       4 GLP5        0.0000 
      7 CA          9.2560   21.8010   48.7765 C.3       2 GLC5        0.0000 
      8 CA         10.7130   22.9380   48.9910 C.3       4 GLP5        0.0000 
      9 CA          7.1205   22.1665   50.0655 C.3       2 GLC5        0.0000 
     10 CA          6.4420   23.6690   51.5690 C.3       4 GLP5        0.0000 
     11 CA          6.3845   21.9215   46.4655 C.3       2 GLC5        0.0000 
     12 CA          7.1980   19.8880   46.2360 C.3       6 GLL5        0.0000 
     13 CA          5.5710   23.9550   46.6950 C.3       4 GLP5        0.0000 
     14 N           7.8050   22.4100   46.5035 N.am      1 SEC2        0.0000 
     15 N           7.6820   20.9990   45.7020 N.am      5 SEL2        0.0000 
     16 N           7.9280   23.8210   47.3050 N.am      3 SEP2        0.0000 
     17 CA          7.5320   22.6930   42.8640 C.3       2 GLC5        0.0000 
     18 CA          7.8610   21.1610   44.4030 C.3       6 GLL5        0.0000 
     19 CA          7.2030   24.2250   41.3250 C.3       4 GLP5        0.0000 
     20 CA          9.0545   22.5960   45.5090 C.3       2 GLC5        0.0000 
     21 CA         10.2480   24.0310   46.6150 C.3       4 GLP5        0.0000 
     22 CA          8.4950   19.1230   41.5350 C.3       2 GLC5        0.0000 
     23 CA          6.7860   17.8920   41.7650 C.3       6 GLL5        0.0000 
     24 CA         10.2040   20.3540   41.3050 C.3       4 GLP5        0.0000 
     25 CA          4.6850   16.8660   39.7350 C.3       2 GLC5        0.0000 
     26 CA          6.2450   16.6940   41.3070 C.3       6 GLL5        0.0000 
     27 CA          3.1250   17.0380   38.1630 C.3       4 GLP5        0.0000 
     28 N           7.0960   16.2540   37.8405 N.am      1 SEC2        0.0000 
     29 N           6.6000   16.7920   39.0120 N.am      5 SEL2        0.0000 
     30 N           7.5920   15.7160   36.6690 N.am      3 SEP2        0.0000 
     31 CA          5.7440   11.9695   40.5360 C.3       2 GLC5        0.0000 
     32 CA          5.5530   13.9880   40.9510 C.3       6 GLL5        0.0000 
     33 CA          5.9350    9.9510   40.1210 C.3       4 GLP5        0.0000 
     34 CA          6.0490   14.0385   44.0645 C.3       2 GLC5        0.0000 
     35 CA          5.0780   14.6590   42.2460 C.3       6 GLL5        0.0000 
     36 CA          7.0200   13.4180   45.8830 C.3       4 GLP5        0.0000 
     37 CA          7.7615   17.8655   48.4693 C.3       2 GLC5        0.0000 
     38 CA          6.1940   18.9140   48.3120 C.3       6 GLL5        0.0000 
     39 CA          9.3860   16.8330   47.9310 C.3       4 GLP5        0.0000 
     40 CA          5.1578   19.6735   46.9057 C.3       2 GLC5        0.0000 
     41 CA          3.6880   19.9840   45.7950 C.3       4 GLP5        0.0000 
     42 CA          3.5808   19.2488   50.9263 C.3       2 GLC5        0.0000 
     43 CA          5.2090   17.9730   50.3250 C.3       6 GLL5        0.0000 
     44 CA          1.9930   20.5340   50.8490 C.3       4 GLP5        0.0000 
     45 CA          6.6245   21.7145   51.3740 C.3       2 GLC5        0.0000 
     46 CA          6.7500   19.7390   51.8830 C.3       6 GLL5        0.0000 
     47 CA          7.0195   22.2520   47.9567 C.3       2 GLC5        0.0000 
     48 CA          6.6090   24.2660   47.7720 C.3       4 GLP5        0.0000 
     49 CA          5.3493   19.6765   45.8045 C.3       2 GLC5        0.0000 
     50 CA          8.1811   18.0915   47.0581 C.3       2 GLC5        0.0000 
     51 CA          6.8230   18.8500   45.3920 C.3       6 GLL5        0.0000 
     52 CA          8.6728   17.6870   44.4622 C.3       2 GLC5        0.0000 
     53 CA         10.4480   16.4540   44.2240 C.3       4 GLP5        0.0000 
     54 CA          9.4877   20.5648   44.1575 C.3       2 GLC5        0.0000 
     55 CA          7.5040   20.1740   43.5110 C.3       6 GLL5        0.0000 
     56 CA         11.2930   20.4620   44.3580 C.3       4 GLP5        0.0000 
     57 CA          6.4008   22.2788   44.0900 C.3       2 GLC5        0.0000 
     58 CA          5.1190   23.8900   44.2230 C.3       4 GLP5        0.0000 
     59 CA          8.7656   20.0914   42.6440 C.3       2 GLC5        0.0000 
     60 CA          6.9720   18.9900   44.0090 C.3       6 GLL5        0.0000 
     61 CA          5.2973   19.3643   44.6130 C.3       2 GLC5        0.0000 
     62 CA          6.5750   17.9070   43.1020 C.3       6 GLL5        0.0000 
     63 CA          7.4233   14.6803   42.0192 C.3       2 GLC5        0.0000 
     64 CA          9.5310   15.0370   42.4400 C.3       4 GLP5        0.0000 
     65 CA          7.9314   16.0810   42.2916 C.3       2 GLC5        0.0000 
     66 CA          5.7210   16.0070   42.3990 C.3       6 GLL5        0.0000 
@<TRIPOS>BOND
@<TRIPOS>SUBSTRUCTURE
     1 SEC2       14 GROUP        1 X    SEC  0     ROOT SEC X 2
     2 GLC5        1 GROUP        1 X    GLC  0     **** GLC X 6
     3 SEP2       16 GROUP        1 Y    SEP  0     ROOT SEP Y 9
     4 GLP5        3 GROUP        1 Y    GLP  0     **** GLP Y 13
     5 SEL2       15 GROUP        1 Z    SEL  0     ROOT SEL Z 16
     6 GLL5        2 GROUP        1 Z    GLL  0     **** GLL Z 20
@<TRIPOS>SET

