#    Name: 3r2y_P4O_1_ligand
#    Modification time : Tue Mar 25 10:29:34 2014

@<TRIPOS>MOLECULE
3r2y_P4O_1_ligand
   42    46     1     0     0
SMALL
NO_CHARGES


@<TRIPOS>ATOM
      1 C19         6.1940   18.9140   48.3120 C.ar      1 P4O3        0.0000 
      2 C20         6.0800   18.8820   49.7030 C.ar      1 P4O3        0.0000 
      3 C25         5.2090   17.9730   50.3250 C.ar      1 P4O3        0.0000 
      4 C24         5.1280   17.9540   51.6820 C.ar      1 P4O3        0.0000 
      5 C23         5.8980   18.8330   52.4610 C.ar      1 P4O3        0.0000 
      6 C22         6.7500   19.7390   51.8830 C.ar      1 P4O3        0.0000 
      7 C21         6.8640   19.7810   50.4750 C.ar      1 P4O3        0.0000 
      8 N16         7.6910   20.6360   49.8650 N.ar      1 P4O3        0.0000 
      9 C17         7.7990   20.6640   48.5620 C.ar      1 P4O3        0.0000 
     10 C18         7.0610   19.8120   47.7210 C.ar      1 P4O3        0.0000 
     11 C14         7.1980   19.8880   46.2360 C.ar      1 P4O3        0.0000 
     12 C13         6.8230   18.8500   45.3920 C.ar      1 P4O3        0.0000 
     13 N15         7.6820   20.9990   45.7020 N.ar      1 P4O3        0.0000 
     14 C10         7.8610   21.1610   44.4030 C.ar      1 P4O3        0.0000 
     15 C11         7.5040   20.1740   43.5110 C.ar      1 P4O3        0.0000 
     16 C12         6.9720   18.9900   44.0090 C.ar      1 P4O3        0.0000 
     17 C2          6.5750   17.9070   43.1020 C.2       1 P4O3        0.0000 
     18 C3          6.7860   17.8920   41.7650 C.2       1 P4O3        0.0000 
     19 C4          6.2450   16.6940   41.3070 C.2       1 P4O3        0.0000 
     20 C6          6.1890   16.1420   39.9530 C.2       1 P4O3        0.0000 
     21 O26         6.6000   16.7920   39.0120 O.2       1 P4O3        0.0000 
     22 N7          5.6690   14.9040   39.8280 N.am      1 P4O3        0.0000 
     23 C8          5.5530   13.9880   40.9510 C.3       1 P4O3        0.0000 
     24 C9          5.0780   14.6590   42.2460 C.3       1 P4O3        0.0000 
     25 C5          5.7210   16.0070   42.3990 C.2       1 P4O3        0.0000 
     26 N1          5.9160   16.7490   43.4760 N.pl3     1 P4O3        0.0000 
     27 H           5.6352   18.2727   47.7392 H         1 P4O3        0.0000 
     28 H           4.6490   17.3391   49.7444 H         1 P4O3        0.0000 
     29 H           4.4959   17.2898   52.1664 H         1 P4O3        0.0000 
     30 H           5.8102   18.7847   53.4949 H         1 P4O3        0.0000 
     31 H           7.3054   20.3857   52.4486 H         1 P4O3        0.0000 
     32 H           8.4567   21.3398   48.0810 H         1 P4O3        0.0000 
     33 H           6.4374   17.9815   45.7789 H         1 P4O3        0.0000 
     34 H           8.2786   22.0438   44.0212 H         1 P4O3        0.0000 
     35 H           7.6249   20.3031   42.5062 H         1 P4O3        0.0000 
     36 H           7.2079   18.5438   41.2341 H         1 P4O3        0.0000 
     37 H           5.3245   14.5488   38.9091 H         1 P4O3        0.0000 
     38 H           6.5262   13.5006   41.1632 H         1 P4O3        0.0000 
     39 H           4.8435   13.1682   40.7183 H         1 P4O3        0.0000 
     40 H           5.3426   14.0215   43.0878 H         1 P4O3        0.0000 
     41 H           3.9951   14.7640   42.2088 H         1 P4O3        0.0000 
     42 H           5.6563   16.5486   44.3847 H         1 P4O3        0.0000 
@<TRIPOS>BOND
     1    2    1 ar   
     2   10    1 ar   
     3   27    1 1    
     4    3    2 ar   
     5    7    2 ar   
     6    4    3 ar   
     7   28    3 1    
     8    5    4 ar   
     9   29    4 1    
    10    6    5 ar   
    11   30    5 1    
    12    7    6 ar   
    13   31    6 1    
    14    8    7 ar   
    15    9    8 ar   
    16   10    9 ar   
    17   32    9 1    
    18   11   10 1    
    19   12   11 ar   
    20   13   11 ar   
    21   16   12 ar   
    22   33   12 1    
    23   14   13 ar   
    24   15   14 ar   
    25   34   14 1    
    26   16   15 ar   
    27   35   15 1    
    28   17   16 1    
    29   18   17 2    
    30   26   17 1    
    31   19   18 1    
    32   36   18 1    
    33   20   19 1    
    34   25   19 2    
    35   21   20 2    
    36   22   20 am   
    37   23   22 1    
    38   37   22 1    
    39   24   23 1    
    40   38   23 1    
    41   39   23 1    
    42   25   24 1    
    43   40   24 1    
    44   41   24 1    
    45   26   25 1    
    46   42   26 1    
@<TRIPOS>SUBSTRUCTURE
     1 P4O3        1 GROUP   
@<TRIPOS>SET

