#    Name: 3ruq_ADP_3_INTS_M
#    Modification time : Tue Mar 25 11:58:53 2014

@<TRIPOS>MOLECULE
3ruq_ADP_3_INTS_M
   67     0    15     0     0
SMALL
NO_CHARGES


@<TRIPOS>ATOM
      1 N         -36.8445   20.0010   26.0490 N.am      2 SEC2        0.0000 
      2 N         -35.5740   20.5300   25.2980 N.am     12 SEL2        0.0000 
      3 N         -38.1150   19.4720   26.8000 N.am      7 SEP2        0.0000 
      4 N         -35.7865   19.0140   28.2305 N.am      2 SEC2        0.0000 
      5 N         -34.9250   19.7860   27.6030 N.am     12 SEL2        0.0000 
      6 N         -36.6480   18.2420   28.8580 N.am      7 SEP2        0.0000 
      7 N         -34.4630   19.3525   28.7825 N.am      2 SEC2        0.0000 
      8 N         -34.0010   18.9190   29.9620 N.am      7 SEP2        0.0000 
      9 Zn        -33.2780   22.1955   25.3985 Zn        4 ZIC7        0.0000 
     10 Zn        -33.5550   21.6110   26.5120 Zn       14 ZIL7        0.0000 
     11 Zn        -33.0010   22.7800   24.2850 Zn        9 ZIP7        0.0000 
     12 N         -34.5150   22.6635   27.0870 N.am      2 SEC2        0.0000 
     13 N         -33.5550   21.6110   26.5120 N.am     12 SEL2        0.0000 
     14 N         -35.4750   23.7160   27.6620 N.am      7 SEP2        0.0000 
     15 NZ        -31.3645   19.5220   22.6665 N.4       3 LYC4        0.0000 
     16 NZ        -32.1210   18.3000   23.7210 N.4      13 LYL4        0.0000 
     17 NZ        -30.6080   20.7440   21.6120 N.4       8 LYP4        0.0000 
     18 N         -31.3095   17.1815   24.1155 N.am      2 SEC2        0.0000 
     19 N         -32.1210   18.3000   23.7210 N.am     12 SEL2        0.0000 
     20 N         -30.4980   16.0630   24.5100 N.am      7 SEP2        0.0000 
     21 N         -31.4750   18.0670   22.5320 N.am      2 SEC2        0.0000 
     22 N         -30.8290   17.8340   21.3430 N.am      7 SEP2        0.0000 
     23 NZ        -31.2890   20.7830   22.9750 N.4       3 LYC4        0.0000 
     24 NZ        -31.9700   20.8220   24.3380 N.4      13 LYL4        0.0000 
     25 Zn        -32.4855   21.8010   24.3115 Zn        4 ZIC7        0.0000 
     26 Zn        -31.9700   20.8220   24.3380 Zn       14 ZIL7        0.0000 
     27 N         -31.2890   20.7830   22.9750 N.am      2 SEC2        0.0000 
     28 N         -31.9700   20.8220   24.3380 N.am     12 SEL2        0.0000 
     29 N         -30.6080   20.7440   21.6120 N.am      7 SEP2        0.0000 
     30 N         -30.7565   17.5195   25.1700 N.am      2 SEC2        0.0000 
     31 N         -31.0150   18.9760   25.8300 N.am     12 SEL2        0.0000 
     32 CA        -29.5225   17.4465   26.2720 C.3       5 GLC5        0.0000 
     33 CA        -30.0120   18.7310   27.9410 C.3      15 GLL5        0.0000 
     34 CA        -29.0330   16.1620   24.6030 C.3      10 GLP5        0.0000 
     35 CA        -29.2635   16.6910   27.8835 C.3       5 GLC5        0.0000 
     36 CA        -28.5150   14.6510   27.8260 C.3      10 GLP5        0.0000 
     37 N         -26.2755   19.3050   30.7880 N.am      2 SEC2        0.0000 
     38 N         -27.4340   19.6880   30.2450 N.am     12 SEL2        0.0000 
     39 N         -25.1170   18.9220   31.3310 N.am      7 SEP2        0.0000 
     40 O         -27.9730   21.3070   30.2705 O.2       1 ALC1        0.0000 
     41 O         -27.4340   19.6880   30.2450 O.2      11 ALL1        0.0000 
     42 O         -28.5120   22.9260   30.2960 O.2       6 ALP1        0.0000 
     43 O         -28.0165   20.7800   31.2310 O.2       1 ALC1        0.0000 
     44 O         -28.5990   21.8720   32.2170 O.2       6 ALP1        0.0000 
     45 CA        -28.3645   17.4330   26.3235 C.3       5 GLC5        0.0000 
     46 CA        -27.6960   18.7040   28.0440 C.3      15 GLL5        0.0000 
     47 CA        -26.9440   17.4150   26.3835 C.3       5 GLC5        0.0000 
     48 CA        -26.1920   16.1260   24.7230 C.3      10 GLP5        0.0000 
     49 CA        -26.2275   18.1205   29.5780 C.3       5 GLC5        0.0000 
     50 CA        -24.7590   17.5370   31.1120 C.3      10 GLP5        0.0000 
     51 CA        -28.1055   16.6775   27.9350 C.3       5 GLC5        0.0000 
     52 CA        -24.2580   19.6035   24.4045 C.3       5 GLC5        0.0000 
     53 CA        -24.3630   19.1760   26.5480 C.3      15 GLL5        0.0000 
     54 CA        -24.1530   20.0310   22.2610 C.3      10 GLP5        0.0000 
     55 CA        -24.2015   16.6720   26.1415 C.3       5 GLC5        0.0000 
     56 CA        -23.6400   16.8870   27.9110 C.3      15 GLL5        0.0000 
     57 CA        -24.7630   16.4570   24.3720 C.3      10 GLP5        0.0000 
     58 CA        -24.1995   17.2120   29.5115 C.3       5 GLC5        0.0000 
     59 CA        -25.7555   17.2880   26.0585 C.3       5 GLC5        0.0000 
     60 CA        -25.3190   18.4500   27.3940 C.3      15 GLL5        0.0000 
     61 CA        -25.0390   17.9935   29.2530 C.3       5 GLC5        0.0000 
     62 CA        -31.7413   17.7775   27.4025 C.3       5 GLC5        0.0000 
     63 CA        -33.0280   16.3730   27.2900 C.3      10 GLP5        0.0000 
     64 CA        -24.2205   17.6788   25.4390 C.3       5 GLC5        0.0000 
     65 CA        -23.7037   19.9536   27.9850 C.3       5 GLC5        0.0000 
     66 CA        -22.9930   18.6250   26.4640 C.3      15 GLL5        0.0000 
     67 CA        -22.9090   21.2320   29.0200 C.3      10 GLP5        0.0000 
@<TRIPOS>BOND
@<TRIPOS>SUBSTRUCTURE
     1 ALC1       40 GROUP        1 X    ALC  0     ROOT ALC X 1
     2 SEC2        1 GROUP        1 X    SEC  0     **** SEC X 2
     3 LYC4       15 GROUP        1 X    LYC  0     **** LYC X 4
     4 ZIC7        9 GROUP        1 X    ZIC  0     **** ZIC X 5
     5 GLC5       32 GROUP        1 X    GLC  0     **** GLC X 6
     6 ALP1       42 GROUP        1 Y    ALP  0     ROOT ALP Y 8
     7 SEP2        3 GROUP        1 Y    SEP  0     **** SEP Y 9
     8 LYP4       17 GROUP        1 Y    LYP  0     **** LYP Y 11
     9 ZIP7       11 GROUP        1 Y    ZIP  0     **** ZIP Y 12
    10 GLP5       34 GROUP        1 Y    GLP  0     **** GLP Y 13
    11 ALL1       41 GROUP        1 Z    ALL  0     ROOT ALL Z 15
    12 SEL2        2 GROUP        1 Z    SEL  0     **** SEL Z 16
    13 LYL4       16 GROUP        1 Z    LYL  0     **** LYL Z 18
    14 ZIL7       10 GROUP        1 Z    ZIL  0     **** ZIL Z 19
    15 GLL5       33 GROUP        1 Z    GLL  0     **** GLL Z 20
@<TRIPOS>SET

