#    Name: 3ruq_ADP_3_ligand
#    Modification time : Tue Mar 25 11:58:53 2014

@<TRIPOS>MOLECULE
3ruq_ADP_3_ligand
   39    41     1     0     0
SMALL
NO_CHARGES


@<TRIPOS>ATOM
      1 PB        -34.4420   20.3900   26.3040 P.3       1 ADP545      0.0000 
      2 O1B       -35.5740   20.5300   25.2980 O.co2     1 ADP545      0.0000 
      3 O2B       -34.9250   19.7860   27.6030 O.co2     1 ADP545      0.0000 
      4 O3B       -33.5550   21.6110   26.5120 O.co2     1 ADP545      0.0000 
      5 PA        -32.1420   19.3870   24.7670 P.3       1 ADP545      0.0000 
      6 O1A       -32.1210   18.3000   23.7210 O.co2     1 ADP545      0.0000 
      7 O2A       -31.9700   20.8220   24.3380 O.co2     1 ADP545      0.0000 
      8 O3A       -33.4760   19.2360   25.6830 O.3       1 ADP545      0.0000 
      9 O5'       -31.0150   18.9760   25.8300 O.3       1 ADP545      0.0000 
     10 C5'       -30.8970   19.6330   27.0890 C.3       1 ADP545      0.0000 
     11 C4'       -30.0120   18.7310   27.9410 C.3       1 ADP545      0.0000 
     12 O4'       -28.8250   18.4000   27.2140 O.3       1 ADP545      0.0000 
     13 C3'       -29.5830   19.4270   29.2200 C.3       1 ADP545      0.0000 
     14 O3'       -29.6630   18.4910   30.3020 O.3       1 ADP545      0.0000 
     15 C2'       -28.1340   19.7960   29.0040 C.3       1 ADP545      0.0000 
     16 O2'       -27.4340   19.6880   30.2450 O.3       1 ADP545      0.0000 
     17 C1'       -27.6960   18.7040   28.0440 C.3       1 ADP545      0.0000 
     18 N9        -26.4720   19.1120   27.3130 N.pl3     1 ADP545      0.0000 
     19 C8        -26.3020   20.1780   26.5080 C.2       1 ADP545      0.0000 
     20 N7        -25.0250   20.2280   26.0320 N.2       1 ADP545      0.0000 
     21 C5        -24.3630   19.1760   26.5480 C.ar      1 ADP545      0.0000 
     22 C6        -22.9930   18.6250   26.4640 C.ar      1 ADP545      0.0000 
     23 N6        -22.0610   19.2410   25.7140 N.pl3     1 ADP545      0.0000 
     24 N1        -22.7040   17.5000   27.1580 N.ar      1 ADP545      0.0000 
     25 C2        -23.6400   16.8870   27.9110 C.ar      1 ADP545      0.0000 
     26 N3        -24.9100   17.3290   28.0370 N.ar      1 ADP545      0.0000 
     27 C4        -25.3190   18.4500   27.3940 C.ar      1 ADP545      0.0000 
     28 H         -31.8503   19.7368   27.5866 H         1 ADP545      0.0000 
     29 H         -30.4140   20.5956   27.0039 H         1 ADP545      0.0000 
     30 H         -30.5621   17.8464   28.2003 H         1 ADP545      0.0000 
     31 H         -30.1536   20.2870   29.3629 H         1 ADP545      0.0000 
     32 H         -28.0758   20.7169   28.5373 H         1 ADP545      0.0000 
     33 H         -27.4592   17.8289   28.6744 H         1 ADP545      0.0000 
     34 H         -26.9951   20.8337   26.2883 H         1 ADP545      0.0000 
     35 H         -21.1673   18.7947   25.6686 H         1 ADP545      0.0000 
     36 H         -22.3452   20.0902   25.2689 H         1 ADP545      0.0000 
     37 H         -23.3618   16.0011   28.4383 H         1 ADP545      0.0000 
     38 H         -28.7912   18.5779   30.7841 H         1 ADP545      0.0000 
     39 H         -27.8225   20.4045   30.8244 H         1 ADP545      0.0000 
@<TRIPOS>BOND
     1    2    1 ar   
     2    3    1 ar   
     3    4    1 ar   
     4    8    1 1    
     5    6    5 ar   
     6    7    5 ar   
     7    8    5 1    
     8    9    5 1    
     9   10    9 1    
    10   11   10 1    
    11   28   10 1    
    12   29   10 1    
    13   12   11 1    
    14   13   11 1    
    15   30   11 1    
    16   17   12 1    
    17   14   13 1    
    18   15   13 1    
    19   31   13 1    
    20   38   14 1    
    21   16   15 1    
    22   17   15 1    
    23   32   15 1    
    24   39   16 1    
    25   18   17 1    
    26   33   17 1    
    27   19   18 1    
    28   27   18 1    
    29   20   19 2    
    30   34   19 1    
    31   21   20 1    
    32   22   21 ar   
    33   27   21 ar   
    34   23   22 1    
    35   24   22 ar   
    36   35   23 1    
    37   36   23 1    
    38   25   24 ar   
    39   26   25 ar   
    40   37   25 1    
    41   27   26 ar   
@<TRIPOS>SUBSTRUCTURE
     1 ADP545      1 GROUP   
@<TRIPOS>SET

