#    Name: 3ekr_PY9_1_INTS_M
#    Modification time : Tue Mar 25 02:00:30 2014

@<TRIPOS>MOLECULE
3ekr_PY9_1_INTS_M
   56     0     9     0     0
SMALL
NO_CHARGES


@<TRIPOS>ATOM
      1 CA         14.5080    1.6920   48.0000 C.3       3 GLC5        0.0000 
      2 CA         15.2170    0.8970   49.6930 C.3       9 GLL5        0.0000 
      3 CA         13.7990    2.4870   46.3070 C.3       6 GLP5        0.0000 
      4 CA         17.1855   -1.1700   47.6170 C.3       3 GLC5        0.0000 
      5 CA         17.1030   -0.6460   49.4040 C.3       9 GLL5        0.0000 
      6 CA         17.2680   -1.6940   45.8300 C.3       6 GLP5        0.0000 
      7 CA         19.3325   -5.8160   53.8330 C.3       3 GLC5        0.0000 
      8 CA         17.8680   -5.4040   52.5880 C.3       9 GLL5        0.0000 
      9 CA         20.7970   -6.2280   55.0780 C.3       6 GLP5        0.0000 
     10 CA         18.8650   -4.8030   54.6700 C.3       3 GLC5        0.0000 
     11 CA         17.8840   -4.0440   53.2820 C.3       9 GLL5        0.0000 
     12 CA         19.8460   -5.5620   56.0580 C.3       6 GLP5        0.0000 
     13 CA         18.3820   -5.6120   49.0505 C.3       3 GLC5        0.0000 
     14 CA         17.6810   -5.0660   51.1140 C.3       9 GLL5        0.0000 
     15 CA         19.0830   -6.1580   46.9870 C.3       6 GLP5        0.0000 
     16 CA         16.2840   -5.7105   49.9915 C.3       3 GLC5        0.0000 
     17 CA         14.8870   -6.3550   48.8690 C.3       6 GLP5        0.0000 
     18 CA         16.1710    0.6145   53.6540 C.3       3 GLC5        0.0000 
     19 CA         16.0250   -1.0880   54.5570 C.3       9 GLL5        0.0000 
     20 CA         16.3170    2.3170   52.7510 C.3       6 GLP5        0.0000 
     21 N          17.0825   -3.3665   47.4660 N.am      2 SEC2        0.0000 
     22 N          17.0280   -3.6660   48.7170 N.am      8 SEL2        0.0000 
     23 N          17.1370   -3.0670   46.2150 N.am      5 SEP2        0.0000 
     24 O          15.5460    3.0270   49.1600 O.2       1 ALC1        0.0000 
     25 O          14.6890    2.1500   49.6810 O.2       7 ALL1        0.0000 
     26 O          16.4030    3.9040   48.6390 O.2       4 ALP1        0.0000 
     27 N          19.1960   -1.9225   48.4515 N.am      2 SEC2        0.0000 
     28 N          18.4180   -0.8030   49.0880 N.am      8 SEL2        0.0000 
     29 N          19.9740   -3.0420   47.8150 N.am      5 SEP2        0.0000 
     30 O          19.0290    0.0825   48.3870 O.2       1 ALC1        0.0000 
     31 O          18.4180   -0.8030   49.0880 O.2       7 ALL1        0.0000 
     32 O          19.6400    0.9680   47.6860 O.2       4 ALP1        0.0000 
     33 CA         15.8988   -0.1210   47.6863 C.3       3 GLC5        0.0000 
     34 CA         15.8980   -1.0290   45.8410 C.3       6 GLP5        0.0000 
     35 CA         18.5377    1.1158   50.0600 C.3       3 GLC5        0.0000 
     36 CA         16.5820    0.6770   49.3700 C.3       9 GLL5        0.0000 
     37 CA         20.2330    2.2160   50.7330 C.3       6 GLP5        0.0000 
     38 CA         18.6045   -1.6963   50.2890 C.3       3 GLC5        0.0000 
     39 CA         20.5240   -2.2000   50.9970 C.3       6 GLP5        0.0000 
     40 CA         19.3577   -5.9615   51.3490 C.3       3 GLC5        0.0000 
     41 CA         20.9410   -6.6880   50.8470 C.3       6 GLP5        0.0000 
     42 CA         13.6330   -4.6787   50.9553 C.3       3 GLC5        0.0000 
     43 CA         14.4900   -4.0780   52.5680 C.3       9 GLL5        0.0000 
     44 CA         13.4400   -5.2920   49.0900 C.3       6 GLP5        0.0000 
     45 CA         11.9725   -5.3610   53.5452 C.3       3 GLC5        0.0000 
     46 CA         13.1620   -4.0530   53.0730 C.3       9 GLL5        0.0000 
     47 CA         10.9700   -7.1510   53.5370 C.3       6 GLP5        0.0000 
     48 CA         11.3450   -2.9295   52.3353 C.3       3 GLC5        0.0000 
     49 CA          9.7150   -2.2880   51.1170 C.3       6 GLP5        0.0000 
     50 CA         14.6030   -2.8937   48.8195 C.3       3 GLC5        0.0000 
     51 CA         14.8930   -1.5000   50.0740 C.3       9 GLL5        0.0000 
     52 CA         13.6260   -4.1680   47.7230 C.3       6 GLP5        0.0000 
     53 CA         15.7390   -1.3242   47.8785 C.3       3 GLC5        0.0000 
     54 CA         15.7256    1.3098   51.2691 C.3       3 GLC5        0.0000 
     55 CA         19.0584   -3.3096   51.6776 C.3       3 GLC5        0.0000 
     56 CA         16.9380   -3.1630   52.4490 C.3       9 GLL5        0.0000 
@<TRIPOS>BOND
@<TRIPOS>SUBSTRUCTURE
     1 ALC1       24 GROUP        1 X    ALC  0     ROOT ALC X 1
     2 SEC2       21 GROUP        1 X    SEC  0     **** SEC X 2
     3 GLC5        1 GROUP        1 X    GLC  0     **** GLC X 6
     4 ALP1       26 GROUP        1 Y    ALP  0     ROOT ALP Y 8
     5 SEP2       23 GROUP        1 Y    SEP  0     **** SEP Y 9
     6 GLP5        3 GROUP        1 Y    GLP  0     **** GLP Y 13
     7 ALL1       25 GROUP        1 Z    ALL  0     ROOT ALL Z 15
     8 SEL2       22 GROUP        1 Z    SEL  0     **** SEL Z 16
     9 GLL5        2 GROUP        1 Z    GLL  0     **** GLL Z 20
@<TRIPOS>SET

