#    Name: 3ekr_PY9_1_ligand
#    Modification time : Tue Mar 25 02:00:30 2014

@<TRIPOS>MOLECULE
3ekr_PY9_1_ligand
   41    43     1     0     0
SMALL
NO_CHARGES


@<TRIPOS>ATOM
      1 N1         17.1140   -3.7120   51.0650 N.am      1 PY9901      0.0000 
      2 C4         15.2170    0.8970   49.6930 C.ar      1 PY9901      0.0000 
      3 C5         16.5820    0.6770   49.3700 C.ar      1 PY9901      0.0000 
      4 C6         17.1030   -0.6460   49.4040 C.ar      1 PY9901      0.0000 
      5 C7         16.8290   -3.1190   49.8050 C.2       1 PY9901      0.0000 
      6 C8         16.9380   -3.1630   52.4490 C.3       1 PY9901      0.0000 
      7 C10        17.8680   -5.4040   52.5880 C.3       1 PY9901      0.0000 
      8 C13        14.4900   -4.0780   52.5680 C.ar      1 PY9901      0.0000 
      9 C15        12.7880   -3.0890   54.0340 C.ar      1 PY9901      0.0000 
     10 C17        15.0820   -2.1400   54.0060 C.ar      1 PY9901      0.0000 
     11 C14        13.1620   -4.0530   53.0730 C.ar      1 PY9901      0.0000 
     12 C2         14.8930   -1.5000   50.0740 C.ar      1 PY9901      0.0000 
     13 C16        13.7350   -2.1430   54.4960 C.ar      1 PY9901      0.0000 
     14 C3         14.3690   -0.1820   50.0430 C.ar      1 PY9901      0.0000 
     15 C1         16.2670   -1.7390   49.7580 C.ar      1 PY9901      0.0000 
     16 C12        15.4870   -3.1320   53.0130 C.ar      1 PY9901      0.0000 
     17 C9         17.8840   -4.0440   53.2820 C.3       1 PY9901      0.0000 
     18 C11        17.6810   -5.0660   51.1140 C.3       1 PY9901      0.0000 
     19 C18        16.0250   -1.0880   54.5570 C.3       1 PY9901      0.0000 
     20 O3         17.0280   -3.6660   48.7170 O.2       1 PY9901      0.0000 
     21 O2         14.6890    2.1500   49.6810 O.3       1 PY9901      0.0000 
     22 O1         18.4180   -0.8030   49.0880 O.3       1 PY9901      0.0000 
     23 H          17.1807    1.4551   49.1173 H         1 PY9901      0.0000 
     24 H          17.3591   -2.1569   52.4747 H         1 PY9901      0.0000 
     25 H          17.0424   -5.9746   52.9353 H         1 PY9901      0.0000 
     26 H          18.8007   -5.8912   52.7314 H         1 PY9901      0.0000 
     27 H          14.7572   -4.7809   51.8702 H         1 PY9901      0.0000 
     28 H          11.8340   -3.0722   54.3976 H         1 PY9901      0.0000 
     29 H          12.4807   -4.7347   52.7378 H         1 PY9901      0.0000 
     30 H          14.2908   -2.2843   50.3223 H         1 PY9901      0.0000 
     31 H          13.4593   -1.4439   55.1941 H         1 PY9901      0.0000 
     32 H          13.3934   -0.0147   50.2702 H         1 PY9901      0.0000 
     33 H          17.5032   -4.1372   54.2708 H         1 PY9901      0.0000 
     34 H          18.8654   -3.6348   53.2550 H         1 PY9901      0.0000 
     35 H          18.6412   -5.1017   50.6247 H         1 PY9901      0.0000 
     36 H          17.0068   -5.7843   50.6755 H         1 PY9901      0.0000 
     37 H          16.9392   -1.1636   54.1588 H         1 PY9901      0.0000 
     38 H          15.6989   -0.1616   54.3686 H         1 PY9901      0.0000 
     39 H          16.1298   -1.1659   55.5484 H         1 PY9901      0.0000 
     40 H          15.3980    2.7256   49.2735 H         1 PY9901      0.0000 
     41 H          18.7745    0.1267   48.9954 H         1 PY9901      0.0000 
@<TRIPOS>BOND
     1    5    1 am   
     2    6    1 1    
     3   18    1 1    
     4    3    2 ar   
     5   14    2 ar   
     6   21    2 1    
     7    4    3 ar   
     8   23    3 1    
     9   15    4 ar   
    10   22    4 1    
    11   15    5 1    
    12   20    5 2    
    13   16    6 1    
    14   17    6 1    
    15   24    6 1    
    16   17    7 1    
    17   18    7 1    
    18   25    7 1    
    19   26    7 1    
    20   11    8 ar   
    21   16    8 ar   
    22   27    8 1    
    23   11    9 ar   
    24   13    9 ar   
    25   28    9 1    
    26   13   10 ar   
    27   16   10 ar   
    28   19   10 1    
    29   29   11 1    
    30   14   12 ar   
    31   15   12 ar   
    32   30   12 1    
    33   31   13 1    
    34   32   14 1    
    35   33   17 1    
    36   34   17 1    
    37   35   18 1    
    38   36   18 1    
    39   37   19 1    
    40   38   19 1    
    41   39   19 1    
    42   40   21 1    
    43   41   22 1    
@<TRIPOS>SUBSTRUCTURE
     1 PY9901      1 GROUP   
@<TRIPOS>SET

