#    Name: 3lu8_IQX_2_INTS_M
#    Modification time : Mon Mar 24 22:20:16 2014

@<TRIPOS>MOLECULE
3lu8_IQX_2_INTS_M
   60     0     6     0     0
SMALL
NO_CHARGES


@<TRIPOS>ATOM
      1 N         -20.6525  -30.7660  -56.5925 N.am      1 SEC2        0.0000 
      2 N         -19.7280  -31.6360  -56.8640 N.am      5 SEL2        0.0000 
      3 N         -21.5770  -29.8960  -56.3210 N.am      3 SEP2        0.0000 
      4 CA        -22.7920  -32.7165  -51.5545 C.3       2 GLC5        0.0000 
      5 CA        -21.0070  -33.0300  -52.8360 C.3       6 GLL5        0.0000 
      6 CA        -24.5770  -32.4030  -50.2730 C.3       4 GLP5        0.0000 
      7 CA        -21.2080  -31.0790  -51.9010 C.3       2 GLC5        0.0000 
      8 CA        -21.4090  -29.1280  -50.9660 C.3       4 GLP5        0.0000 
      9 N         -15.7215  -37.8225  -53.9830 N.am      1 SEC2        0.0000 
     10 N         -16.9930  -38.0460  -53.2920 N.am      5 SEL2        0.0000 
     11 N         -14.4500  -37.5990  -54.6740 N.am      3 SEP2        0.0000 
     12 N         -14.0275  -31.2790  -59.3215 N.am      1 SEC2        0.0000 
     13 N         -13.7250  -31.6590  -57.8520 N.am      5 SEL2        0.0000 
     14 N         -14.3300  -30.8990  -60.7910 N.am      3 SEP2        0.0000 
     15 CA        -12.8880  -29.4440  -56.6240 C.3       2 GLC5        0.0000 
     16 CA        -14.3020  -30.3750  -55.6000 C.3       6 GLL5        0.0000 
     17 CA        -11.4740  -28.5130  -57.6480 C.3       4 GLP5        0.0000 
     18 CA        -14.5905  -29.7260  -52.8480 C.3       2 GLC5        0.0000 
     19 CA        -13.4460  -30.3090  -54.4980 C.3       6 GLL5        0.0000 
     20 CA        -15.7350  -29.1430  -51.1980 C.3       4 GLP5        0.0000 
     21 CA        -13.3415  -28.1160  -56.2215 C.3       2 GLC5        0.0000 
     22 CA        -15.0220  -28.9490  -55.6930 C.3       6 GLL5        0.0000 
     23 CA        -11.6610  -27.2830  -56.7500 C.3       4 GLP5        0.0000 
     24 CA        -16.4665  -26.8770  -53.7930 C.3       2 GLC5        0.0000 
     25 CA        -14.5720  -26.8340  -53.9700 C.3       6 GLL5        0.0000 
     26 CA        -18.3610  -26.9200  -53.6160 C.3       4 GLP5        0.0000 
     27 CA        -15.1535  -27.9885  -52.5840 C.3       2 GLC5        0.0000 
     28 CA        -14.7655  -25.5185  -55.7800 C.3       2 GLC5        0.0000 
     29 CA        -14.9590  -24.2030  -57.5900 C.3       4 GLP5        0.0000 
     30 CA        -13.1165  -27.0585  -55.3600 C.3       2 GLC5        0.0000 
     31 CA        -17.0695  -31.8420  -59.2645 C.3       2 GLC5        0.0000 
     32 CA        -18.3250  -30.4380  -58.3090 C.3       6 GLL5        0.0000 
     33 CA        -15.8140  -33.2460  -60.2200 C.3       4 GLP5        0.0000 
     34 CA        -19.2300  -29.2295  -57.5390 C.3       2 GLC5        0.0000 
     35 CA        -20.1350  -28.0210  -56.7690 C.3       4 GLP5        0.0000 
     36 CA        -20.2770  -29.9640  -59.0750 C.3       2 GLC5        0.0000 
     37 CA        -22.2290  -29.4900  -59.8410 C.3       4 GLP5        0.0000 
     38 CA        -17.3655  -33.2048  -57.8517 C.3       2 GLC5        0.0000 
     39 CA        -18.4790  -31.2870  -57.3140 C.3       6 GLL5        0.0000 
     40 CA        -16.8110  -34.8590  -58.6800 C.3       4 GLP5        0.0000 
     41 CA        -18.3610  -29.3142  -58.7802 C.3       2 GLC5        0.0000 
     42 CA        -18.3200  -27.7660  -59.7490 C.3       4 GLP5        0.0000 
     43 CA        -19.7978  -33.5230  -57.1958 C.3       2 GLC5        0.0000 
     44 CA        -19.8620  -32.5240  -55.8190 C.3       6 GLL5        0.0000 
     45 CA        -20.2860  -34.2500  -58.8860 C.3       4 GLP5        0.0000 
     46 CA        -17.4697  -33.8742  -57.0537 C.3       2 GLC5        0.0000 
     47 CA        -18.7570  -33.0680  -55.1920 C.3       6 GLL5        0.0000 
     48 CA        -16.8365  -34.4415  -52.9477 C.3       2 GLC5        0.0000 
     49 CA        -18.9720  -34.0420  -54.0750 C.3       6 GLL5        0.0000 
     50 CA        -15.1500  -34.1870  -51.9300 C.3       4 GLP5        0.0000 
     51 CA        -20.1197  -33.4993  -50.9173 C.3       2 GLC5        0.0000 
     52 CA        -19.9280  -34.0630  -53.0630 C.3       6 GLL5        0.0000 
     53 CA        -19.7720  -33.4520  -48.8850 C.3       4 GLP5        0.0000 
     54 CA        -13.8498  -31.8822  -52.7460 C.3       2 GLC5        0.0000 
     55 CA        -14.7000  -32.9100  -51.2430 C.3       4 GLP5        0.0000 
     56 CA        -11.8272  -30.2488  -55.6375 C.3       2 GLC5        0.0000 
     57 CA        -12.5530  -31.4000  -54.0000 C.3       6 GLL5        0.0000 
     58 CA        -10.6550  -29.6430  -57.0260 C.3       4 GLP5        0.0000 
     59 CA        -19.2043  -32.6221  -58.2761 C.3       2 GLC5        0.0000 
     60 CA        -17.3610  -31.8140  -56.7330 C.3       6 GLL5        0.0000 
@<TRIPOS>BOND
@<TRIPOS>SUBSTRUCTURE
     1 SEC2        1 GROUP        1 X    SEC  0     ROOT SEC X 2
     2 GLC5        4 GROUP        1 X    GLC  0     **** GLC X 6
     3 SEP2        3 GROUP        1 Y    SEP  0     ROOT SEP Y 9
     4 GLP5        6 GROUP        1 Y    GLP  0     **** GLP Y 13
     5 SEL2        2 GROUP        1 Z    SEL  0     ROOT SEL Z 16
     6 GLL5        5 GROUP        1 Z    GLL  0     **** GLL Z 20
@<TRIPOS>SET

