#    Name: 3lu8_IQX_2_ligand
#    Modification time : Mon Mar 24 22:20:16 2014

@<TRIPOS>MOLECULE
3lu8_IQX_2_ligand
   44    46     1     0     0
SMALL
NO_CHARGES


@<TRIPOS>ATOM
      1 N1        -19.7280  -31.6360  -56.8640 N.ar      1 IQX586      0.0000 
      2 C2        -18.4790  -31.2870  -57.3140 C.ar      1 IQX586      0.0000 
      3 C3        -19.8620  -32.5240  -55.8190 C.ar      1 IQX586      0.0000 
      4 C4        -17.3610  -31.8140  -56.7330 C.ar      1 IQX586      0.0000 
      5 C5        -18.7570  -33.0680  -55.1920 C.ar      1 IQX586      0.0000 
      6 C6        -17.5000  -32.7110  -55.6630 C.ar      1 IQX586      0.0000 
      7 C7        -18.9720  -34.0420  -54.0750 C.2       1 IQX586      0.0000 
      8 C8        -19.9280  -34.0630  -53.0630 C.2       1 IQX586      0.0000 
      9 N9        -19.8150  -35.1310  -52.2330 N.2       1 IQX586      0.0000 
     10 C10       -18.8070  -35.9460  -52.5740 C.2       1 IQX586      0.0000 
     11 S11       -18.0740  -35.3500  -53.8560 S.3       1 IQX586      0.0000 
     12 C12       -21.0070  -33.0300  -52.8360 C.3       1 IQX586      0.0000 
     13 N13       -18.4850  -37.1300  -51.8660 N.am      1 IQX586      0.0000 
     14 C14       -17.6030  -38.1300  -52.2470 C.2       1 IQX586      0.0000 
     15 C15       -17.3630  -39.3370  -51.3740 C.3       1 IQX586      0.0000 
     16 O16       -16.9930  -38.0460  -53.2920 O.2       1 IQX586      0.0000 
     17 N17       -16.1380  -31.3490  -57.2860 N.pl3     1 IQX586      0.0000 
     18 S18       -14.6410  -31.6770  -56.7450 S.o2      1 IQX586      0.0000 
     19 O19       -13.7250  -31.6590  -57.8520 O.2       1 IQX586      0.0000 
     20 O20       -14.6100  -32.9870  -56.1480 O.2       1 IQX586      0.0000 
     21 C21       -14.3020  -30.3750  -55.6000 C.2       1 IQX586      0.0000 
     22 C22       -13.4460  -30.3090  -54.4980 C.2       1 IQX586      0.0000 
     23 S23       -15.0220  -28.9490  -55.6930 S.3       1 IQX586      0.0000 
     24 C24       -14.3200  -28.2490  -54.4350 C.2       1 IQX586      0.0000 
     25 N25       -13.4630  -29.1140  -53.8630 N.2       1 IQX586      0.0000 
     26 C26       -12.5530  -31.4000  -54.0000 C.3       1 IQX586      0.0000 
     27 C27       -14.5720  -26.8340  -53.9700 C.3       1 IQX586      0.0000 
     28 F28       -18.3250  -30.4380  -58.3090 F         1 IQX586      0.0000 
     29 H         -20.8141  -32.7917  -55.4938 H         1 IQX586      0.0000 
     30 H         -16.6536  -33.1072  -55.2245 H         1 IQX586      0.0000 
     31 H         -18.9907  -37.2586  -50.9213 H         1 IQX586      0.0000 
     32 H         -16.1184  -30.7318  -58.1226 H         1 IQX586      0.0000 
     33 H         -20.6228  -32.1212  -52.6735 H         1 IQX586      0.0000 
     34 H         -21.6190  -32.9531  -53.6231 H         1 IQX586      0.0000 
     35 H         -21.5749  -33.2540  -52.0440 H         1 IQX586      0.0000 
     36 H         -16.6995  -39.9643  -51.7818 H         1 IQX586      0.0000 
     37 H         -17.0093  -39.0804  -50.4745 H         1 IQX586      0.0000 
     38 H         -18.2030  -39.8576  -51.2210 H         1 IQX586      0.0000 
     39 H         -11.8865  -31.6790  -54.6913 H         1 IQX586      0.0000 
     40 H         -12.0363  -31.1172  -53.1919 H         1 IQX586      0.0000 
     41 H         -13.0709  -32.2168  -53.7457 H         1 IQX586      0.0000 
     42 H         -14.0235  -26.6040  -53.1661 H         1 IQX586      0.0000 
     43 H         -14.3484  -26.1648  -54.6787 H         1 IQX586      0.0000 
     44 H         -15.5300  -26.6895  -53.7222 H         1 IQX586      0.0000 
@<TRIPOS>BOND
     1    2    1 ar   
     2    3    1 ar   
     3    4    2 ar   
     4   28    2 1    
     5    5    3 ar   
     6   29    3 1    
     7    6    4 ar   
     8   17    4 1    
     9    6    5 ar   
    10    7    5 1    
    11   30    6 1    
    12    8    7 2    
    13   11    7 1    
    14    9    8 1    
    15   12    8 1    
    16   10    9 2    
    17   11   10 1    
    18   13   10 1    
    19   33   12 1    
    20   34   12 1    
    21   35   12 1    
    22   14   13 am   
    23   31   13 1    
    24   15   14 1    
    25   16   14 2    
    26   36   15 1    
    27   37   15 1    
    28   38   15 1    
    29   18   17 1    
    30   32   17 1    
    31   19   18 2    
    32   20   18 2    
    33   21   18 1    
    34   22   21 2    
    35   23   21 1    
    36   25   22 1    
    37   26   22 1    
    38   24   23 1    
    39   25   24 2    
    40   27   24 1    
    41   39   26 1    
    42   40   26 1    
    43   41   26 1    
    44   42   27 1    
    45   43   27 1    
    46   44   27 1    
@<TRIPOS>SUBSTRUCTURE
     1 IQX586      1 GROUP   
@<TRIPOS>SET

