#    Name: 1n2s_NAD_1_INTS_M
#    Modification time : Tue Mar 25 12:20:43 2014

@<TRIPOS>MOLECULE
1n2s_NAD_1_INTS_M
   95     0     9     0     0
SMALL
NO_CHARGES


@<TRIPOS>ATOM
      1 N           9.3990  -16.3710   14.2815 N.am      2 SEC2        0.0000 
      2 N           9.1120  -15.0550   14.1740 N.am      8 SEL2        0.0000 
      3 N           9.6860  -17.6870   14.3890 N.am      5 SEP2        0.0000 
      4 N           7.6445  -11.4315   14.7890 N.am      2 SEC2        0.0000 
      5 N           8.0460  -12.7880   14.3520 N.am      8 SEL2        0.0000 
      6 N           7.2430  -10.0750   15.2260 N.am      5 SEP2        0.0000 
      7 CA         10.5785  -15.7665   16.2305 C.3       3 GLC5        0.0000 
      8 CA         11.2360  -13.9310   15.7540 C.3       9 GLL5        0.0000 
      9 CA          9.9210  -17.6020   16.7070 C.3       6 GLP5        0.0000 
     10 CA         12.8550  -13.3635   18.3170 C.3       3 GLC5        0.0000 
     11 CA         12.2910  -13.0890   16.4690 C.3       9 GLL5        0.0000 
     12 CA         13.4190  -13.6380   20.1650 C.3       6 GLP5        0.0000 
     13 N          13.3020  -14.9055   18.0650 N.am      2 SEC2        0.0000 
     14 N          13.3720  -13.9430   16.8370 N.am      8 SEL2        0.0000 
     15 N          13.2320  -15.8680   19.2930 N.am      5 SEP2        0.0000 
     16 CA         13.2755  -10.8785   17.3360 C.3       3 GLC5        0.0000 
     17 CA         12.7930  -11.9820   15.4880 C.3       9 GLL5        0.0000 
     18 CA         13.7580   -9.7750   19.1840 C.3       6 GLP5        0.0000 
     19 N          13.3130   -9.6055   14.8620 N.am      2 SEC2        0.0000 
     20 N          13.0340  -10.7270   16.1270 N.am      8 SEL2        0.0000 
     21 N          13.5920   -8.4840   13.5970 N.am      5 SEP2        0.0000 
     22 O          13.8870   -9.9175   16.1945 O.2       1 ALC1        0.0000 
     23 O          13.0340  -10.7270   16.1270 O.2       7 ALL1        0.0000 
     24 O          14.7400   -9.1080   16.2620 O.2       4 ALP1        0.0000 
     25 O          15.7720  -11.0625   15.2385 O.2       1 ALC1        0.0000 
     26 O          15.0090  -11.8120   14.5680 O.2       7 ALL1        0.0000 
     27 O          16.5350  -10.3130   15.9090 O.2       4 ALP1        0.0000 
     28 O          14.8745  -10.4600   15.4150 O.2       1 ALC1        0.0000 
     29 CA         14.6550  -13.2785   18.1950 C.3       3 GLC5        0.0000 
     30 CA         14.4830  -13.3070   16.2880 C.3       9 GLL5        0.0000 
     31 CA         14.8270  -13.2500   20.1020 C.3       6 GLP5        0.0000 
     32 CA         19.1255  -15.9370   18.5955 C.3       3 GLC5        0.0000 
     33 CA         18.7890  -15.3810   16.5430 C.3       9 GLL5        0.0000 
     34 CA         19.4620  -16.4930   20.6480 C.3       6 GLP5        0.0000 
     35 O          21.1535  -15.8570   16.5085 O.2       1 ALC1        0.0000 
     36 O          19.6500  -16.3230   16.0120 O.2       7 ALL1        0.0000 
     37 O          22.6570  -15.3910   17.0050 O.2       4 ALP1        0.0000 
     38 N          20.1535  -14.8400   18.6330 N.am      2 SEC2        0.0000 
     39 N          19.1740  -14.6500   17.6340 N.am      8 SEL2        0.0000 
     40 N          21.1330  -15.0300   19.6320 N.am      5 SEP2        0.0000 
     41 CA         18.8185  -13.0820   16.7320 C.3       3 GLC5        0.0000 
     42 CA         18.3600  -13.6960   18.1870 C.3       9 GLL5        0.0000 
     43 CA         19.2770  -12.4680   15.2770 C.3       6 GLP5        0.0000 
     44 CA         20.2585  -13.4190   18.3580 C.3       3 GLC5        0.0000 
     45 CA         22.1570  -13.1420   18.5290 C.3       6 GLP5        0.0000 
     46 CA         18.9110  -15.0945   19.4175 C.3       3 GLC5        0.0000 
     47 CA         16.5935  -13.4730   19.1445 C.3       3 GLC5        0.0000 
     48 CA         15.7750  -13.7190   18.3815 C.3       3 GLC5        0.0000 
     49 CA         16.7230  -14.1880   16.6610 C.3       9 GLL5        0.0000 
     50 N           6.4750  -11.0555   17.5235 N.am      2 SEC2        0.0000 
     51 N           6.9620  -12.3530   17.3510 N.am      8 SEL2        0.0000 
     52 N           5.9880   -9.7580   17.6960 N.am      5 SEP2        0.0000 
     53 N           8.0645  -11.5820   17.7550 N.am      2 SEC2        0.0000 
     54 N           9.1670  -10.8110   18.1590 N.am      5 SEP2        0.0000 
     55 N           4.8340  -14.0570   15.4015 N.am      2 SEC2        0.0000 
     56 N           5.9290  -14.5140   16.3050 N.am      8 SEL2        0.0000 
     57 N           3.7390  -13.6000   14.4980 N.am      5 SEP2        0.0000 
     58 CA          6.1060  -12.7285   19.6515 C.3       3 GLC5        0.0000 
     59 CA          7.4300  -14.0680   19.5930 C.3       9 GLL5        0.0000 
     60 CA          4.7820  -11.3890   19.7100 C.3       6 GLP5        0.0000 
     61 N           7.4810  -19.4510   19.8295 N.am      2 SEC2        0.0000 
     62 N           8.1130  -18.4810   20.2940 N.am      8 SEL2        0.0000 
     63 N           6.8490  -20.4210   19.3650 N.am      5 SEP2        0.0000 
     64 N           8.7680  -18.8105   21.5830 N.am      2 SEC2        0.0000 
     65 N           9.4230  -19.1400   22.8720 N.am      5 SEP2        0.0000 
     66 CA          6.4405  -15.9510   22.6755 C.3       3 GLC5        0.0000 
     67 CA          6.2290  -16.8470   20.8800 C.3       9 GLL5        0.0000 
     68 CA          6.6520  -15.0550   24.4710 C.3       6 GLP5        0.0000 
     69 N           1.1780  -17.2785   16.7130 N.am      2 SEC2        0.0000 
     70 N           2.5450  -18.2080   16.3370 N.am      8 SEL2        0.0000 
     71 N          -0.1890  -16.3490   17.0890 N.am      5 SEP2        0.0000 
     72 CA         10.9541  -11.2825   15.5434 C.3       3 GLC5        0.0000 
     73 CA          9.6300   -9.8190   15.2870 C.3       6 GLP5        0.0000 
     74 CA         18.0045  -17.2190   16.6730 C.3       3 GLC5        0.0000 
     75 CA         17.8470  -19.1700   17.0310 C.3       6 GLP5        0.0000 
     76 CA         18.3597  -13.5980   15.8825 C.3       3 GLC5        0.0000 
     77 CA         17.5350  -15.1550   16.0870 C.3       9 GLL5        0.0000 
     78 CA          7.2758  -15.3078   22.5940 C.3       3 GLC5        0.0000 
     79 CA          8.3930  -16.1160   20.6690 C.3       9 GLL5        0.0000 
     80 CA          9.8322  -17.1597   20.1660 C.3       3 GLC5        0.0000 
     81 CA         11.6970  -17.6660   19.9150 C.3       6 GLP5        0.0000 
     82 CA          8.9443  -17.1277   18.5620 C.3       3 GLC5        0.0000 
     83 CA          2.8525  -16.3695   18.9580 C.3       3 GLC5        0.0000 
     84 CA          4.8300  -17.2320   18.8290 C.3       9 GLL5        0.0000 
     85 CA          1.4040  -15.2420   19.3850 C.3       6 GLP5        0.0000 
     86 CA          1.0768  -18.9577   20.1060 C.3       3 GLC5        0.0000 
     87 CA          2.8170  -18.7520   18.8760 C.3       9 GLL5        0.0000 
     88 CA         -0.8000  -19.1360   20.6120 C.3       6 GLP5        0.0000 
     89 CA          3.9735  -20.2615   21.3413 C.3       3 GLC5        0.0000 
     90 CA          3.0900  -18.8070   20.3240 C.3       9 GLL5        0.0000 
     91 CA          4.3160  -22.0060   22.1020 C.3       6 GLP5        0.0000 
     92 CA          2.8715  -17.4235   21.6022 C.3       3 GLC5        0.0000 
     93 CA          2.1120  -16.3300   22.6240 C.3       6 GLP5        0.0000 
     94 CA          2.4834  -16.8726   19.8017 C.3       3 GLC5        0.0000 
     95 CA          4.1720  -18.2270   20.8370 C.3       9 GLL5        0.0000 
@<TRIPOS>BOND
@<TRIPOS>SUBSTRUCTURE
     1 ALC1       22 GROUP        1 X    ALC  0     ROOT ALC X 1
     2 SEC2        1 GROUP        1 X    SEC  0     **** SEC X 2
     3 GLC5        7 GROUP        1 X    GLC  0     **** GLC X 6
     4 ALP1       24 GROUP        1 Y    ALP  0     ROOT ALP Y 8
     5 SEP2        3 GROUP        1 Y    SEP  0     **** SEP Y 9
     6 GLP5        9 GROUP        1 Y    GLP  0     **** GLP Y 13
     7 ALL1       23 GROUP        1 Z    ALL  0     ROOT ALL Z 15
     8 SEL2        2 GROUP        1 Z    SEL  0     **** SEL Z 16
     9 GLL5        8 GROUP        1 Z    GLL  0     **** GLL Z 20
@<TRIPOS>SET

