#    Name: 1n2s_NAD_1_ligand
#    Modification time : Tue Mar 25 12:20:43 2014

@<TRIPOS>MOLECULE
1n2s_NAD_1_ligand
   70    74     1     0     0
SMALL
NO_CHARGES


@<TRIPOS>ATOM
      1 PA          8.8150  -13.8630   14.9400 P.3       1 NAD901      0.0000 
      2 O1A         9.1120  -15.0550   14.1740 O.co2     1 NAD901      0.0000 
      3 O2A         8.0460  -12.7880   14.3520 O.co2     1 NAD901      0.0000 
      4 O5B        10.0920  -13.1560   15.5380 O.3       1 NAD901      0.0000 
      5 C5B        11.2360  -13.9310   15.7540 C.3       1 NAD901      0.0000 
      6 C4B        12.2910  -13.0890   16.4690 C.3       1 NAD901      0.0000 
      7 O4B        13.3720  -13.9430   16.8370 O.3       1 NAD901      0.0000 
      8 C3B        12.7930  -11.9820   15.4880 C.3       1 NAD901      0.0000 
      9 O3B        13.0340  -10.7270   16.1270 O.3       1 NAD901      0.0000 
     10 C2B        14.0320  -12.6810   15.0070 C.3       1 NAD901      0.0000 
     11 O2B        15.0090  -11.8120   14.5680 O.3       1 NAD901      0.0000 
     12 C1B        14.4830  -13.3070   16.2880 C.3       1 NAD901      0.0000 
     13 N9A        15.5880  -14.1860   15.9870 N.pl3     1 NAD901      0.0000 
     14 C8A        15.6970  -15.1500   14.9950 C.2       1 NAD901      0.0000 
     15 N7A        16.8870  -15.7190   15.0700 N.2       1 NAD901      0.0000 
     16 C5A        17.5350  -15.1550   16.0870 C.ar      1 NAD901      0.0000 
     17 C6A        18.7890  -15.3810   16.5430 C.ar      1 NAD901      0.0000 
     18 N6A        19.6500  -16.3230   16.0120 N.pl3     1 NAD901      0.0000 
     19 N1A        19.1740  -14.6500   17.6340 N.ar      1 NAD901      0.0000 
     20 C2A        18.3600  -13.6960   18.1870 C.ar      1 NAD901      0.0000 
     21 N3A        17.0850  -13.4460   17.7020 N.ar      1 NAD901      0.0000 
     22 C4A        16.7230  -14.1880   16.6610 C.ar      1 NAD901      0.0000 
     23 O3          8.3060  -14.2720   16.3930 O.3       1 NAD901      0.0000 
     24 PN          6.9660  -13.8250   17.0430 P.3       1 NAD901      0.0000 
     25 O1N         6.9620  -12.3530   17.3510 O.co2     1 NAD901      0.0000 
     26 O2N         5.9290  -14.5140   16.3050 O.co2     1 NAD901      0.0000 
     27 O5D         7.0100  -14.6480   18.4360 O.3       1 NAD901      0.0000 
     28 C5D         7.4300  -14.0680   19.5930 C.3       1 NAD901      0.0000 
     29 C4D         7.4060  -15.0050   20.7650 C.3       1 NAD901      0.0000 
     30 O4D         6.0780  -15.4710   20.8940 O.3       1 NAD901      0.0000 
     31 C3D         8.3930  -16.1160   20.6690 C.3       1 NAD901      0.0000 
     32 O3D         8.6700  -16.4300   21.9600 O.3       1 NAD901      0.0000 
     33 C2D         7.5420  -17.1910   20.1650 C.3       1 NAD901      0.0000 
     34 O2D         8.1130  -18.4810   20.2940 O.3       1 NAD901      0.0000 
     35 C1D         6.2290  -16.8470   20.8800 C.3       1 NAD901      0.0000 
     36 N1N         5.0720  -17.4390   20.1600 N.pl3     1 NAD901      0.0000 
     37 C2N         4.8300  -17.2320   18.8290 C.ar      1 NAD901      0.0000 
     38 C3N         3.7720  -17.7620   18.2330 C.ar      1 NAD901      0.0000 
     39 C7N         3.4930  -17.5610   16.8430 C.2       1 NAD901      0.0000 
     40 O7N         2.5450  -18.2080   16.3370 O.2       1 NAD901      0.0000 
     41 N7N         4.3530  -16.7050   16.2440 N.am      1 NAD901      0.0000 
     42 C4N         2.8170  -18.7520   18.8760 C.ar      1 NAD901      0.0000 
     43 C5N         3.0900  -18.8070   20.3240 C.ar      1 NAD901      0.0000 
     44 C6N         4.1720  -18.2270   20.8370 C.ar      1 NAD901      0.0000 
     45 H          11.6840  -14.2903   14.8175 H         1 NAD901      0.0000 
     46 H          11.0369  -14.8091   16.3834 H         1 NAD901      0.0000 
     47 H          11.8415  -12.6128   17.3055 H         1 NAD901      0.0000 
     48 H          12.0945  -11.9600   14.6877 H         1 NAD901      0.0000 
     49 H          13.7588  -13.4476   14.3452 H         1 NAD901      0.0000 
     50 H          14.8243  -12.4888   16.9253 H         1 NAD901      0.0000 
     51 H          14.9884  -15.3470   14.3634 H         1 NAD901      0.0000 
     52 H          20.5629  -16.3633   16.4183 H         1 NAD901      0.0000 
     53 H          19.2853  -16.8824   15.2677 H         1 NAD901      0.0000 
     54 H          18.7048  -13.1353   19.0005 H         1 NAD901      0.0000 
     55 H           6.8104  -13.1766   19.8755 H         1 NAD901      0.0000 
     56 H           8.4750  -13.6673   19.5173 H         1 NAD901      0.0000 
     57 H           7.6571  -14.3955   21.6596 H         1 NAD901      0.0000 
     58 H           9.1473  -15.8890   20.0566 H         1 NAD901      0.0000 
     59 H           7.3515  -16.9273   19.0909 H         1 NAD901      0.0000 
     60 H           6.2777  -17.2591   21.8728 H         1 NAD901      0.0000 
     61 H           5.5073  -16.6388   18.2862 H         1 NAD901      0.0000 
     62 H           5.1052  -16.3687   16.8106 H         1 NAD901      0.0000 
     63 H           4.1601  -16.4846   15.2879 H         1 NAD901      0.0000 
     64 H           2.1848  -19.2246   18.4192 H         1 NAD901      0.0000 
     65 H           2.3957  -19.3164   20.8934 H         1 NAD901      0.0000 
     66 H           4.3788  -18.3808   21.8909 H         1 NAD901      0.0000 
     67 H          13.9611  -10.4711   15.8532 H         1 NAD901      0.0000 
     68 H          15.3937  -11.4134   15.4005 H         1 NAD901      0.0000 
     69 H           9.4873  -15.8998   22.1855 H         1 NAD901      0.0000 
     70 H           8.9664  -18.4393   19.7745 H         1 NAD901      0.0000 
@<TRIPOS>BOND
     1    2    1 ar   
     2    3    1 ar   
     3    4    1 1    
     4   23    1 1    
     5    5    4 1    
     6    6    5 1    
     7   45    5 1    
     8   46    5 1    
     9    7    6 1    
    10    8    6 1    
    11   47    6 1    
    12   12    7 1    
    13    9    8 1    
    14   10    8 1    
    15   48    8 1    
    16   67    9 1    
    17   11   10 1    
    18   12   10 1    
    19   49   10 1    
    20   68   11 1    
    21   13   12 1    
    22   50   12 1    
    23   14   13 1    
    24   22   13 1    
    25   15   14 2    
    26   51   14 1    
    27   16   15 1    
    28   17   16 ar   
    29   22   16 ar   
    30   18   17 1    
    31   19   17 ar   
    32   52   18 1    
    33   53   18 1    
    34   20   19 ar   
    35   21   20 ar   
    36   54   20 1    
    37   22   21 ar   
    38   24   23 1    
    39   25   24 ar   
    40   26   24 ar   
    41   27   24 1    
    42   28   27 1    
    43   29   28 1    
    44   55   28 1    
    45   56   28 1    
    46   30   29 1    
    47   31   29 1    
    48   57   29 1    
    49   35   30 1    
    50   32   31 1    
    51   33   31 1    
    52   58   31 1    
    53   69   32 1    
    54   34   33 1    
    55   35   33 1    
    56   59   33 1    
    57   70   34 1    
    58   36   35 1    
    59   60   35 1    
    60   37   36 ar   
    61   44   36 ar   
    62   38   37 ar   
    63   61   37 1    
    64   39   38 1    
    65   42   38 ar   
    66   40   39 2    
    67   41   39 am   
    68   62   41 1    
    69   63   41 1    
    70   43   42 ar   
    71   64   42 1    
    72   44   43 ar   
    73   65   43 1    
    74   66   44 1    
@<TRIPOS>SUBSTRUCTURE
     1 NAD901      1 GROUP   
@<TRIPOS>SET

