#    Name: 2q72_IXX_1_INTS_M
#    Modification time : Mon Mar 24 20:57:08 2014

@<TRIPOS>MOLECULE
2q72_IXX_1_INTS_M
   59     0     9     0     0
SMALL
NO_CHARGES


@<TRIPOS>ATOM
      1 CA         28.2715   22.9210   17.9545 C.3       3 GLC5        0.0000 
      2 CA         28.6500   23.7870   19.8950 C.3       9 GLL5        0.0000 
      3 CA         27.8930   22.0550   16.0140 C.3       6 GLP5        0.0000 
      4 CA         27.8490   21.7270   17.8365 C.3       3 GLC5        0.0000 
      5 CA         27.8050   21.3990   19.6590 C.3       9 GLL5        0.0000 
      6 CA         25.9290   21.8720   18.8880 C.3       3 GLC5        0.0000 
      7 CA         24.0530   22.3450   18.1170 C.3       6 GLP5        0.0000 
      8 CA         23.4300   18.1870   20.6530 C.3       3 GLC5        0.0000 
      9 CA         23.8880   19.7000   21.7310 C.3       9 GLL5        0.0000 
     10 CA         22.9720   16.6740   19.5750 C.3       6 GLP5        0.0000 
     11 CA         21.9035   20.3195   21.1100 C.3       3 GLC5        0.0000 
     12 CA         19.9190   20.9390   20.4890 C.3       6 GLP5        0.0000 
     13 OD1        29.2135   18.1010   26.3205 O.co2     2 ASC3        0.0000 
     14 OD1        28.6990   17.6650   25.1850 O.co2     8 ASL3        0.0000 
     15 OD1        29.7280   18.5370   27.4560 O.co2     5 ASP3        0.0000 
     16 OD1        29.1735   17.1585   26.8805 O.co2     2 ASC3        0.0000 
     17 OD1        29.6480   16.6520   28.5760 O.co2     5 ASP3        0.0000 
     18 O          29.2135   18.1010   26.3205 O.2       1 ALC1        0.0000 
     19 O          28.6990   17.6650   25.1850 O.2       7 ALL1        0.0000 
     20 O          29.7280   18.5370   27.4560 O.2       4 ALP1        0.0000 
     21 CA         24.0765   18.5945   19.6370 C.3       3 GLC5        0.0000 
     22 CA         25.0120   19.6310   20.9280 C.3       9 GLL5        0.0000 
     23 CA         23.1410   17.5580   18.3460 C.3       6 GLP5        0.0000 
     24 CA         29.9095   20.6420   23.0445 C.3       3 GLC5        0.0000 
     25 CA         28.2000   21.3890   24.2140 C.3       9 GLL5        0.0000 
     26 CA         31.6190   19.8950   21.8750 C.3       6 GLP5        0.0000 
     27 CA         28.0410   22.5450   26.0405 C.3       3 GLC5        0.0000 
     28 CA         27.8820   23.7010   27.8670 C.3       6 GLP5        0.0000 
     29 CA         27.7445   17.7410   23.0495 C.3       3 GLC5        0.0000 
     30 CA         28.6080   18.8840   24.3110 C.3       9 GLL5        0.0000 
     31 CA         26.8810   16.5980   21.7880 C.3       6 GLP5        0.0000 
     32 CA         30.2675   18.7610   23.3575 C.3       3 GLC5        0.0000 
     33 CA         31.9270   18.6380   22.4040 C.3       6 GLP5        0.0000 
     34 CA         28.2730   16.6395   23.2270 C.3       3 GLC5        0.0000 
     35 CA         29.6650   16.6810   24.6660 C.3       9 GLL5        0.0000 
     36 CA         30.7960   17.6595   23.5350 C.3       3 GLC5        0.0000 
     37 CA         27.1180   16.8095   23.5545 C.3       3 GLC5        0.0000 
     38 CA         27.3550   17.0210   25.3210 C.3       9 GLL5        0.0000 
     39 CA         30.2835   23.3960   22.3287 C.3       3 GLC5        0.0000 
     40 CA         28.0570   22.6820   22.0300 C.3       9 GLL5        0.0000 
     41 CA         32.3190   23.5050   22.2990 C.3       6 GLP5        0.0000 
     42 CA         29.1560   25.4340   18.6707 C.3       3 GLC5        0.0000 
     43 CA         29.0100   24.9490   20.5780 C.3       9 GLL5        0.0000 
     44 CA         29.4820   26.5000   17.1050 C.3       6 GLP5        0.0000 
     45 CA         30.5620   23.9441   21.4417 C.3       3 GLC5        0.0000 
     46 CA         23.7777   21.6623   21.4215 C.3       3 GLC5        0.0000 
     47 CA         23.9350   20.3950   22.9450 C.3       9 GLL5        0.0000 
     48 CA         23.6440   23.2770   20.5050 C.3       6 GLP5        0.0000 
     49 CA         29.4355   20.3830   20.2668 C.3       3 GLC5        0.0000 
     50 CA         27.3790   20.1170   20.3540 C.3       9 GLL5        0.0000 
     51 CA         31.2790   20.0080   20.5270 C.3       6 GLP5        0.0000 
     52 CA         25.6655   18.1318   21.5588 C.3       3 GLC5        0.0000 
     53 CA         24.6328   21.6070   20.8068 C.3       3 GLC5        0.0000 
     54 CA         24.6862   22.1325   21.7145 C.3       3 GLC5        0.0000 
     55 CA         26.3100   20.9490   22.5070 C.3       9 GLL5        0.0000 
     56 CA         26.7193   18.5812   21.7261 C.3       3 GLC5        0.0000 
     57 CA         29.9300   20.6036   25.3125 C.3       3 GLC5        0.0000 
     58 CA         27.9200   20.0600   24.9640 C.3       9 GLL5        0.0000 
     59 CA         31.5260   21.4030   26.1750 C.3       6 GLP5        0.0000 
@<TRIPOS>BOND
@<TRIPOS>SUBSTRUCTURE
     1 ALC1       18 GROUP        1 X    ALC  0     ROOT ALC X 1
     2 ASC3       13 GROUP        1 X    ASC  0     **** ASC X 3
     3 GLC5        1 GROUP        1 X    GLC  0     **** GLC X 6
     4 ALP1       20 GROUP        1 Y    ALP  0     ROOT ALP Y 8
     5 ASP3       15 GROUP        1 Y    ASP  0     **** ASP Y 10
     6 GLP5        3 GROUP        1 Y    GLP  0     **** GLP Y 13
     7 ALL1       19 GROUP        1 Z    ALL  0     ROOT ALL Z 15
     8 ASL3       14 GROUP        1 Z    ASL  0     **** ASL Z 17
     9 GLL5        2 GROUP        1 Z    GLL  0     **** GLL Z 20
@<TRIPOS>SET

