#    Name: 2q72_IXX_1_ligand
#    Modification time : Mon Mar 24 20:57:08 2014

@<TRIPOS>MOLECULE
2q72_IXX_1_ligand
   46    48     1     0     0
SMALL
NO_CHARGES


@<TRIPOS>ATOM
      1 C11        28.0570   22.6820   22.0300 C.ar      1 IXX801      0.0000 
      2 C10        28.4390   23.8920   22.6870 C.ar      1 IXX801      0.0000 
      3 C9         28.9100   25.0100   21.9700 C.ar      1 IXX801      0.0000 
      4 C8         29.0100   24.9490   20.5780 C.ar      1 IXX801      0.0000 
      5 C7         28.6500   23.7870   19.8950 C.ar      1 IXX801      0.0000 
      6 C2         23.9350   20.3950   22.9450 C.ar      1 IXX801      0.0000 
      7 C6         27.8050   21.3990   19.6590 C.3       1 IXX801      0.0000 
      8 C5         27.3790   20.1170   20.3540 C.3       1 IXX801      0.0000 
      9 N1         27.5730   21.5670   22.8480 N.pl3     1 IXX801      0.0000 
     10 C3         23.8880   19.7000   21.7310 C.ar      1 IXX801      0.0000 
     11 N2         28.6990   17.6650   25.1850 N.4       1 IXX801      0.0000 
     12 C4         25.0120   19.6310   20.9280 C.ar      1 IXX801      0.0000 
     13 C1         25.1470   21.0270   23.3410 C.ar      1 IXX801      0.0000 
     14 C12        28.1710   22.6260   20.5470 C.ar      1 IXX801      0.0000 
     15 C13        26.2310   20.2430   21.2890 C.ar      1 IXX801      0.0000 
     16 C14        26.3100   20.9490   22.5070 C.ar      1 IXX801      0.0000 
     17 C15        28.2000   21.3890   24.2140 C.3       1 IXX801      0.0000 
     18 C16        27.9200   20.0600   24.9640 C.3       1 IXX801      0.0000 
     19 C17        28.6080   18.8840   24.3110 C.3       1 IXX801      0.0000 
     20 C18        29.6650   16.6810   24.6660 C.3       1 IXX801      0.0000 
     21 C19        27.3550   17.0210   25.3210 C.3       1 IXX801      0.0000 
     22 H          28.3649   23.9402   23.7151 H         1 IXX801      0.0000 
     23 H          29.1762   25.8601   22.4718 H         1 IXX801      0.0000 
     24 H          29.3513   25.7664   20.0540 H         1 IXX801      0.0000 
     25 H          28.7350   23.7647   18.8536 H         1 IXX801      0.0000 
     26 H          23.1166   20.4539   23.5458 H         1 IXX801      0.0000 
     27 H          26.9959   21.7201   18.9564 H         1 IXX801      0.0000 
     28 H          28.6842   21.1837   19.0018 H         1 IXX801      0.0000 
     29 H          28.2610   19.7065   20.8998 H         1 IXX801      0.0000 
     30 H          27.1409   19.3586   19.5715 H         1 IXX801      0.0000 
     31 H          23.0132   19.2426   21.4423 H         1 IXX801      0.0000 
     32 H          29.0187   17.9831   26.1839 H         1 IXX801      0.0000 
     33 H          24.9693   19.1134   20.0255 H         1 IXX801      0.0000 
     34 H          25.1927   21.5382   24.2203 H         1 IXX801      0.0000 
     35 H          27.8772   22.2281   24.8780 H         1 IXX801      0.0000 
     36 H          29.3084   21.5025   24.1264 H         1 IXX801      0.0000 
     37 H          26.8390   19.8966   24.9811 H         1 IXX801      0.0000 
     38 H          28.2663   20.1683   25.9955 H         1 IXX801      0.0000 
     39 H          28.0684   18.6250   23.3794 H         1 IXX801      0.0000 
     40 H          29.6273   19.1898   24.0047 H         1 IXX801      0.0000 
     41 H          30.5876   17.0621   24.6065 H         1 IXX801      0.0000 
     42 H          29.7196   15.8707   25.2495 H         1 IXX801      0.0000 
     43 H          29.4183   16.3661   23.7495 H         1 IXX801      0.0000 
     44 H          27.3911   16.2043   25.8970 H         1 IXX801      0.0000 
     45 H          26.6863   17.6404   25.7323 H         1 IXX801      0.0000 
     46 H          26.9870   16.7388   24.4350 H         1 IXX801      0.0000 
@<TRIPOS>BOND
     1    2    1 ar   
     2    9    1 1    
     3   14    1 ar   
     4    3    2 ar   
     5   22    2 1    
     6    4    3 ar   
     7   23    3 1    
     8    5    4 ar   
     9   24    4 1    
    10   14    5 ar   
    11   25    5 1    
    12   10    6 ar   
    13   13    6 ar   
    14   26    6 1    
    15    8    7 1    
    16   14    7 1    
    17   27    7 1    
    18   28    7 1    
    19   15    8 1    
    20   29    8 1    
    21   30    8 1    
    22   16    9 1    
    23   17    9 1    
    24   12   10 ar   
    25   31   10 1    
    26   19   11 1    
    27   20   11 1    
    28   21   11 1    
    29   32   11 1    
    30   15   12 ar   
    31   33   12 1    
    32   16   13 ar   
    33   34   13 1    
    34   16   15 ar   
    35   18   17 1    
    36   35   17 1    
    37   36   17 1    
    38   19   18 1    
    39   37   18 1    
    40   38   18 1    
    41   39   19 1    
    42   40   19 1    
    43   41   20 1    
    44   42   20 1    
    45   43   20 1    
    46   44   21 1    
    47   45   21 1    
    48   46   21 1    
@<TRIPOS>SUBSTRUCTURE
     1 IXX801      1 GROUP   
@<TRIPOS>SET

