#    Name: 3cth_319_1_INTS_M
#    Modification time : Mon Mar 24 22:18:44 2014

@<TRIPOS>MOLECULE
3cth_319_1_INTS_M
   85     0     9     0     0
SMALL
NO_CHARGES


@<TRIPOS>ATOM
      1 CA         -3.2925    2.8940   53.2590 C.3       3 GLC5        0.0000 
      2 CA         -2.0300    1.6690   53.6840 C.3       9 GLL5        0.0000 
      3 CA         -4.5550    4.1190   52.8340 C.3       6 GLP5        0.0000 
      4 CA          0.4125    6.1400   55.8985 C.3       3 GLC5        0.0000 
      5 CA          0.9190    8.0660   54.9990 C.3       9 GLL5        0.0000 
      6 CA         -0.0940    4.2140   56.7980 C.3       6 GLP5        0.0000 
      7 CA          1.1095    8.8835   57.6220 C.3       3 GLC5        0.0000 
      8 CA          1.0350    9.2860   55.6690 C.3       9 GLL5        0.0000 
      9 CA          1.1840    8.4810   59.5750 C.3       6 GLP5        0.0000 
     10 CA         -3.5765    0.1445   55.5990 C.3       3 GLC5        0.0000 
     11 CA         -1.9210    0.5980   54.5720 C.3       9 GLL5        0.0000 
     12 CA         -5.2320   -0.3090   56.6260 C.3       6 GLP5        0.0000 
     13 CA         -4.1505   12.9380   57.9045 C.3       3 GLC5        0.0000 
     14 CA         -2.4360   12.0230   57.2860 C.3       9 GLL5        0.0000 
     15 CA         -5.8650   13.8530   58.5230 C.3       6 GLP5        0.0000 
     16 CA         -0.4595   15.4130   57.4785 C.3       3 GLC5        0.0000 
     17 CA         -0.9090   13.4030   58.3630 C.3       9 GLL5        0.0000 
     18 CA         -0.0100   17.4230   56.5940 C.3       6 GLP5        0.0000 
     19 CA         -1.8745   12.2855   59.6340 C.3       3 GLC5        0.0000 
     20 CA         -2.8400   11.1680   60.9050 C.3       6 GLP5        0.0000 
     21 N          -3.2315   12.9415   59.1815 N.am      2 SEC2        0.0000 
     22 N          -2.1750   12.9280   58.2640 N.am      8 SEL2        0.0000 
     23 N          -4.2880   12.9550   60.0990 N.am      5 SEP2        0.0000 
     24 O          -1.3235   14.0450   60.6315 O.2       1 ALC1        0.0000 
     25 O          -0.6020   14.3450   59.3770 O.2       7 ALL1        0.0000 
     26 O          -2.0450   13.7450   61.8860 O.2       4 ALP1        0.0000 
     27 O           1.5735    5.8105   52.8655 O.2       1 ALC1        0.0000 
     28 O           0.4490    6.8030   52.9920 O.2       7 ALL1        0.0000 
     29 O           2.6980    4.8180   52.7390 O.2       4 ALP1        0.0000 
     30 O          -0.4090    5.0735   50.0870 O.2       1 ALC1        0.0000 
     31 O          -0.6480    5.3560   51.5520 O.2       7 ALL1        0.0000 
     32 O          -0.1700    4.7910   48.6220 O.2       4 ALP1        0.0000 
     33 N           0.9680    3.7630   54.2905 N.am      2 SEC2        0.0000 
     34 N           0.0100    4.3220   53.4880 N.am      8 SEL2        0.0000 
     35 N           1.9260    3.2040   55.0930 N.am      5 SEP2        0.0000 
     36 CA         -2.2280   -1.4595   53.8915 C.3       3 GLC5        0.0000 
     37 CA         -0.6810   -1.2650   55.3250 C.3       9 GLL5        0.0000 
     38 CA         -3.7750   -1.6540   52.4580 C.3       6 GLP5        0.0000 
     39 CA         -1.3600   -2.5955   56.1345 C.3       3 GLC5        0.0000 
     40 CA         -2.0390   -3.9260   56.9440 C.3       6 GLP5        0.0000 
     41 CA         -0.4100   -2.7200   54.1355 C.3       3 GLC5        0.0000 
     42 CA         -0.1390   -4.1750   52.9460 C.3       6 GLP5        0.0000 
     43 CA         -0.2665   -1.1105   57.3795 C.3       3 GLC5        0.0000 
     44 CA          0.1480   -0.9560   59.4340 C.3       6 GLP5        0.0000 
     45 CA         -1.4725   12.7960   53.7775 C.3       3 GLC5        0.0000 
     46 CA          0.1170   11.5940   52.9890 C.3       9 GLL5        0.0000 
     47 CA         -3.0620   13.9980   54.5660 C.3       6 GLP5        0.0000 
     48 CA          2.7098    7.2950   53.9933 C.3       3 GLC5        0.0000 
     49 CA          4.6840    6.5330   53.6650 C.3       6 GLP5        0.0000 
     50 CA         -2.5130   12.8957   55.7005 C.3       3 GLC5        0.0000 
     51 CA         -1.4920   11.5640   56.3840 C.3       9 GLL5        0.0000 
     52 CA         -2.7115   10.9232   58.4595 C.3       3 GLC5        0.0000 
     53 CA         -3.4590   10.0530   60.0840 C.3       6 GLP5        0.0000 
     54 CA         -0.6575   11.0042   58.3355 C.3       3 GLC5        0.0000 
     55 CA          0.6490   10.2150   59.8360 C.3       6 GLP5        0.0000 
     56 CA         -1.0300    9.3687   52.7335 C.3       3 GLC5        0.0000 
     57 CA          0.2920    9.2470   52.9840 C.3       9 GLL5        0.0000 
     58 CA         -2.4820   10.0900   52.1530 C.3       6 GLP5        0.0000 
     59 CA         -1.6982    1.3862   50.5870 C.3       3 GLC5        0.0000 
     60 CA         -1.1030    3.0380   51.7840 C.3       9 GLL5        0.0000 
     61 CA         -2.3400    0.3080   48.9160 C.3       6 GLP5        0.0000 
     62 CA         -2.4567    3.4777   51.7565 C.3       3 GLC5        0.0000 
     63 CA         -3.8570    4.4910   51.2550 C.3       6 GLP5        0.0000 
     64 CA          1.4154    1.5852   53.1730 C.3       3 GLC5        0.0000 
     65 CA         -1.0100    1.8910   52.7320 C.3       9 GLL5        0.0000 
     66 CA          3.2540    1.9650   53.4230 C.3       6 GLP5        0.0000 
     67 CA         -0.8913    7.5900   55.0970 C.3       3 GLC5        0.0000 
     68 CA          0.5520    8.0480   53.6440 C.3       9 GLL5        0.0000 
     69 CA         -2.5470    6.8180   55.7050 C.3       6 GLP5        0.0000 
     70 CA         -0.2218    0.9940   55.8648 C.3       3 GLC5        0.0000 
     71 CA         -0.7980   -0.2310   54.4880 C.3       9 GLL5        0.0000 
     72 CA          0.2960    2.7360   56.8230 C.3       6 GLP5        0.0000 
     73 CA          0.1645   12.7123   52.7488 C.3       3 GLC5        0.0000 
     74 CA          0.3910   10.4570   53.6600 C.3       9 GLL5        0.0000 
     75 CA          0.0750   14.3990   52.1730 C.3       6 GLP5        0.0000 
     76 CA         -1.7691   13.4791   56.1214 C.3       3 GLC5        0.0000 
     77 CA         -0.1910   12.0540   56.4900 C.3       9 GLL5        0.0000 
     78 CA          0.0864   11.5876   58.7564 C.3       3 GLC5        0.0000 
     79 CA          0.8026   -1.5387   55.5989 C.3       3 GLC5        0.0000 
     80 CA          0.2130   -0.0130   53.5530 C.3       9 GLL5        0.0000 
     81 CA          2.0920   -2.3840   56.5250 C.3       6 GLP5        0.0000 
     82 CA          0.7461   10.5825   51.3082 C.3       3 GLC5        0.0000 
     83 CA          1.2630   10.4420   49.4610 C.3       6 GLP5        0.0000 
     84 CA         -1.0674   10.5610   52.9067 C.3       3 GLC5        0.0000 
     85 CA         -0.4517    1.9528   55.1743 C.3       3 GLC5        0.0000 
@<TRIPOS>BOND
@<TRIPOS>SUBSTRUCTURE
     1 ALC1       24 GROUP        1 X    ALC  0     ROOT ALC X 1
     2 SEC2       21 GROUP        1 X    SEC  0     **** SEC X 2
     3 GLC5        1 GROUP        1 X    GLC  0     **** GLC X 6
     4 ALP1       26 GROUP        1 Y    ALP  0     ROOT ALP Y 8
     5 SEP2       23 GROUP        1 Y    SEP  0     **** SEP Y 9
     6 GLP5        3 GROUP        1 Y    GLP  0     **** GLP Y 13
     7 ALL1       25 GROUP        1 Z    ALL  0     ROOT ALL Z 15
     8 SEL2       22 GROUP        1 Z    SEL  0     **** SEL Z 16
     9 GLL5        2 GROUP        1 Z    GLL  0     **** GLL Z 20
@<TRIPOS>SET

