#    Name: 3cth_319_1_ligand
#    Modification time : Mon Mar 24 22:18:44 2014

@<TRIPOS>MOLECULE
3cth_319_1_ligand
   45    47     1     0     0
SMALL
NO_CHARGES


@<TRIPOS>ATOM
      1 C1          0.1140    1.0530   52.6750 C.ar      1 3192001     0.0000 
      2 C2         -2.0300    1.6690   53.6840 C.ar      1 3192001     0.0000 
      3 C3          0.9190    8.0660   54.9990 C.ar      1 3192001     0.0000 
      4 C4          1.0350    9.2860   55.6690 C.ar      1 3192001     0.0000 
      5 C5          0.2130   -0.0130   53.5530 C.ar      1 3192001     0.0000 
      6 C6         -1.9210    0.5980   54.5720 C.ar      1 3192001     0.0000 
      7 C7         -1.4920   11.5640   56.3840 C.ar      1 3192001     0.0000 
      8 C8          0.2920    9.2470   52.9840 C.ar      1 3192001     0.0000 
      9 C9          0.1040   12.9810   57.4910 C.ar      1 3192001     0.0000 
     10 C10        -2.4360   12.0230   57.2860 C.ar      1 3192001     0.0000 
     11 C11        -1.0100    1.8910   52.7320 C.ar      1 3192001     0.0000 
     12 C12         0.5520    8.0480   53.6440 C.ar      1 3192001     0.0000 
     13 C13         0.7640   10.4830   55.0040 C.ar      1 3192001     0.0000 
     14 C14        -0.1910   12.0540   56.4900 C.ar      1 3192001     0.0000 
     15 C15        -0.7980   -0.2310   54.4880 C.ar      1 3192001     0.0000 
     16 C16         0.3910   10.4570   53.6600 C.ar      1 3192001     0.0000 
     17 C17        -0.9090   13.4030   58.3630 C.ar      1 3192001     0.0000 
     18 C18        -0.6440    4.3080   52.4610 C.2       1 3192001     0.0000 
     19 C19        -0.1050    6.6130   51.7410 C.2       1 3192001     0.0000 
     20 C20        -1.1030    3.0380   51.7840 C.3       1 3192001     0.0000 
     21 N21        -2.1750   12.9280   58.2640 N.ar      1 3192001     0.0000 
     22 N22        -0.6020   14.3450   59.3770 N.pl3     1 3192001     0.0000 
     23 N23         0.4490    6.8030   52.9920 N.am      1 3192001     0.0000 
     24 N24        -0.6480    5.3560   51.5520 N.am      1 3192001     0.0000 
     25 O25         0.0100    4.3220   53.4880 O.2       1 3192001     0.0000 
     26 O26        -0.1580    7.4260   50.8290 O.2       1 3192001     0.0000 
     27 O27         0.8600   11.6920   55.6570 O.3       1 3192001     0.0000 
     28 F28        -0.6810   -1.2650   55.3250 F         1 3192001     0.0000 
     29 F29         0.1170   11.5940   52.9890 F         1 3192001     0.0000 
     30 H           0.8496    1.2352   51.9875 H         1 3192001     0.0000 
     31 H          -2.8377    2.2919   53.7158 H         1 3192001     0.0000 
     32 H           1.1000    7.1873   55.4907 H         1 3192001     0.0000 
     33 H           1.3214    9.3021   56.6566 H         1 3192001     0.0000 
     34 H           1.0234   -0.6410   53.5193 H         1 3192001     0.0000 
     35 H          -2.6427    0.4229   55.2664 H         1 3192001     0.0000 
     36 H          -1.7349   10.8902   55.6644 H         1 3192001     0.0000 
     37 H           0.0248    9.2348   51.9887 H         1 3192001     0.0000 
     38 H           1.0519   13.3513   57.5897 H         1 3192001     0.0000 
     39 H          -3.4225   11.6371   57.1990 H         1 3192001     0.0000 
     40 H          -2.1347    3.1627   51.4502 H         1 3192001     0.0000 
     41 H          -0.4760    2.8509   50.9104 H         1 3192001     0.0000 
     42 H          -0.7117   14.0287   60.3193 H         1 3192001     0.0000 
     43 H          -0.3018   15.2461   59.0641 H         1 3192001     0.0000 
     44 H           0.8274    5.9574   53.5083 H         1 3192001     0.0000 
     45 H          -1.1227    5.1694   50.6035 H         1 3192001     0.0000 
@<TRIPOS>BOND
     1    5    1 ar   
     2   11    1 ar   
     3   30    1 1    
     4    6    2 ar   
     5   11    2 ar   
     6   31    2 1    
     7    4    3 ar   
     8   12    3 ar   
     9   32    3 1    
    10   13    4 ar   
    11   33    4 1    
    12   15    5 ar   
    13   34    5 1    
    14   15    6 ar   
    15   35    6 1    
    16   10    7 ar   
    17   14    7 ar   
    18   36    7 1    
    19   12    8 ar   
    20   16    8 ar   
    21   37    8 1    
    22   14    9 ar   
    23   17    9 ar   
    24   38    9 1    
    25   21   10 ar   
    26   39   10 1    
    27   20   11 1    
    28   23   12 1    
    29   16   13 ar   
    30   27   13 1    
    31   27   14 1    
    32   28   15 1    
    33   29   16 1    
    34   21   17 ar   
    35   22   17 1    
    36   20   18 1    
    37   24   18 1    
    38   25   18 2    
    39   23   19 1    
    40   24   19 1    
    41   26   19 2    
    42   40   20 1    
    43   41   20 1    
    44   42   22 1    
    45   43   22 1    
    46   44   23 1    
    47   45   24 1    
@<TRIPOS>SUBSTRUCTURE
     1 3192001     1 GROUP   
@<TRIPOS>SET

