#    Name: 3fnf_JPM_3_INTS_M
#    Modification time : Tue Mar 25 06:09:46 2014

@<TRIPOS>MOLECULE
3fnf_JPM_3_INTS_M
   65     0     9     0     0
SMALL
NO_CHARGES


@<TRIPOS>ATOM
      1 CA         33.7165   32.5045    7.6185 C.3       3 GLC5        0.0000 
      2 CA         33.6540   34.4200    6.9280 C.3       9 GLL5        0.0000 
      3 CA         33.7790   30.5890    8.3090 C.3       6 GLP5        0.0000 
      4 CA         34.9895   34.0325    8.5755 C.3       3 GLC5        0.0000 
      5 CA         36.3250   33.6450   10.2230 C.3       6 GLP5        0.0000 
      6 CA         29.7215   34.8330    8.7530 C.3       3 GLC5        0.0000 
      7 CA         30.5010   36.3090    7.9290 C.3       9 GLL5        0.0000 
      8 CA         28.9420   33.3570    9.5770 C.3       6 GLP5        0.0000 
      9 CA         28.6095   35.9635    6.9685 C.3       3 GLC5        0.0000 
     10 CA         26.7180   35.6180    6.0080 C.3       6 GLP5        0.0000 
     11 CA         29.0050   37.0300    8.9970 C.3       3 GLC5        0.0000 
     12 CA         27.5090   37.7510   10.0650 C.3       6 GLP5        0.0000 
     13 CA         29.5885   35.3355    5.3650 C.3       3 GLC5        0.0000 
     14 CA         31.5450   35.8030    5.6970 C.3       9 GLL5        0.0000 
     15 CA         27.6320   34.8680    5.0330 C.3       6 GLP5        0.0000 
     16 N          31.2155   39.9370   12.6090 N.am      2 SEC2        0.0000 
     17 N          31.7170   39.1080   11.8010 N.am      8 SEL2        0.0000 
     18 N          30.7140   40.7660   13.4170 N.am      5 SEP2        0.0000 
     19 O          32.2090   38.1235   12.3990 O.2       1 ALC1        0.0000 
     20 O          31.7170   39.1080   11.8010 O.2       7 ALL1        0.0000 
     21 O          32.7010   37.1390   12.9970 O.2       4 ALP1        0.0000 
     22 CA         33.4330   42.4740   12.7320 C.3       3 GLC5        0.0000 
     23 CA         32.2700   43.8830   11.4650 C.3       9 GLL5        0.0000 
     24 CA         34.5960   41.0650   13.9990 C.3       6 GLP5        0.0000 
     25 CA         32.1355   44.0045    9.7305 C.3       3 GLC5        0.0000 
     26 CA         32.0010   44.1260    7.9960 C.3       6 GLP5        0.0000 
     27 CA         30.8610   43.3725   12.4605 C.3       3 GLC5        0.0000 
     28 CA         29.4520   42.8620   13.4560 C.3       6 GLP5        0.0000 
     29 CA         38.4445   43.3645   11.5750 C.3       3 GLC5        0.0000 
     30 CA         37.1300   43.6430   10.0030 C.3       9 GLL5        0.0000 
     31 CA         39.7590   43.0860   13.1470 C.3       6 GLP5        0.0000 
     32 CA         38.4955   41.9715    9.4675 C.3       3 GLC5        0.0000 
     33 CA         39.8610   40.3000    8.9320 C.3       6 GLP5        0.0000 
     34 CA         30.5540   36.3985   11.3795 C.3       3 GLC5        0.0000 
     35 CA         31.1230   37.7090    9.9150 C.3       9 GLL5        0.0000 
     36 CA         29.9850   35.0880   12.8440 C.3       6 GLP5        0.0000 
     37 CA         30.6348   40.5282   11.4230 C.3       3 GLC5        0.0000 
     38 CA         31.4690   38.9430   10.4750 C.3       9 GLL5        0.0000 
     39 CA         29.7420   41.5440   12.7650 C.3       6 GLP5        0.0000 
     40 CA         31.7325   42.0892    8.4973 C.3       3 GLC5        0.0000 
     41 CA         31.5860   40.0820    9.6870 C.3       9 GLL5        0.0000 
     42 CA         31.6160   40.2600    6.3268 C.3       3 GLC5        0.0000 
     43 CA         31.3420   40.0230    8.3100 C.3       9 GLL5        0.0000 
     44 CA         32.0580   41.1130    4.6270 C.3       6 GLP5        0.0000 
     45 CA         32.9873   44.1198   13.0263 C.3       3 GLC5        0.0000 
     46 CA         33.4090   43.0960   10.8040 C.3       9 GLL5        0.0000 
     47 CA         33.1350   44.7500   14.9180 C.3       6 GLP5        0.0000 
     48 CA         31.5227   41.9962   11.6550 C.3       3 GLC5        0.0000 
     49 CA         36.2892   40.0183    9.3500 C.3       3 GLC5        0.0000 
     50 CA         34.2630   41.0980    9.6830 C.3       9 GLL5        0.0000 
     51 CA         37.6810   38.6470    9.0620 C.3       6 GLP5        0.0000 
     52 CA         34.1896   41.4191   12.0565 C.3       3 GLC5        0.0000 
     53 CA         32.8921   42.9496    9.0550 C.3       3 GLC5        0.0000 
     54 CA         34.9145   42.1935   12.2018 C.3       3 GLC5        0.0000 
     55 CA         34.6940   43.6650   10.7000 C.3       9 GLL5        0.0000 
     56 CA         33.6170   43.7240    9.2003 C.3       3 GLC5        0.0000 
     57 CA         31.4983   37.3012    4.5063 C.3       3 GLC5        0.0000 
     58 CA         32.5600   35.2260    4.9240 C.3       9 GLL5        0.0000 
     59 CA         30.9440   39.0880    3.7020 C.3       6 GLP5        0.0000 
     60 CA         31.1898   34.6287    3.9207 C.3       3 GLC5        0.0000 
     61 CA         30.3270   33.7430    2.5310 C.3       6 GLP5        0.0000 
     62 CA         36.4138   44.3102   11.9279 C.3       3 GLC5        0.0000 
     63 CA         36.6460   45.1380   13.6520 C.3       6 GLP5        0.0000 
     64 CA         34.7632   35.9397    5.3225 C.3       3 GLC5        0.0000 
     65 CA         36.4300   37.0280    5.0650 C.3       6 GLP5        0.0000 
@<TRIPOS>BOND
@<TRIPOS>SUBSTRUCTURE
     1 ALC1       19 GROUP        1 X    ALC  0     ROOT ALC X 1
     2 SEC2       16 GROUP        1 X    SEC  0     **** SEC X 2
     3 GLC5        1 GROUP        1 X    GLC  0     **** GLC X 6
     4 ALP1       21 GROUP        1 Y    ALP  0     ROOT ALP Y 8
     5 SEP2       18 GROUP        1 Y    SEP  0     **** SEP Y 9
     6 GLP5        3 GROUP        1 Y    GLP  0     **** GLP Y 13
     7 ALL1       20 GROUP        1 Z    ALL  0     ROOT ALL Z 15
     8 SEL2       17 GROUP        1 Z    SEL  0     **** SEL Z 16
     9 GLL5        2 GROUP        1 Z    GLL  0     **** GLL Z 20
@<TRIPOS>SET

