#    Name: 3fnf_JPM_3_ligand
#    Modification time : Tue Mar 25 06:09:46 2014

@<TRIPOS>MOLECULE
3fnf_JPM_3_ligand
   37    39     1     0     0
SMALL
NO_CHARGES


@<TRIPOS>ATOM
      1 C2         31.4690   38.9430   10.4750 C.ar      1 JPM420      0.0000 
      2 C3         31.5860   40.0820    9.6870 C.ar      1 JPM420      0.0000 
      3 C4         31.3420   40.0230    8.3100 C.ar      1 JPM420      0.0000 
      4 C5         31.0060   38.7910    7.7430 C.ar      1 JPM420      0.0000 
      5 C7         33.4090   43.0960   10.8040 C.ar      1 JPM420      0.0000 
      6 C8         33.1980   41.8010   10.2860 C.ar      1 JPM420      0.0000 
      7 C9         34.2630   41.0980    9.6830 C.ar      1 JPM420      0.0000 
      8 C10        35.5320   41.6810    9.5930 C.ar      1 JPM420      0.0000 
      9 C11        35.7720   42.9790   10.1090 C.ar      1 JPM420      0.0000 
     10 C12        34.6940   43.6650   10.7000 C.ar      1 JPM420      0.0000 
     11 C15        33.6120   34.5340    5.5440 C.ar      1 JPM420      0.0000 
     12 C16        33.6540   34.4200    6.9280 C.ar      1 JPM420      0.0000 
     13 C18        30.5010   36.3090    7.9290 C.3       1 JPM420      0.0000 
     14 C19        31.5450   35.8030    5.6970 C.ar      1 JPM420      0.0000 
     15 O2         31.7170   39.1080   11.8010 O.3       1 JPM420      0.0000 
     16 O1         31.9350   41.2390   10.3630 O.3       1 JPM420      0.0000 
     17 CL1        32.2700   43.8830   11.4650 Cl        1 JPM420      0.0000 
     18 CL5        37.1300   43.6430   10.0030 Cl        1 JPM420      0.0000 
     19 C1         31.1230   37.7090    9.9150 C.ar      1 JPM420      0.0000 
     20 C6         30.9020   37.6360    8.5410 C.ar      1 JPM420      0.0000 
     21 C13        31.5900   35.6920    7.0840 C.ar      1 JPM420      0.0000 
     22 C17        32.6410   35.0010    7.6870 C.ar      1 JPM420      0.0000 
     23 C14        32.5600   35.2260    4.9240 C.ar      1 JPM420      0.0000 
     24 H          31.4081   40.8585    7.7362 H         1 JPM420      0.0000 
     25 H          30.8316   38.7223    6.7306 H         1 JPM420      0.0000 
     26 H          34.1009   40.1564    9.3109 H         1 JPM420      0.0000 
     27 H          36.3042   41.1682    9.1489 H         1 JPM420      0.0000 
     28 H          34.8503   44.6213   11.0715 H         1 JPM420      0.0000 
     29 H          34.3506   34.1125    4.9667 H         1 JPM420      0.0000 
     30 H          34.4174   33.9168    7.3846 H         1 JPM420      0.0000 
     31 H          29.6011   36.4562    7.3103 H         1 JPM420      0.0000 
     32 H          30.2273   35.6096    8.7355 H         1 JPM420      0.0000 
     33 H          30.7764   36.3025    5.2417 H         1 JPM420      0.0000 
     34 H          31.0350   36.8822   10.5012 H         1 JPM420      0.0000 
     35 H          32.6678   34.9189    8.7195 H         1 JPM420      0.0000 
     36 H          32.5360   35.3085    3.9019 H         1 JPM420      0.0000 
     37 H          32.4174   38.4286   12.0197 H         1 JPM420      0.0000 
@<TRIPOS>BOND
     1    2    1 ar   
     2   15    1 1    
     3   19    1 ar   
     4    3    2 ar   
     5   16    2 1    
     6    4    3 ar   
     7   24    3 1    
     8   20    4 ar   
     9   25    4 1    
    10    6    5 ar   
    11   10    5 ar   
    12   17    5 1    
    13    7    6 ar   
    14   16    6 1    
    15    8    7 ar   
    16   26    7 1    
    17    9    8 ar   
    18   27    8 1    
    19   10    9 ar   
    20   18    9 1    
    21   28   10 1    
    22   12   11 ar   
    23   23   11 ar   
    24   29   11 1    
    25   22   12 ar   
    26   30   12 1    
    27   20   13 1    
    28   21   13 1    
    29   31   13 1    
    30   32   13 1    
    31   21   14 ar   
    32   23   14 ar   
    33   33   14 1    
    34   37   15 1    
    35   20   19 ar   
    36   34   19 1    
    37   22   21 ar   
    38   35   22 1    
    39   36   23 1    
@<TRIPOS>SUBSTRUCTURE
     1 JPM420      1 GROUP   
@<TRIPOS>SET

