#    Name: 4HYM_1_CAVITY_N1_6.mol2
#    Modification time : Tue Mar 11 03:45:45 2014

@<TRIPOS>MOLECULE
4HYM_1_CAVITY_N1_6.mol2
   52     0     4     0     0
SMALL
NO_CHARGES


@<TRIPOS>ATOM
      1 CA          1.3499    2.4164   -6.6369 C.3       3 GLY6        0.0000 
      2 CA          3.8440    2.4703   -5.9110 C.3       3 GLY6        0.0000 
      3 CA          2.6750    2.7562   -5.0156 C.3       3 GLY6        0.0000 
      4 O           1.5061    3.0420   -4.1201 O.2       1 ALA2        0.0000 
      5 CA          3.1284    1.2732   -6.4631 C.3       3 GLY6        0.0000 
      6 CA          1.9594    1.5590   -5.5676 C.3       3 GLY6        0.0000 
      7 CA          0.7905    1.8449   -4.6721 C.3       3 GLY6        0.0000 
      8 DU          1.2438    0.3619   -6.1196 H         4 CUB7        0.0000 
      9 N           5.6724   -0.1019   -2.7032 N.2       1 ALA2        0.0000 
     10 CA          4.5035    0.1839   -1.8077 C.3       3 GLY6        0.0000 
     11 N           6.1257   -1.5849   -4.1507 N.2       1 ALA2        0.0000 
     12 N           4.9568   -1.2991   -3.2552 N.2       1 ALA2        0.0000 
     13 DU          3.7879   -1.0132   -2.3597 H         4 CUB7        0.0000 
     14 DU          5.4101   -2.7820   -4.7027 H         4 CUB7        0.0000 
     15 N           6.2819   -0.9593   -1.6339 N.2       1 ALA2        0.0000 
     16 CA          5.1130   -0.6735   -0.7384 C.3       3 GLY6        0.0000 
     17 N           7.9042   -2.7281   -3.9769 N.2       1 ALA2        0.0000 
     18 N           6.7352   -2.4423   -3.0814 N.2       1 ALA2        0.0000 
     19 DU          5.5663   -2.1565   -2.1859 H         4 CUB7        0.0000 
     20 N           4.3974   -1.8706   -1.2905 N.2       1 ALA2        0.0000 
     21 NZ          7.1885   -3.9253   -4.5289 N.2       2 LYS4        0.0000 
     22 DU          6.0196   -3.6394   -3.6335 H         4 CUB7        0.0000 
     23 NZ          6.4729   -5.1224   -5.0810 N.2       2 LYS4        0.0000 
     24 DU          5.3040   -4.8366   -4.1855 H         4 CUB7        0.0000 
     25 CA          5.1691    2.8100   -4.2897 C.3       3 GLY6        0.0000 
     26 CA          4.0002    3.0959   -3.3942 C.3       3 GLY6        0.0000 
     27 N           2.8312    3.3817   -2.4988 N.2       1 ALA2        0.0000 
     28 CA          4.4535    1.6129   -4.8418 C.3       3 GLY6        0.0000 
     29 CA          3.2845    1.8987   -3.9463 C.3       3 GLY6        0.0000 
     30 O           2.1156    2.1846   -3.0508 O.2       1 ALA2        0.0000 
     31 DU          3.7378    0.4158   -5.3938 H         4 CUB7        0.0000 
     32 DU          2.5689    0.7016   -4.4983 H         4 CUB7        0.0000 
     33 CA          1.4000    0.9874   -3.6028 C.3       3 GLY6        0.0000 
     34 DU          1.8533   -0.4955   -5.0504 H         4 CUB7        0.0000 
     35 N           5.7786    1.9526   -3.2204 N.2       1 ALA2        0.0000 
     36 CA          4.6096    2.2385   -2.3250 C.3       3 GLY6        0.0000 
     37 CA          3.4407    2.5243   -1.4295 C.3       3 GLY6        0.0000 
     38 N           5.0629    0.7555   -3.7725 N.2       1 ALA2        0.0000 
     39 CA          3.8940    1.0413   -2.8770 C.3       3 GLY6        0.0000 
     40 N           2.7251    1.3272   -1.9815 N.2       1 ALA2        0.0000 
     41 DU          4.3473   -0.4416   -4.3245 H         4 CUB7        0.0000 
     42 DU          3.1784   -0.1558   -3.4290 H         4 CUB7        0.0000 
     43 CA          2.0094    0.1300   -2.5336 C.3       3 GLY6        0.0000 
     44 N           9.2293   -2.3884   -2.3556 N.2       1 ALA2        0.0000 
     45 O           8.0603   -2.1026   -1.4601 O.2       1 ALA2        0.0000 
     46 NZ          6.8914   -1.8168   -0.5646 N.2       2 LYS4        0.0000 
     47 CA          9.6826   -3.8714   -3.8031 C.3       3 GLY6        0.0000 
     48 N           8.5136   -3.5856   -2.9076 N.2       1 ALA2        0.0000 
     49 DU          7.3447   -3.2997   -2.0121 H         4 CUB7        0.0000 
     50 DU          6.1758   -3.0139   -1.1167 H         4 CUB7        0.0000 
     51 NZ          7.7980   -4.7827   -3.4597 N.2       2 LYS4        0.0000 
     52 DU          6.6291   -4.4969   -2.5642 H         4 CUB7        0.0000 
@<TRIPOS>BOND
@<TRIPOS>SUBSTRUCTURE
     1 ALA2        4 GROUP   
     2 LYS4       21 GROUP   
     3 GLY6        1 GROUP   
     4 CUB7        8 GROUP   
@<TRIPOS>SET

