#    Name: 4hym_CJC_1_INTS_M
#    Modification time : Tue Mar 25 01:59:49 2014

@<TRIPOS>MOLECULE
4hym_CJC_1_INTS_M
   70     0     6     0     0
SMALL
NO_CHARGES


@<TRIPOS>ATOM
      1 CA          6.0120    1.8735  -12.6735 C.3       2 GLC5        0.0000 
      2 CA          6.2670   -0.2520  -13.3440 C.3       6 GLL5        0.0000 
      3 CA          5.7570    3.9990  -12.0030 C.3       4 GLP5        0.0000 
      4 CA         10.6985    0.9195  -13.9610 C.3       2 GLC5        0.0000 
      5 CA         10.2150    1.3420  -11.9480 C.3       6 GLL5        0.0000 
      6 CA         11.1820    0.4970  -15.9740 C.3       4 GLP5        0.0000 
      7 CA         10.9160    3.0075  -13.0275 C.3       2 GLC5        0.0000 
      8 CA         11.6170    4.6730  -14.1070 C.3       4 GLP5        0.0000 
      9 CA          9.3880    3.2055  -11.9145 C.3       2 GLC5        0.0000 
     10 CA          8.5610    5.0690  -11.8810 C.3       4 GLP5        0.0000 
     11 CA         11.2950    0.4000  -10.6415 C.3       2 GLC5        0.0000 
     12 CA         10.2250    1.8400  -10.3400 C.3       6 GLL5        0.0000 
     13 CA         12.3650   -1.0400  -10.9430 C.3       4 GLP5        0.0000 
     14 CA          9.7035    3.4710   -9.8940 C.3       2 GLC5        0.0000 
     15 CA          9.1820    5.1020   -9.4480 C.3       4 GLP5        0.0000 
     16 CA          6.9295    3.9505   -8.0165 C.3       2 GLC5        0.0000 
     17 CA          6.5470    2.1090   -8.5690 C.3       6 GLL5        0.0000 
     18 CA          7.3120    5.7920   -7.4640 C.3       4 GLP5        0.0000 
     19 CA          6.1520    3.0540  -10.2860 C.3       2 GLC5        0.0000 
     20 O           7.6915    0.2025   -4.7820 O.2       1 ALC1        0.0000 
     21 O           7.0300   -0.1890   -6.0450 O.2       5 ALL1        0.0000 
     22 O           8.3530    0.5940   -3.5190 O.2       3 ALP1        0.0000 
     23 CA          9.1395    1.6440   -5.0675 C.3       2 GLC5        0.0000 
     24 CA          7.5660    2.2190   -6.3390 C.3       6 GLL5        0.0000 
     25 CA         10.7130    1.0690   -3.7960 C.3       4 GLP5        0.0000 
     26 CA          7.4390    4.0055   -6.9015 C.3       2 GLC5        0.0000 
     27 CA          6.0675    3.6690   -5.7905 C.3       2 GLC5        0.0000 
     28 CA          4.5690    5.1190   -5.2420 C.3       4 GLP5        0.0000 
     29 CA         11.9695    0.8070   -9.7695 C.3       2 GLC5        0.0000 
     30 CA         11.5740    2.6540   -8.5960 C.3       6 GLL5        0.0000 
     31 CA         12.4600    4.2740   -9.2895 C.3       2 GLC5        0.0000 
     32 CA         13.3460    5.8940   -9.9830 C.3       4 GLP5        0.0000 
     33 O          13.9665    2.8525   -8.2810 O.2       1 ALC1        0.0000 
     34 O          12.6830    3.0830   -7.9210 O.2       5 ALL1        0.0000 
     35 O          15.2500    2.6220   -8.6410 O.2       3 ALP1        0.0000 
     36 CA         13.4775    1.7070   -6.4450 C.3       2 GLC5        0.0000 
     37 CA         12.3810    3.4890   -6.6620 C.3       6 GLL5        0.0000 
     38 CA         14.5740   -0.0750   -6.2280 C.3       4 GLP5        0.0000 
     39 CA         12.4730    5.1440   -7.8490 C.3       2 GLC5        0.0000 
     40 CA         12.5650    6.7990   -9.0360 C.3       4 GLP5        0.0000 
     41 CA         10.3540    2.4515   -4.4665 C.3       2 GLC5        0.0000 
     42 CA          9.9950    3.8340   -5.1370 C.3       6 GLL5        0.0000 
     43 CA          9.5380    4.8485   -6.4805 C.3       2 GLC5        0.0000 
     44 CA          9.0810    5.8630   -7.8240 C.3       4 GLP5        0.0000 
     45 CA          9.4480    3.8495   -3.5160 C.3       2 GLC5        0.0000 
     46 CA          8.9010    3.8650   -1.8950 C.3       4 GLP5        0.0000 
     47 CA         10.8970    5.6180   -5.0055 C.3       2 GLC5        0.0000 
     48 CA         11.7990    7.4020   -4.8740 C.3       4 GLP5        0.0000 
     49 CA         14.5820    2.3320   -5.7780 C.3       2 GLC5        0.0000 
     50 CA         13.2730    3.9990   -5.5470 C.3       6 GLL5        0.0000 
     51 CA         15.8910    0.6650   -6.0090 C.3       4 GLP5        0.0000 
     52 CA         13.4005    5.9075   -7.5865 C.3       2 GLC5        0.0000 
     53 CA         14.2360    5.0160   -6.1370 C.3       6 GLL5        0.0000 
     54 CA          9.8210    0.6740  -14.5053 C.3       2 GLC5        0.0000 
     55 CA          8.7060    0.6970  -12.4000 C.3       6 GLL5        0.0000 
     56 CA          8.5105    2.9600  -12.4588 C.3       2 GLC5        0.0000 
     57 CA          8.2140    1.0050  -13.6730 C.3       6 GLL5        0.0000 
     58 CA          7.1085    2.4250  -12.5198 C.3       2 GLC5        0.0000 
     59 CA         10.9127   -0.0103  -11.5585 C.3       2 GLC5        0.0000 
     60 CA          4.9670    3.0648   -8.2112 C.3       2 GLC5        0.0000 
     61 CA          3.7920    4.4650   -8.3310 C.3       4 GLP5        0.0000 
     62 CA         10.6723    2.0503   -5.4897 C.3       2 GLC5        0.0000 
     63 CA         10.3330    2.7680   -7.7950 C.3       6 GLL5        0.0000 
     64 CA          9.9021    3.8593   -8.8969 C.3       2 GLC5        0.0000 
     65 CA         11.7700    2.4065   -4.9503 C.3       2 GLC5        0.0000 
     66 CA         10.3682    4.6275   -7.2205 C.3       2 GLC5        0.0000 
     67 CA         10.9300    3.2950   -6.5720 C.3       6 GLL5        0.0000 
     68 CA         14.0032    4.8522   -4.0505 C.3       2 GLC5        0.0000 
     69 CA         14.2520    5.1970   -2.2590 C.3       4 GLP5        0.0000 
     70 CA         12.6653    5.8910   -5.4974 C.3       2 GLC5        0.0000 
@<TRIPOS>BOND
@<TRIPOS>SUBSTRUCTURE
     1 ALC1       20 GROUP        1 X    ALC  0     ROOT ALC X 1
     2 GLC5        1 GROUP        1 X    GLC  0     **** GLC X 6
     3 ALP1       22 GROUP        1 Y    ALP  0     ROOT ALP Y 8
     4 GLP5        3 GROUP        1 Y    GLP  0     **** GLP Y 13
     5 ALL1       21 GROUP        1 Z    ALL  0     ROOT ALL Z 15
     6 GLL5        2 GROUP        1 Z    GLL  0     **** GLL Z 20
@<TRIPOS>SET

