#    Name: 4hym_CJC_1_ligand
#    Modification time : Tue Mar 25 01:59:49 2014

@<TRIPOS>MOLECULE
4hym_CJC_1_ligand
   50    54     1     0     0
SMALL
NO_CHARGES


@<TRIPOS>ATOM
      1 O47         4.0690   -2.5920  -10.9570 O.2       1 CJC401      0.0000 
      2 C28         4.7870   -1.8580  -11.6790 C.2       1 CJC401      0.0000 
      3 C27         4.3380   -1.5180  -12.9650 C.2       1 CJC401      0.0000 
      4 N29         5.9750   -1.4070  -11.2080 N.am      1 CJC401      0.0000 
      5 C22         6.7430   -0.6100  -11.9710 C.ar      1 CJC401      0.0000 
      6 C23         6.2670   -0.2520  -13.3440 C.ar      1 CJC401      0.0000 
      7 N26         5.0690   -0.7300  -13.7770 N.2       1 CJC401      0.0000 
      8 N24         7.0360    0.5470  -14.1270 N.ar      1 CJC401      0.0000 
      9 C25         8.2140    1.0050  -13.6730 C.ar      1 CJC401      0.0000 
     10 C20         8.7060    0.6970  -12.4000 C.ar      1 CJC401      0.0000 
     11 C21         7.9660   -0.1190  -11.5350 C.ar      1 CJC401      0.0000 
     12 S19        10.2150    1.3420  -11.9480 S.3       1 CJC401      0.0000 
     13 C10        10.2250    1.8400  -10.3400 C.ar      1 CJC401      0.0000 
     14 N9          9.0580    1.9260   -9.6660 N.ar      1 CJC401      0.0000 
     15 C8          9.0080    2.3900   -8.3960 C.ar      1 CJC401      0.0000 
     16 N13         7.7510    2.3370   -7.7800 N.3       1 CJC401      0.0000 
     17 C14         6.5470    2.1090   -8.5690 C.3       1 CJC401      0.0000 
     18 C15         5.7370    1.2200   -7.6140 C.3       1 CJC401      0.0000 
     19 C16         6.4580    1.1530   -6.2620 C.3       1 CJC401      0.0000 
     20 N18         7.0300   -0.1890   -6.0450 N.4       1 CJC401      0.0000 
     21 C17         7.5660    2.2190   -6.3390 C.3       1 CJC401      0.0000 
     22 C3         10.3330    2.7680   -7.7950 C.ar      1 CJC401      0.0000 
     23 C2         11.5740    2.6540   -8.5960 C.ar      1 CJC401      0.0000 
     24 N11        11.4220    2.1620   -9.8270 N.ar      1 CJC401      0.0000 
     25 N1         12.6830    3.0830   -7.9210 N.pl3     1 CJC401      0.0000 
     26 C5         12.3810    3.4890   -6.6620 C.2       1 CJC401      0.0000 
     27 C4         10.9300    3.2950   -6.5720 C.2       1 CJC401      0.0000 
     28 CL1         9.9950    3.8340   -5.1370 Cl        1 CJC401      0.0000 
     29 C6         13.2730    3.9990   -5.5470 C.3       1 CJC401      0.0000 
     30 C7         14.2360    5.0160   -6.1370 C.3       1 CJC401      0.0000 
     31 H           3.4165   -1.8956  -13.2751 H         1 CJC401      0.0000 
     32 H           6.2892   -1.6811  -10.2527 H         1 CJC401      0.0000 
     33 H           8.8104    1.6241  -14.2833 H         1 CJC401      0.0000 
     34 H           8.3217   -0.3434  -10.6094 H         1 CJC401      0.0000 
     35 H           6.7506    1.5615   -9.4502 H         1 CJC401      0.0000 
     36 H           6.0095    3.0039   -8.7361 H         1 CJC401      0.0000 
     37 H           5.6600    0.2265   -8.0293 H         1 CJC401      0.0000 
     38 H           4.7546    1.6457   -7.4761 H         1 CJC401      0.0000 
     39 H           5.7761    1.4284   -5.4995 H         1 CJC401      0.0000 
     40 H           7.2005    3.1161   -5.9125 H         1 CJC401      0.0000 
     41 H           8.4305    1.8415   -5.8590 H         1 CJC401      0.0000 
     42 H          13.5871    3.0938   -8.3061 H         1 CJC401      0.0000 
     43 H          13.8311    3.1771   -5.1234 H         1 CJC401      0.0000 
     44 H          12.6696    4.4723   -4.7866 H         1 CJC401      0.0000 
     45 H           7.6920   -0.4298   -6.7548 H         1 CJC401      0.0000 
     46 H           7.5051   -0.2528   -5.1674 H         1 CJC401      0.0000 
     47 H           6.3251   -0.8983   -6.0489 H         1 CJC401      0.0000 
     48 H          14.8529    5.3890   -5.4439 H         1 CJC401      0.0000 
     49 H          14.8076    4.6146   -6.8526 H         1 CJC401      0.0000 
     50 H          13.7535    5.7900   -6.5470 H         1 CJC401      0.0000 
@<TRIPOS>BOND
     1    2    1 2    
     2    3    2 1    
     3    4    2 am   
     4    7    3 2    
     5   31    3 1    
     6    5    4 1    
     7   32    4 1    
     8    6    5 ar   
     9   11    5 ar   
    10    7    6 1    
    11    8    6 ar   
    12    9    8 ar   
    13   10    9 ar   
    14   33    9 1    
    15   11   10 ar   
    16   12   10 1    
    17   34   11 1    
    18   13   12 1    
    19   14   13 ar   
    20   24   13 ar   
    21   15   14 ar   
    22   16   15 1    
    23   22   15 ar   
    24   17   16 1    
    25   21   16 1    
    26   18   17 1    
    27   35   17 1    
    28   36   17 1    
    29   19   18 1    
    30   37   18 1    
    31   38   18 1    
    32   20   19 1    
    33   21   19 1    
    34   39   19 1    
    35   45   20 1    
    36   46   20 1    
    37   47   20 1    
    38   40   21 1    
    39   41   21 1    
    40   23   22 ar   
    41   27   22 1    
    42   24   23 ar   
    43   25   23 1    
    44   26   25 1    
    45   42   25 1    
    46   27   26 2    
    47   29   26 1    
    48   28   27 1    
    49   30   29 1    
    50   43   29 1    
    51   44   29 1    
    52   48   30 1    
    53   49   30 1    
    54   50   30 1    
@<TRIPOS>SUBSTRUCTURE
     1 CJC401      1 GROUP   
@<TRIPOS>SET

