#    Name: 3sn9_ANP_3_INTS_M
#    Modification time : Mon Mar 24 17:55:13 2014

@<TRIPOS>MOLECULE
3sn9_ANP_3_INTS_M
   65     0    12     0     0
SMALL
NO_CHARGES


@<TRIPOS>ATOM
      1 NZ         54.3775   23.4045   52.5205 N.4       3 LYC4        0.0000 
      2 NZ         55.5010   23.1390   51.2240 N.4      11 LYL4        0.0000 
      3 NZ         53.2540   23.6700   53.8170 N.4       7 LYP4        0.0000 
      4 NZ         53.2055   23.3100   48.5845 N.4       3 LYC4        0.0000 
      5 NZ         54.7730   22.7520   48.8830 N.4      11 LYL4        0.0000 
      6 NZ         51.0110   22.7360   47.9660 N.4       7 LYP4        0.0000 
      7 N          53.2345   22.1700   48.4040 N.am      2 SEC2        0.0000 
      8 N          54.7730   22.7520   48.8830 N.am     10 SEL2        0.0000 
      9 N          51.6960   21.5880   47.9250 N.am      6 SEP2        0.0000 
     10 N          53.2055   23.3100   48.5845 N.am      2 SEC2        0.0000 
     11 N          51.6380   23.8680   48.2860 N.am      6 SEP2        0.0000 
     12 NZ         57.0590   26.3630   46.9965 N.4       3 LYC4        0.0000 
     13 NZ         56.5780   24.8700   47.0350 N.4      11 LYL4        0.0000 
     14 NZ         56.3150   28.3510   47.1560 N.4       7 LYP4        0.0000 
     15 N          55.9080   26.2410   46.9510 N.am      2 SEC2        0.0000 
     16 N          56.5780   24.8700   47.0350 N.am     10 SEL2        0.0000 
     17 N          55.2380   27.6120   46.8670 N.am      6 SEP2        0.0000 
     18 N          57.0590   26.3630   46.9965 N.am      2 SEC2        0.0000 
     19 N          57.5400   27.8560   46.9580 N.am      6 SEP2        0.0000 
     20 N          58.3120   26.3585   47.3600 N.am      2 SEC2        0.0000 
     21 N          59.0840   24.8610   47.7620 N.am     10 SEL2        0.0000 
     22 N          58.8155   22.3595   44.3960 N.am      2 SEC2        0.0000 
     23 N          59.9360   21.6230   45.3790 N.am     10 SEL2        0.0000 
     24 N          57.6950   23.0960   43.4130 N.am      6 SEP2        0.0000 
     25 N          59.9705   21.3365   44.0285 N.am      2 SEC2        0.0000 
     26 N          60.0050   21.0500   42.6780 N.am      6 SEP2        0.0000 
     27 NZ         60.3425   21.3080   49.4795 N.4       3 LYC4        0.0000 
     28 NZ         60.1160   21.8800   47.9390 N.4      11 LYL4        0.0000 
     29 NZ         60.5690   20.7360   51.0200 N.4       7 LYP4        0.0000 
     30 N          60.3425   21.3080   49.4795 N.am      2 SEC2        0.0000 
     31 N          60.1160   21.8800   47.9390 N.am     10 SEL2        0.0000 
     32 N          60.5690   20.7360   51.0200 N.am      6 SEP2        0.0000 
     33 N          56.7815   22.4970   45.7690 N.am      2 SEC2        0.0000 
     34 N          58.0240   22.8270   46.6940 N.am     10 SEL2        0.0000 
     35 N          55.5390   22.1670   44.8440 N.am      6 SEP2        0.0000 
     36 N          53.0275   20.8255   48.2805 N.am      2 SEC2        0.0000 
     37 N          54.3590   20.0630   48.6360 N.am     10 SEL2        0.0000 
     38 CA         53.0810   18.1840   49.3020 C.3       4 GLC5        0.0000 
     39 CA         55.0870   17.7040   48.5180 C.3      12 GLL5        0.0000 
     40 CA         51.0750   18.6640   50.0860 C.3       8 GLP5        0.0000 
     41 CA         53.9635   15.9255   49.0830 C.3       4 GLC5        0.0000 
     42 CA         52.8400   14.1470   49.6480 C.3       8 GLP5        0.0000 
     43 CA         60.5595   15.6040   50.0305 C.3       4 GLC5        0.0000 
     44 CA         58.4450   14.9380   49.9490 C.3      12 GLL5        0.0000 
     45 CA         62.6740   16.2700   50.1120 C.3       8 GLP5        0.0000 
     46 CA         60.1610   12.0220   49.5200 C.3       4 GLC5        0.0000 
     47 CA         58.8520   13.5550   50.2570 C.3      12 GLL5        0.0000 
     48 CA         61.4700   10.4890   48.7830 C.3       8 GLP5        0.0000 
     49 O          61.1935   13.2855   51.0525 O.2       1 ALC1        0.0000 
     50 O          59.7700   13.2950   51.2180 O.2       9 ALL1        0.0000 
     51 O          62.6170   13.2760   50.8870 O.2       5 ALP1        0.0000 
     52 CA         56.5055   12.0110   50.0210 C.3       4 GLC5        0.0000 
     53 CA         57.3830   12.7940   48.5920 C.3      12 GLL5        0.0000 
     54 CA         55.6280   11.2280   51.4500 C.3       8 GLP5        0.0000 
     55 N          56.0830   13.8485   46.9920 N.am      2 SEC2        0.0000 
     56 N          56.9750   14.0360   48.2720 N.am     10 SEL2        0.0000 
     57 N          55.1910   13.6610   45.7120 N.am      6 SEP2        0.0000 
     58 CA         55.2924   20.7126   46.9349 C.3       4 GLC5        0.0000 
     59 CA         56.4150   19.3890   47.5340 C.3      12 GLL5        0.0000 
     60 CA         54.3440   21.9460   45.6500 C.3       8 GLP5        0.0000 
     61 CA         55.2912   18.1085   50.7013 C.3       4 GLC5        0.0000 
     62 CA         55.4680   19.1580   48.6950 C.3      12 GLL5        0.0000 
     63 CA         55.3050   17.7860   52.7960 C.3       8 GLP5        0.0000 
     64 CA         57.6363   13.5853   51.6120 C.3       4 GLC5        0.0000 
     65 CA         56.6240   12.9240   53.1210 C.3       8 GLP5        0.0000 
@<TRIPOS>BOND
@<TRIPOS>SUBSTRUCTURE
     1 ALC1       49 GROUP        1 X    ALC  0     ROOT ALC X 1
     2 SEC2        7 GROUP        1 X    SEC  0     **** SEC X 2
     3 LYC4        1 GROUP        1 X    LYC  0     **** LYC X 4
     4 GLC5       38 GROUP        1 X    GLC  0     **** GLC X 6
     5 ALP1       51 GROUP        1 Y    ALP  0     ROOT ALP Y 8
     6 SEP2        9 GROUP        1 Y    SEP  0     **** SEP Y 9
     7 LYP4        3 GROUP        1 Y    LYP  0     **** LYP Y 11
     8 GLP5       40 GROUP        1 Y    GLP  0     **** GLP Y 13
     9 ALL1       50 GROUP        1 Z    ALL  0     ROOT ALL Z 15
    10 SEL2        8 GROUP        1 Z    SEL  0     **** SEL Z 16
    11 LYL4        2 GROUP        1 Z    LYL  0     **** LYL Z 18
    12 GLL5       39 GROUP        1 Z    GLL  0     **** GLL Z 20
@<TRIPOS>SET

