#    Name: 3sn9_ANP_3_ligand
#    Modification time : Mon Mar 24 17:55:13 2014

@<TRIPOS>MOLECULE
3sn9_ANP_3_ligand
   43    45     1     0     0
SMALL
NO_CHARGES


@<TRIPOS>ATOM
      1 PG         55.5210   23.6930   49.8110 P.3       1 ANP300      0.0000 
      2 O1G        55.5010   23.1390   51.2240 O.co2     1 ANP300      0.0000 
      3 O2G        55.1010   25.1500   49.7130 O.co2     1 ANP300      0.0000 
      4 O3G        54.7730   22.7520   48.8830 O.co2     1 ANP300      0.0000 
      5 PB         57.7540   24.1370   47.6600 P.3       1 ANP300      0.0000 
      6 O1B        56.5780   24.8700   47.0350 O.co2     1 ANP300      0.0000 
      7 O2B        59.0840   24.8610   47.7620 O.co2     1 ANP300      0.0000 
      8 N3B        57.2260   23.7180   49.3000 N.4       1 ANP300      0.0000 
      9 PA         59.2560   21.7560   46.7090 P.3       1 ANP300      0.0000 
     10 O1A        59.9360   21.6230   45.3790 O.co2     1 ANP300      0.0000 
     11 O2A        60.1160   21.8800   47.9390 O.co2     1 ANP300      0.0000 
     12 O3A        58.0240   22.8270   46.6940 O.3       1 ANP300      0.0000 
     13 O5'        58.4310   20.4060   46.8210 O.3       1 ANP300      0.0000 
     14 C5'        57.6120   20.2120   47.9550 C.3       1 ANP300      0.0000 
     15 C4'        56.4150   19.3890   47.5340 C.3       1 ANP300      0.0000 
     16 O4'        56.8510   18.1190   47.0570 O.3       1 ANP300      0.0000 
     17 C3'        55.4680   19.1580   48.6950 C.3       1 ANP300      0.0000 
     18 O3'        54.3590   20.0630   48.6360 O.3       1 ANP300      0.0000 
     19 C2'        55.0870   17.7040   48.5180 C.3       1 ANP300      0.0000 
     20 O2'        53.9370   17.5840   47.6700 O.3       1 ANP300      0.0000 
     21 C1'        56.2780   17.0620   47.8170 C.3       1 ANP300      0.0000 
     22 N9         57.2450   16.4360   48.7840 N.pl3     1 ANP300      0.0000 
     23 C8         58.0290   17.0580   49.6860 C.2       1 ANP300      0.0000 
     24 N7         58.7600   16.1590   50.3900 N.2       1 ANP300      0.0000 
     25 C5         58.4450   14.9380   49.9490 C.ar      1 ANP300      0.0000 
     26 C6         58.8520   13.5550   50.2570 C.ar      1 ANP300      0.0000 
     27 N6         59.7700   13.2950   51.2180 N.pl3     1 ANP300      0.0000 
     28 N1         58.2900   12.5560   49.5500 N.ar      1 ANP300      0.0000 
     29 C2         57.3830   12.7940   48.5920 C.ar      1 ANP300      0.0000 
     30 N3         56.9750   14.0360   48.2720 N.ar      1 ANP300      0.0000 
     31 C4         57.4580   15.1260   48.8960 C.ar      1 ANP300      0.0000 
     32 H          57.2459   21.1568   48.3644 H         1 ANP300      0.0000 
     33 H          58.1316   19.6713   48.7500 H         1 ANP300      0.0000 
     34 H          55.8803   19.9234   46.7625 H         1 ANP300      0.0000 
     35 H          56.0411   19.2457   49.5954 H         1 ANP300      0.0000 
     36 H          54.9632   17.2528   49.4595 H         1 ANP300      0.0000 
     37 H          55.8781   16.2998   47.1535 H         1 ANP300      0.0000 
     38 H          58.0689   18.0284   49.8189 H         1 ANP300      0.0000 
     39 H          59.5488   13.6204   52.1373 H         1 ANP300      0.0000 
     40 H          60.5877   12.8006   50.9231 H         1 ANP300      0.0000 
     41 H          56.9687   11.9716   48.0634 H         1 ANP300      0.0000 
     42 H          54.7614   20.9724   48.7412 H         1 ANP300      0.0000 
     43 H          53.6514   18.5247   47.4869 H         1 ANP300      0.0000 
@<TRIPOS>BOND
     1    2    1 ar   
     2    3    1 ar   
     3    4    1 ar   
     4    8    1 1    
     5    6    5 ar   
     6    7    5 ar   
     7    8    5 1    
     8   12    5 1    
     9   10    9 ar   
    10   11    9 ar   
    11   12    9 1    
    12   13    9 1    
    13   14   13 1    
    14   15   14 1    
    15   32   14 1    
    16   33   14 1    
    17   16   15 1    
    18   17   15 1    
    19   34   15 1    
    20   21   16 1    
    21   18   17 1    
    22   19   17 1    
    23   35   17 1    
    24   42   18 1    
    25   20   19 1    
    26   21   19 1    
    27   36   19 1    
    28   43   20 1    
    29   22   21 1    
    30   37   21 1    
    31   23   22 1    
    32   31   22 1    
    33   24   23 2    
    34   38   23 1    
    35   25   24 1    
    36   26   25 ar   
    37   31   25 ar   
    38   27   26 1    
    39   28   26 ar   
    40   39   27 1    
    41   40   27 1    
    42   29   28 ar   
    43   30   29 ar   
    44   41   29 1    
    45   31   30 ar   
@<TRIPOS>SUBSTRUCTURE
     1 ANP300      1 GROUP   
@<TRIPOS>SET

