#    Name: 2yjd_YJD_1_INTS_M
#    Modification time : Tue Mar 25 09:23:45 2014

@<TRIPOS>MOLECULE
2yjd_YJD_1_INTS_M
   68     0     9     0     0
SMALL
NO_CHARGES


@<TRIPOS>ATOM
      1 CA        -17.5985  -22.3415    2.4305 C.3       3 GLC5        0.0000 
      2 CA        -16.1040  -21.7610    3.6820 C.3       9 GLL5        0.0000 
      3 CA        -19.0930  -22.9220    1.1790 C.3       6 GLP5        0.0000 
      4 CA        -16.9890  -20.7020    1.5745 C.3       3 GLC5        0.0000 
      5 CA        -15.8560  -20.5060    3.1000 C.3       9 GLL5        0.0000 
      6 CA        -18.1220  -20.8980    0.0490 C.3       6 GLP5        0.0000 
      7 CA        -17.6225  -20.2220    4.0110 C.3       3 GLC5        0.0000 
      8 CA        -19.3890  -19.9380    4.9220 C.3       6 GLP5        0.0000 
      9 CA        -12.6080  -18.5540    5.2700 C.3       3 GLC5        0.0000 
     10 CA        -13.8040  -20.2770    4.4910 C.3       9 GLL5        0.0000 
     11 CA        -11.4120  -16.8310    6.0490 C.3       6 GLP5        0.0000 
     12 N         -16.4550  -23.8440    6.5875 N.am      2 SEC2        0.0000 
     13 N         -15.4970  -23.4750    5.2490 N.am      8 SEL2        0.0000 
     14 N         -17.4130  -24.2130    7.9260 N.am      5 SEP2        0.0000 
     15 N         -16.0375  -24.8030    5.1780 N.am      2 SEC2        0.0000 
     16 N         -16.5780  -26.1310    5.1070 N.am      5 SEP2        0.0000 
     17 O         -14.3525  -24.0260    5.6220 O.2       1 ALC1        0.0000 
     18 O         -15.4970  -23.4750    5.2490 O.2       7 ALL1        0.0000 
     19 O         -13.2080  -24.5770    5.9950 O.2       4 ALP1        0.0000 
     20 CA        -15.7330  -14.0430    0.0130 C.3       3 GLC5        0.0000 
     21 CA        -15.1750  -15.1650    1.5960 C.3       9 GLL5        0.0000 
     22 CA        -16.2910  -12.9210   -1.5700 C.3       6 GLP5        0.0000 
     23 CA         -9.1270  -18.7840    3.6150 C.3       3 GLC5        0.0000 
     24 CA        -10.8450  -18.7460    2.1870 C.3       9 GLL5        0.0000 
     25 CA         -7.4090  -18.8220    5.0430 C.3       6 GLP5        0.0000 
     26 CA        -17.9920  -18.5100    4.0255 C.3       3 GLC5        0.0000 
     27 CA        -16.5950  -17.0820    3.1290 C.3       9 GLL5        0.0000 
     28 CA        -10.3605  -21.0755   -0.1680 C.3       3 GLC5        0.0000 
     29 CA        -10.0480  -19.5350    1.1380 C.3       9 GLL5        0.0000 
     30 CA        -10.6730  -22.6160   -1.4740 C.3       6 GLP5        0.0000 
     31 CA         -9.2320  -18.8820   -0.2775 C.3       3 GLC5        0.0000 
     32 CA         -8.4160  -18.2290   -1.6930 C.3       6 GLP5        0.0000 
     33 CA         -8.7245  -20.6650    0.6450 C.3       3 GLC5        0.0000 
     34 CA         -7.4010  -21.7950    0.1520 C.3       6 GLP5        0.0000 
     35 CA         -9.8970  -15.4860    2.4440 C.3       3 GLC5        0.0000 
     36 CA        -10.3300  -17.3240    2.3050 C.3       9 GLL5        0.0000 
     37 CA         -9.4640  -13.6480    2.5830 C.3       6 GLP5        0.0000 
     38 CA         -8.5745  -17.1585    2.8250 C.3       3 GLC5        0.0000 
     39 CA         -6.8190  -16.9930    3.3450 C.3       6 GLP5        0.0000 
     40 CA         -9.0085  -16.7920    0.9825 C.3       3 GLC5        0.0000 
     41 CA         -7.6870  -16.2600   -0.3400 C.3       6 GLP5        0.0000 
     42 CA        -17.6345  -22.2240    4.7055 C.3       3 GLC5        0.0000 
     43 CA        -19.6120  -22.4340    5.2280 C.3       6 GLP5        0.0000 
     44 CA        -15.3133  -22.8185    2.5947 C.3       3 GLC5        0.0000 
     45 CA        -15.2100  -22.2670    4.6840 C.3       9 GLL5        0.0000 
     46 CA        -14.8700  -24.3770    1.5480 C.3       6 GLP5        0.0000 
     47 CA        -13.6303  -21.2475    6.7698 C.3       3 GLC5        0.0000 
     48 CA        -14.0450  -21.5210    5.0940 C.3       9 GLL5        0.0000 
     49 CA        -13.3360  -21.5960    8.7470 C.3       6 GLP5        0.0000 
     50 CA        -11.9348  -21.5245    4.1982 C.3       3 GLC5        0.0000 
     51 CA         -9.9450  -22.1500    3.6040 C.3       6 GLP5        0.0000 
     52 CA        -14.2182  -15.6817    3.6795 C.3       3 GLC5        0.0000 
     53 CA        -14.5900  -16.4020    1.9080 C.3       9 GLL5        0.0000 
     54 CA        -13.5540  -15.5800    5.6070 C.3       6 GLP5        0.0000 
     55 CA        -17.6950  -15.1363    0.8407 C.3       3 GLC5        0.0000 
     56 CA        -16.4780  -14.9020    2.0470 C.3       9 GLL5        0.0000 
     57 CA        -18.5600  -14.9000   -0.7490 C.3       6 GLP5        0.0000 
     58 CA        -15.8711  -13.6446    2.6254 C.3       3 GLC5        0.0000 
     59 CA        -17.1820  -15.8430    2.8140 C.3       9 GLL5        0.0000 
     60 CA        -15.2380  -11.8510    2.9330 C.3       6 GLP5        0.0000 
     61 CA        -18.5497  -16.9952    2.4933 C.3       3 GLC5        0.0000 
     62 CA        -20.2110  -17.5280    2.0150 C.3       6 GLP5        0.0000 
     63 CA        -10.9998  -17.4330    4.1475 C.3       3 GLC5        0.0000 
     64 CA        -10.1958  -20.6453    2.6333 C.3       3 GLC5        0.0000 
     65 CA        -11.5868  -19.3388    0.0087 C.3       3 GLC5        0.0000 
     66 CA        -12.7270  -19.5370   -1.6450 C.3       6 GLP5        0.0000 
     67 CA        -14.7498  -16.4045    4.2598 C.3       3 GLC5        0.0000 
     68 CA        -15.2960  -17.3760    2.6960 C.3       9 GLL5        0.0000 
@<TRIPOS>BOND
@<TRIPOS>SUBSTRUCTURE
     1 ALC1       17 GROUP        1 X    ALC  0     ROOT ALC X 1
     2 SEC2       12 GROUP        1 X    SEC  0     **** SEC X 2
     3 GLC5        1 GROUP        1 X    GLC  0     **** GLC X 6
     4 ALP1       19 GROUP        1 Y    ALP  0     ROOT ALP Y 8
     5 SEP2       14 GROUP        1 Y    SEP  0     **** SEP Y 9
     6 GLP5        3 GROUP        1 Y    GLP  0     **** GLP Y 13
     7 ALL1       18 GROUP        1 Z    ALL  0     ROOT ALL Z 15
     8 SEL2       13 GROUP        1 Z    SEL  0     **** SEL Z 16
     9 GLL5        2 GROUP        1 Z    GLL  0     **** GLL Z 20
@<TRIPOS>SET

