#    Name: 2yjd_YJD_1_ligand
#    Modification time : Tue Mar 25 09:23:45 2014

@<TRIPOS>MOLECULE
2yjd_YJD_1_ligand
   36    38     1     0     0
SMALL
NO_CHARGES


@<TRIPOS>ATOM
      1 CA        -15.2100  -22.2670    4.6840 C.ar      1 YJD1498     0.0000 
      2 CB        -16.1040  -21.7610    3.6820 C.ar      1 YJD1498     0.0000 
      3 CC        -15.8560  -20.5060    3.1000 C.ar      1 YJD1498     0.0000 
      4 CD        -14.7020  -19.7410    3.4940 C.ar      1 YJD1498     0.0000 
      5 CE        -13.8040  -20.2770    4.4910 C.ar      1 YJD1498     0.0000 
      6 CF        -14.0450  -21.5210    5.0940 C.ar      1 YJD1498     0.0000 
      7 N1        -13.3910  -16.9300    1.6150 N.2       1 YJD1498     0.0000 
      8 C6        -13.3040  -18.1340    2.1620 C.2       1 YJD1498     0.0000 
      9 O2        -12.2700  -18.9860    2.0340 O.3       1 YJD1498     0.0000 
     10 O4        -15.4970  -23.4750    5.2490 O.3       1 YJD1498     0.0000 
     11 C2        -14.5900  -16.4020    1.9080 C.ar      1 YJD1498     0.0000 
     12 C3        -15.1750  -15.1650    1.5960 C.ar      1 YJD1498     0.0000 
     13 C7        -16.4780  -14.9020    2.0470 C.ar      1 YJD1498     0.0000 
     14 C8        -17.1820  -15.8430    2.8140 C.ar      1 YJD1498     0.0000 
     15 C20       -10.8450  -18.7460    2.1870 C.3       1 YJD1498     0.0000 
     16 C9        -16.5950  -17.0820    3.1290 C.ar      1 YJD1498     0.0000 
     17 C10       -15.2960  -17.3760    2.6960 C.ar      1 YJD1498     0.0000 
     18 C11       -10.0480  -19.5350    1.1380 C.3       1 YJD1498     0.0000 
     19 N13       -14.4590  -18.4730    2.8430 N.pl3     1 YJD1498     0.0000 
     20 C13       -10.3300  -17.3240    2.3050 C.3       1 YJD1498     0.0000 
     21 H         -16.9075  -22.3166    3.4041 H         1 YJD1498     0.0000 
     22 H         -16.4857  -20.1235    2.3960 H         1 YJD1498     0.0000 
     23 H         -12.9795  -19.7240    4.7508 H         1 YJD1498     0.0000 
     24 H         -13.4319  -21.8989    5.7961 H         1 YJD1498     0.0000 
     25 H         -14.6658  -14.4738    1.0547 H         1 YJD1498     0.0000 
     26 H         -16.9249  -14.0030    1.8109 H         1 YJD1498     0.0000 
     27 H         -18.1276  -15.6282    3.1467 H         1 YJD1498     0.0000 
     28 H         -10.5274  -19.2618    3.1791 H         1 YJD1498     0.0000 
     29 H         -17.1218  -17.7698    3.6772 H         1 YJD1498     0.0000 
     30 H          -9.0636  -19.3844    1.2290 H         1 YJD1498     0.0000 
     31 H         -10.2024  -20.5198    1.2177 H         1 YJD1498     0.0000 
     32 H         -10.2997  -19.2733    0.2063 H         1 YJD1498     0.0000 
     33 H          -9.3350  -17.2961    2.4011 H         1 YJD1498     0.0000 
     34 H         -10.5623  -16.7769    1.5008 H         1 YJD1498     0.0000 
     35 H         -10.7145  -16.8545    3.0998 H         1 YJD1498     0.0000 
     36 H         -14.6150  -23.8339    5.5543 H         1 YJD1498     0.0000 
@<TRIPOS>BOND
     1    2    1 ar   
     2    6    1 ar   
     3   10    1 1    
     4    3    2 ar   
     5   21    2 1    
     6    4    3 ar   
     7   22    3 1    
     8    5    4 ar   
     9   19    4 1    
    10    6    5 ar   
    11   23    5 1    
    12   24    6 1    
    13    8    7 2    
    14   11    7 1    
    15    9    8 1    
    16   19    8 1    
    17   15    9 1    
    18   36   10 1    
    19   12   11 ar   
    20   17   11 ar   
    21   13   12 ar   
    22   25   12 1    
    23   14   13 ar   
    24   26   13 1    
    25   16   14 ar   
    26   27   14 1    
    27   18   15 1    
    28   20   15 1    
    29   28   15 1    
    30   17   16 ar   
    31   29   16 1    
    32   19   17 1    
    33   30   18 1    
    34   31   18 1    
    35   32   18 1    
    36   33   20 1    
    37   34   20 1    
    38   35   20 1    
@<TRIPOS>SUBSTRUCTURE
     1 YJD1498     1 GROUP   
@<TRIPOS>SET

