#    Name: 3v1y_NAD_3_INTS_M
#    Modification time : Mon Mar 24 23:53:17 2014

@<TRIPOS>MOLECULE
3v1y_NAD_3_INTS_M
   67     0     9     0     0
SMALL
NO_CHARGES


@<TRIPOS>ATOM
      1 N          36.6195   29.9710  -14.7535 N.am      2 SEC2        0.0000 
      2 N          37.3470   28.7030  -14.5110 N.am      8 SEL2        0.0000 
      3 N          35.8920   31.2390  -14.9960 N.am      5 SEP2        0.0000 
      4 CA         42.3730   31.1920  -12.9725 C.3       3 GLC5        0.0000 
      5 CA         40.8320   30.1740  -14.1390 C.3       9 GLL5        0.0000 
      6 CA         43.9140   32.2100  -11.8060 C.3       6 GLP5        0.0000 
      7 CA         42.1585   32.6785  -15.3435 C.3       3 GLC5        0.0000 
      8 CA         41.4960   30.8620  -15.3840 C.3       9 GLL5        0.0000 
      9 CA         42.8210   34.4950  -15.3030 C.3       6 GLP5        0.0000 
     10 CA         41.1010   28.8715  -18.5685 C.3       3 GLC5        0.0000 
     11 CA         41.4660   29.9880  -16.6810 C.3       9 GLL5        0.0000 
     12 CA         40.7360   27.7550  -20.4560 C.3       6 GLP5        0.0000 
     13 CA         39.7145   30.8930  -16.4150 C.3       3 GLC5        0.0000 
     14 CA         37.9630   31.7980  -16.1490 C.3       6 GLP5        0.0000 
     15 O          41.6595   31.6685  -18.2890 O.2       1 ALC1        0.0000 
     16 O          40.7460   30.6120  -17.7400 O.2       7 ALL1        0.0000 
     17 O          42.5730   32.7250  -18.8380 O.2       4 ALP1        0.0000 
     18 O          43.7950   30.7975  -19.0985 O.2       1 ALC1        0.0000 
     19 O          43.3470   29.6230  -18.3860 O.2       7 ALL1        0.0000 
     20 O          44.2430   31.9720  -19.8110 O.2       4 ALP1        0.0000 
     21 O          42.9600   31.1740  -18.6120 O.2       1 ALC1        0.0000 
     22 CA         43.2235   32.7330  -15.8220 C.3       3 GLC5        0.0000 
     23 CA         43.6260   30.9710  -16.3410 C.3       9 GLL5        0.0000 
     24 O          50.8180   32.6295  -15.2365 O.2       1 ALC1        0.0000 
     25 O          49.5600   31.6420  -15.0810 O.2       7 ALL1        0.0000 
     26 O          52.0760   33.6170  -15.3920 O.2       4 ALP1        0.0000 
     27 N          49.0530   34.3355  -15.3050 N.am      2 SEC2        0.0000 
     28 N          48.1630   33.3760  -15.8410 N.am      8 SEL2        0.0000 
     29 N          49.9430   35.2950  -14.7690 N.am      5 SEP2        0.0000 
     30 CA         44.8985   34.1865  -15.7765 C.3       3 GLC5        0.0000 
     31 CA         46.9760   33.8780  -16.2500 C.3       9 GLL5        0.0000 
     32 CA         46.1445   34.1800  -18.0555 C.3       3 GLC5        0.0000 
     33 CA         45.3130   34.4820  -19.8610 C.3       6 GLP5        0.0000 
     34 CA         47.2580   33.3350  -17.7780 C.3       3 GLC5        0.0000 
     35 CA         47.5400   32.7920  -19.3060 C.3       6 GLP5        0.0000 
     36 CA         46.3405   33.7840  -14.4930 C.3       3 GLC5        0.0000 
     37 CA         45.7050   33.6900  -12.7360 C.3       6 GLP5        0.0000 
     38 CA         44.3695   33.1615  -15.6545 C.3       3 GLC5        0.0000 
     39 CA         45.9180   31.8280  -16.0060 C.3       9 GLL5        0.0000 
     40 N          36.1145   31.9690  -12.4860 N.am      2 SEC2        0.0000 
     41 N          37.0730   30.9380  -12.1960 N.am      8 SEL2        0.0000 
     42 N          35.1560   33.0000  -12.7760 N.am      5 SEP2        0.0000 
     43 CA         36.7195   32.1350   -8.3510 C.3       3 GLC5        0.0000 
     44 CA         38.1140   31.2160   -6.8550 C.3       9 GLL5        0.0000 
     45 CA         35.3250   33.0540   -9.8470 C.3       6 GLP5        0.0000 
     46 CA         35.5685   31.7325   -8.7000 C.3       3 GLC5        0.0000 
     47 CA         35.8120   30.4110   -7.5530 C.3       9 GLL5        0.0000 
     48 CA         35.7025   32.5385   -7.7770 C.3       3 GLC5        0.0000 
     49 CA         36.0800   32.0230   -5.7070 C.3       9 GLL5        0.0000 
     50 CA         39.5635   31.1580  -15.4552 C.3       3 GLC5        0.0000 
     51 CA         47.1908   32.2654  -17.5334 C.3       3 GLC5        0.0000 
     52 CA         47.1800   31.2080  -15.5480 C.3       9 GLL5        0.0000 
     53 CA         46.2732   32.7144  -14.2484 C.3       3 GLC5        0.0000 
     54 CA         41.7392   30.5650   -8.3738 C.3       3 GLC5        0.0000 
     55 CA         39.6110   31.3740   -8.6650 C.3       9 GLL5        0.0000 
     56 CA         43.6330   30.3040   -8.5600 C.3       6 GLP5        0.0000 
     57 CA         39.8049   31.4394   -5.5465 C.3       3 GLC5        0.0000 
     58 CA         40.0800   30.2780   -7.7100 C.3       9 GLL5        0.0000 
     59 CA         40.8330   32.2310   -3.9870 C.3       6 GLP5        0.0000 
     60 CA         32.9952   31.6420   -4.7382 C.3       3 GLC5        0.0000 
     61 CA         33.7650   31.2710   -6.4540 C.3       9 GLL5        0.0000 
     62 CA         31.7810   31.6500   -3.4680 C.3       6 GLP5        0.0000 
     63 CA         33.0493   33.3580   -5.9057 C.3       3 GLC5        0.0000 
     64 CA         34.6540   31.9970   -5.5630 C.3       9 GLL5        0.0000 
     65 CA         31.8890   35.0820   -5.8030 C.3       6 GLP5        0.0000 
     66 CA         34.1076   32.3516   -7.9204 C.3       3 GLC5        0.0000 
     67 CA         33.8460   33.2870   -9.5830 C.3       6 GLP5        0.0000 
@<TRIPOS>BOND
@<TRIPOS>SUBSTRUCTURE
     1 ALC1       15 GROUP        1 X    ALC  0     ROOT ALC X 1
     2 SEC2        1 GROUP        1 X    SEC  0     **** SEC X 2
     3 GLC5        4 GROUP        1 X    GLC  0     **** GLC X 6
     4 ALP1       17 GROUP        1 Y    ALP  0     ROOT ALP Y 8
     5 SEP2        3 GROUP        1 Y    SEP  0     **** SEP Y 9
     6 GLP5        6 GROUP        1 Y    GLP  0     **** GLP Y 13
     7 ALL1       16 GROUP        1 Z    ALL  0     ROOT ALL Z 15
     8 SEL2        2 GROUP        1 Z    SEL  0     **** SEL Z 16
     9 GLL5        5 GROUP        1 Z    GLL  0     **** GLL Z 20
@<TRIPOS>SET

