#    Name: 3v1y_NAD_3_ligand
#    Modification time : Mon Mar 24 23:53:18 2014

@<TRIPOS>MOLECULE
3v1y_NAD_3_ligand
   70    74     1     0     0
SMALL
NO_CHARGES


@<TRIPOS>ATOM
      1 PA         38.7020   28.6130  -13.8470 P.3       1 NAD401      0.0000 
      2 O1A        37.3470   28.7030  -14.5110 O.co2     1 NAD401      0.0000 
      3 O2A        39.5160   27.4370  -13.9690 O.co2     1 NAD401      0.0000 
      4 O5B        39.4840   29.9530  -14.3760 O.3       1 NAD401      0.0000 
      5 C5B        40.8320   30.1740  -14.1390 C.3       1 NAD401      0.0000 
      6 C4B        41.4960   30.8620  -15.3840 C.3       1 NAD401      0.0000 
      7 O4B        42.8920   31.0870  -15.0880 O.3       1 NAD401      0.0000 
      8 C3B        41.4660   29.9880  -16.6810 C.3       1 NAD401      0.0000 
      9 O3B        40.7460   30.6120  -17.7400 O.3       1 NAD401      0.0000 
     10 C2B        42.9370   29.7860  -16.9930 C.3       1 NAD401      0.0000 
     11 O2B        43.3470   29.6230  -18.3860 O.3       1 NAD401      0.0000 
     12 C1B        43.6260   30.9710  -16.3410 C.3       1 NAD401      0.0000 
     13 N9A        45.0360   30.8190  -15.9700 N.pl3     1 NAD401      0.0000 
     14 C8A        45.6960   29.6800  -15.5280 C.2       1 NAD401      0.0000 
     15 N7A        47.0110   29.9210  -15.2710 N.2       1 NAD401      0.0000 
     16 C5A        47.1800   31.2080  -15.5480 C.ar      1 NAD401      0.0000 
     17 C6A        48.3500   32.0910  -15.4830 C.ar      1 NAD401      0.0000 
     18 N6A        49.5600   31.6420  -15.0810 N.pl3     1 NAD401      0.0000 
     19 N1A        48.1630   33.3760  -15.8410 N.ar      1 NAD401      0.0000 
     20 C2A        46.9760   33.8780  -16.2500 C.ar      1 NAD401      0.0000 
     21 N3A        45.8190   33.1110  -16.3450 N.ar      1 NAD401      0.0000 
     22 C4A        45.9180   31.8280  -16.0060 C.ar      1 NAD401      0.0000 
     23 O3         38.5130   28.9110  -12.2800 O.3       1 NAD401      0.0000 
     24 PN         37.4190   29.6900  -11.4410 P.3       1 NAD401      0.0000 
     25 O1N        36.3020   28.7810  -11.1110 O.co2     1 NAD401      0.0000 
     26 O2N        37.0730   30.9380  -12.1960 O.co2     1 NAD401      0.0000 
     27 O5D        38.2370   29.9950  -10.0510 O.3       1 NAD401      0.0000 
     28 C5D        39.3830   30.8820  -10.1180 C.3       1 NAD401      0.0000 
     29 C4D        39.6110   31.3740   -8.6650 C.3       1 NAD401      0.0000 
     30 O4D        38.4150   31.9240   -8.1040 O.3       1 NAD401      0.0000 
     31 C3D        40.0800   30.2780   -7.7100 C.3       1 NAD401      0.0000 
     32 O3D        41.0940   30.6850   -6.7790 O.3       1 NAD401      0.0000 
     33 C2D        38.7990   29.8810   -7.0040 C.3       1 NAD401      0.0000 
     34 O2D        39.0590   29.1990   -5.7490 O.3       1 NAD401      0.0000 
     35 C1D        38.1140   31.2160   -6.8550 C.3       1 NAD401      0.0000 
     36 N1N        36.6550   31.2160   -6.7140 N.pl3     1 NAD401      0.0000 
     37 C2N        35.8120   30.4110   -7.5530 C.ar      1 NAD401      0.0000 
     38 C3N        34.4040   30.4000   -7.4510 C.ar      1 NAD401      0.0000 
     39 C7N        33.5500   29.5240   -8.3670 C.2       1 NAD401      0.0000 
     40 O7N        34.0250   28.9690   -9.3830 O.2       1 NAD401      0.0000 
     41 N7N        32.2810   29.3630   -8.0860 N.am      1 NAD401      0.0000 
     42 C4N        33.7650   31.2710   -6.4540 C.ar      1 NAD401      0.0000 
     43 C5N        34.6540   31.9970   -5.5630 C.ar      1 NAD401      0.0000 
     44 C6N        36.0800   32.0230   -5.7070 C.ar      1 NAD401      0.0000 
     45 H          41.4017   29.2496  -13.9634 H         1 NAD401      0.0000 
     46 H          41.0215   30.8422  -13.2860 H         1 NAD401      0.0000 
     47 H          40.9972   31.7810  -15.5815 H         1 NAD401      0.0000 
     48 H          41.0598   29.0340  -16.3881 H         1 NAD401      0.0000 
     49 H          43.2665   28.9041  -16.3915 H         1 NAD401      0.0000 
     50 H          43.4476   31.8456  -16.9161 H         1 NAD401      0.0000 
     51 H          45.2547   28.8129  -15.4189 H         1 NAD401      0.0000 
     52 H          50.2978   32.3170  -15.0681 H         1 NAD401      0.0000 
     53 H          49.6099   30.6747  -14.8322 H         1 NAD401      0.0000 
     54 H          46.9069   34.8985  -16.5134 H         1 NAD401      0.0000 
     55 H          39.1908   31.7420  -10.7316 H         1 NAD401      0.0000 
     56 H          40.2710   30.3687  -10.4361 H         1 NAD401      0.0000 
     57 H          40.3912   32.1402   -8.6893 H         1 NAD401      0.0000 
     58 H          40.3792   29.4328   -8.3143 H         1 NAD401      0.0000 
     59 H          38.2272   29.2891   -7.6924 H         1 NAD401      0.0000 
     60 H          38.5816   31.7640   -6.0503 H         1 NAD401      0.0000 
     61 H          36.2709   29.8101   -8.2677 H         1 NAD401      0.0000 
     62 H          31.9394   29.8640   -7.2908 H         1 NAD401      0.0000 
     63 H          31.7699   28.7538   -8.6924 H         1 NAD401      0.0000 
     64 H          32.7909   31.3522   -6.3997 H         1 NAD401      0.0000 
     65 H          34.2239   32.5251   -4.7790 H         1 NAD401      0.0000 
     66 H          36.6416   32.5975   -5.1087 H         1 NAD401      0.0000 
     67 H          41.2973   31.4065  -17.9946 H         1 NAD401      0.0000 
     68 H          43.6038   30.5407  -18.6892 H         1 NAD401      0.0000 
     69 H          41.4403   31.5523   -7.1365 H         1 NAD401      0.0000 
     70 H          39.9113   29.5972   -5.4099 H         1 NAD401      0.0000 
@<TRIPOS>BOND
     1    2    1 ar   
     2    3    1 ar   
     3    4    1 1    
     4   23    1 1    
     5    5    4 1    
     6    6    5 1    
     7   45    5 1    
     8   46    5 1    
     9    7    6 1    
    10    8    6 1    
    11   47    6 1    
    12   12    7 1    
    13    9    8 1    
    14   10    8 1    
    15   48    8 1    
    16   67    9 1    
    17   11   10 1    
    18   12   10 1    
    19   49   10 1    
    20   68   11 1    
    21   13   12 1    
    22   50   12 1    
    23   14   13 1    
    24   22   13 1    
    25   15   14 2    
    26   51   14 1    
    27   16   15 1    
    28   17   16 ar   
    29   22   16 ar   
    30   18   17 1    
    31   19   17 ar   
    32   52   18 1    
    33   53   18 1    
    34   20   19 ar   
    35   21   20 ar   
    36   54   20 1    
    37   22   21 ar   
    38   24   23 1    
    39   25   24 ar   
    40   26   24 ar   
    41   27   24 1    
    42   28   27 1    
    43   29   28 1    
    44   55   28 1    
    45   56   28 1    
    46   30   29 1    
    47   31   29 1    
    48   57   29 1    
    49   35   30 1    
    50   32   31 1    
    51   33   31 1    
    52   58   31 1    
    53   69   32 1    
    54   34   33 1    
    55   35   33 1    
    56   59   33 1    
    57   70   34 1    
    58   36   35 1    
    59   60   35 1    
    60   37   36 ar   
    61   44   36 ar   
    62   38   37 ar   
    63   61   37 1    
    64   39   38 1    
    65   42   38 ar   
    66   40   39 2    
    67   41   39 am   
    68   62   41 1    
    69   63   41 1    
    70   43   42 ar   
    71   64   42 1    
    72   44   43 ar   
    73   65   43 1    
    74   66   44 1    
@<TRIPOS>SUBSTRUCTURE
     1 NAD401      1 GROUP   
@<TRIPOS>SET

