#    Name: 1fdv_NAD_1_INTS_M
#    Modification time : Tue Mar 25 01:07:42 2014

@<TRIPOS>MOLECULE
1fdv_NAD_1_INTS_M
   85     0    12     0     0
SMALL
NO_CHARGES


@<TRIPOS>ATOM
      1 NZ         14.7605    8.6765   54.8535 N.4       3 LYC4        0.0000 
      2 NZ         15.3690    7.4530   54.8760 N.4      11 LYL4        0.0000 
      3 NZ         14.1520    9.9000   54.8310 N.4       7 LYP4        0.0000 
      4 NZ         13.6830    8.0525   54.4960 N.4       3 LYC4        0.0000 
      5 NZ         13.2140    6.2050   54.1610 N.4      11 LYL4        0.0000 
      6 N          12.5190    6.3185   55.4665 N.am      2 SEC2        0.0000 
      7 N          13.2140    6.2050   54.1610 N.am     10 SEL2        0.0000 
      8 N          11.8240    6.4320   56.7720 N.am      6 SEP2        0.0000 
      9 N          13.3490    5.8075   56.2755 N.am      2 SEC2        0.0000 
     10 N          14.8740    5.1830   55.7790 N.am     10 SEL2        0.0000 
     11 CA         17.8580    4.1280   58.5315 C.3       4 GLC5        0.0000 
     12 CA         15.9500    5.1110   57.9620 C.3      12 GLL5        0.0000 
     13 CA         19.7660    3.1450   59.1010 C.3       8 GLP5        0.0000 
     14 N          12.8935    5.3420   60.3050 N.am      2 SEC2        0.0000 
     15 N          14.4540    5.9020   59.7670 N.am     10 SEL2        0.0000 
     16 N          11.3330    4.7820   60.8430 N.am      6 SEP2        0.0000 
     17 N          13.1950    6.3770   60.5375 N.am      2 SEC2        0.0000 
     18 N          11.9360    6.8520   61.3080 N.am      6 SEP2        0.0000 
     19 CA         16.7530    4.7880   59.9710 C.3       4 GLC5        0.0000 
     20 CA         17.4410    6.5780   58.9360 C.3      12 GLL5        0.0000 
     21 CA         16.0650    2.9980   61.0060 C.3       8 GLP5        0.0000 
     22 CA         18.7255    5.2035   59.6760 C.3       4 GLC5        0.0000 
     23 CA         20.0100    3.8290   60.4160 C.3       8 GLP5        0.0000 
     24 O          21.7325    8.5930   64.5830 O.2       1 ALC1        0.0000 
     25 O          21.2640    8.5770   63.1330 O.2       9 ALL1        0.0000 
     26 O          22.2010    8.6090   66.0330 O.2       5 ALP1        0.0000 
     27 N          21.0240    6.1705   64.6350 N.am      2 SEC2        0.0000 
     28 N          19.9650    6.7170   63.5220 N.am     10 SEL2        0.0000 
     29 N          22.0830    5.6240   65.7480 N.am      6 SEP2        0.0000 
     30 CA         17.9910    7.1100   63.8905 C.3       4 GLC5        0.0000 
     31 CA         19.0430    5.8460   63.0850 C.3      12 GLL5        0.0000 
     32 CA         16.9390    8.3740   64.6960 C.3       8 GLP5        0.0000 
     33 CA         19.7885    6.3190   65.1545 C.3       4 GLC5        0.0000 
     34 CA         20.5340    6.7920   67.2240 C.3       8 GLP5        0.0000 
     35 CA         20.6655    4.4275   63.7190 C.3       4 GLC5        0.0000 
     36 CA         22.2880    3.0090   64.3530 C.3       8 GLP5        0.0000 
     37 CA         19.5265    4.8375   61.7505 C.3       4 GLC5        0.0000 
     38 CA         17.8900    7.6280   62.8555 C.3       4 GLC5        0.0000 
     39 CA         18.8410    6.8820   61.0150 C.3      12 GLL5        0.0000 
     40 N          13.5100    2.0525   53.8350 N.am      2 SEC2        0.0000 
     41 N          14.5780    3.2360   53.6810 N.am     10 SEL2        0.0000 
     42 N          12.4420    0.8690   53.9890 N.am      6 SEP2        0.0000 
     43 N          14.5830    4.4630   50.7200 N.am      2 SEC2        0.0000 
     44 N          15.4070    4.0090   51.3220 N.am     10 SEL2        0.0000 
     45 N          13.7590    4.9170   50.1180 N.am      6 SEP2        0.0000 
     46 CA         16.0285    1.2170   53.4195 C.3       4 GLC5        0.0000 
     47 CA         17.2040    2.8100   54.3450 C.3      12 GLL5        0.0000 
     48 CA         14.8530   -0.3760   52.4940 C.3       8 GLP5        0.0000 
     49 CA         18.9765    0.2980   53.4955 C.3       4 GLC5        0.0000 
     50 CA         18.4930    2.0870   54.0740 C.3      12 GLL5        0.0000 
     51 CA         19.4600   -1.4910   52.9170 C.3       8 GLP5        0.0000 
     52 O          20.1375    1.7635   55.6645 O.2       1 ALC1        0.0000 
     53 O          20.8940    1.9100   54.3750 O.2       9 ALL1        0.0000 
     54 O          19.3810    1.6170   56.9540 O.2       5 ALP1        0.0000 
     55 CA         19.5470    0.2105   52.4705 C.3       4 GLC5        0.0000 
     56 CA         19.6340    1.9120   52.0240 C.3      12 GLL5        0.0000 
     57 N          16.0545    2.7810   46.0930 N.am      2 SEC2        0.0000 
     58 N          16.6360    3.6340   46.8340 N.am     10 SEL2        0.0000 
     59 N          15.4730    1.9280   45.3520 N.am      6 SEP2        0.0000 
     60 CA         21.3605    0.1020   48.0925 C.3       4 GLC5        0.0000 
     61 CA         19.4320    0.8350   48.4430 C.3      12 GLL5        0.0000 
     62 CA         23.2890   -0.6310   47.7420 C.3       8 GLP5        0.0000 
     63 CA         19.6365   -0.2905   51.3530 C.3       4 GLC5        0.0000 
     64 CA         19.8130    0.9100   49.7890 C.3      12 GLL5        0.0000 
     65 CA         21.7645    0.8385   48.9830 C.3       4 GLC5        0.0000 
     66 CA         23.7160    0.7670   48.1770 C.3       8 GLP5        0.0000 
     67 CA         19.0415   -0.8685   49.5115 C.3       4 GLC5        0.0000 
     68 CA         18.2700   -2.6470   49.2340 C.3       8 GLP5        0.0000 
     69 CA         15.7890    4.3377   59.6238 C.3       4 GLC5        0.0000 
     70 CA         19.2495    8.9778   63.0105 C.3       4 GLC5        0.0000 
     71 CA         19.7820    7.8170   61.4120 C.3      12 GLL5        0.0000 
     72 CA         18.4310   10.1860   63.9650 C.3       8 GLP5        0.0000 
     73 CA         19.6608    5.5892   60.8148 C.3       4 GLC5        0.0000 
     74 CA         21.9520    8.1863   61.4735 C.3       4 GLC5        0.0000 
     75 CA         23.8360    8.6030   60.8910 C.3       8 GLP5        0.0000 
     76 CA         20.5505    4.0740   54.7953 C.3       4 GLC5        0.0000 
     77 CA         19.8190    2.8610   54.1150 C.3      12 GLL5        0.0000 
     78 CA         21.2320    5.0920   56.2120 C.3       8 GLP5        0.0000 
     79 CA         19.7215    4.8190   52.8608 C.3       4 GLC5        0.0000 
     80 CA         19.5740    6.5820   52.3430 C.3       8 GLP5        0.0000 
     81 CA         18.8000   -0.4600   47.8678 C.3       4 GLC5        0.0000 
     82 CA         18.5640    1.8090   47.9120 C.3      12 GLL5        0.0000 
     83 CA         18.6020   -2.2420   47.5580 C.3       8 GLP5        0.0000 
     84 CA         17.1442    0.6914   47.9596 C.3       4 GLC5        0.0000 
     85 CA         15.4560   -0.1720   47.5420 C.3       8 GLP5        0.0000 
@<TRIPOS>BOND
@<TRIPOS>SUBSTRUCTURE
     1 ALC1       24 GROUP        1 X    ALC  0     ROOT ALC X 1
     2 SEC2        6 GROUP        1 X    SEC  0     **** SEC X 2
     3 LYC4        1 GROUP        1 X    LYC  0     **** LYC X 4
     4 GLC5       11 GROUP        1 X    GLC  0     **** GLC X 6
     5 ALP1       26 GROUP        1 Y    ALP  0     ROOT ALP Y 8
     6 SEP2        8 GROUP        1 Y    SEP  0     **** SEP Y 9
     7 LYP4        3 GROUP        1 Y    LYP  0     **** LYP Y 11
     8 GLP5       13 GROUP        1 Y    GLP  0     **** GLP Y 13
     9 ALL1       25 GROUP        1 Z    ALL  0     ROOT ALL Z 15
    10 SEL2        7 GROUP        1 Z    SEL  0     **** SEL Z 16
    11 LYL4        2 GROUP        1 Z    LYL  0     **** LYL Z 18
    12 GLL5       12 GROUP        1 Z    GLL  0     **** GLL Z 20
@<TRIPOS>SET

