#    Name: 1fdv_NAD_1_ligand
#    Modification time : Tue Mar 25 01:07:42 2014

@<TRIPOS>MOLECULE
1fdv_NAD_1_ligand
   70    74     1     0     0
SMALL
NO_CHARGES


@<TRIPOS>ATOM
      1 PA         14.6170    6.2180   54.5550 P.3       1 NAD361      0.0000 
      2 O1A        15.3690    7.4530   54.8760 O.co2     1 NAD361      0.0000 
      3 O2A        13.2140    6.2050   54.1610 O.co2     1 NAD361      0.0000 
      4 O5B        14.8740    5.1830   55.7790 O.3       1 NAD361      0.0000 
      5 C5B        16.1820    5.2390   56.4630 C.3       1 NAD361      0.0000 
      6 C4B        15.9500    5.1110   57.9620 C.3       1 NAD361      0.0000 
      7 O4B        17.1940    5.2200   58.7290 O.3       1 NAD361      0.0000 
      8 C3B        15.0760    6.2440   58.5210 C.3       1 NAD361      0.0000 
      9 O3B        14.4540    5.9020   59.7670 O.3       1 NAD361      0.0000 
     10 C2B        16.1350    7.3240   58.7170 C.3       1 NAD361      0.0000 
     11 O2B        15.6990    8.0510   59.8660 O.3       1 NAD361      0.0000 
     12 C1B        17.4410    6.5780   58.9360 C.3       1 NAD361      0.0000 
     13 N9A        18.4630    7.1800   59.7820 N.pl3     1 NAD361      0.0000 
     14 C8A        19.1550    8.2800   59.4210 C.2       1 NAD361      0.0000 
     15 N7A        19.9540    8.6560   60.4060 N.2       1 NAD361      0.0000 
     16 C5A        19.7820    7.8170   61.4120 C.ar      1 NAD361      0.0000 
     17 C6A        20.3540    7.7220   62.7000 C.ar      1 NAD361      0.0000 
     18 N6A        21.2640    8.5770   63.1330 N.pl3     1 NAD361      0.0000 
     19 N1A        19.9650    6.7170   63.5220 N.ar      1 NAD361      0.0000 
     20 C2A        19.0430    5.8460   63.0850 C.ar      1 NAD361      0.0000 
     21 N3A        18.4950    5.9010   61.8520 N.ar      1 NAD361      0.0000 
     22 C4A        18.8410    6.8820   61.0150 C.ar      1 NAD361      0.0000 
     23 O3         15.4160    5.5650   53.2910 O.3       1 NAD361      0.0000 
     24 PN         15.4420    4.0210   52.7610 P.3       1 NAD361      0.0000 
     25 O1N        14.5780    3.2360   53.6810 O.co2     1 NAD361      0.0000 
     26 O2N        15.4070    4.0090   51.3220 O.co2     1 NAD361      0.0000 
     27 O5D        16.9560    3.6780   53.2370 O.3       1 NAD361      0.0000 
     28 C5D        17.2040    2.8100   54.3450 C.3       1 NAD361      0.0000 
     29 C4D        18.4930    2.0870   54.0740 C.3       1 NAD361      0.0000 
     30 O4D        18.4890    1.4390   52.7980 O.3       1 NAD361      0.0000 
     31 C3D        19.8190    2.8610   54.1150 C.3       1 NAD361      0.0000 
     32 O3D        20.8940    1.9100   54.3750 O.3       1 NAD361      0.0000 
     33 C2D        19.9190    3.2510   52.6420 C.3       1 NAD361      0.0000 
     34 O2D        21.1970    3.7150   52.3130 O.3       1 NAD361      0.0000 
     35 C1D        19.6340    1.9120   52.0240 C.3       1 NAD361      0.0000 
     36 N1N        19.2420    1.9300   50.6000 N.pl3     1 NAD361      0.0000 
     37 C2N        18.2300    2.7800   50.0670 C.ar      1 NAD361      0.0000 
     38 C3N        17.9020    2.7400   48.7110 C.ar      1 NAD361      0.0000 
     39 C7N        16.8380    3.6190   48.0540 C.2       1 NAD361      0.0000 
     40 O7N        16.6360    3.6340   46.8340 O.2       1 NAD361      0.0000 
     41 N7N        16.0630    4.2950   48.9040 N.am      1 NAD361      0.0000 
     42 C4N        18.5640    1.8090   47.9120 C.ar      1 NAD361      0.0000 
     43 C5N        19.4320    0.8350   48.4430 C.ar      1 NAD361      0.0000 
     44 C6N        19.8130    0.9100   49.7890 C.ar      1 NAD361      0.0000 
     45 H          16.6769    6.1847   56.2650 H         1 NAD361      0.0000 
     46 H          16.8195    4.4231   56.1367 H         1 NAD361      0.0000 
     47 H          15.4638    4.1831   58.1884 H         1 NAD361      0.0000 
     48 H          14.4213    6.5598   57.7645 H         1 NAD361      0.0000 
     49 H          16.1794    7.9008   57.8444 H         1 NAD361      0.0000 
     50 H          17.9267    6.8655   57.7661 H         1 NAD361      0.0000 
     51 H          19.0680    8.7255   58.5511 H         1 NAD361      0.0000 
     52 H          21.6375    8.3986   64.0433 H         1 NAD361      0.0000 
     53 H          21.4966    9.3247   62.5109 H         1 NAD361      0.0000 
     54 H          18.7241    5.0693   63.7420 H         1 NAD361      0.0000 
     55 H          16.4102    2.0730   54.4626 H         1 NAD361      0.0000 
     56 H          17.3070    3.3671   55.2756 H         1 NAD361      0.0000 
     57 H          18.6038    1.2691   54.8432 H         1 NAD361      0.0000 
     58 H          19.7622    3.6582   54.7030 H         1 NAD361      0.0000 
     59 H          19.1202    3.8972   52.4256 H         1 NAD361      0.0000 
     60 H          20.4577    1.2576   52.1994 H         1 NAD361      0.0000 
     61 H          17.7425    3.4268   50.7001 H         1 NAD361      0.0000 
     62 H          15.3896    4.9091   48.4923 H         1 NAD361      0.0000 
     63 H          16.2252    4.1268   49.8763 H         1 NAD361      0.0000 
     64 H          18.4148    1.8294   46.8799 H         1 NAD361      0.0000 
     65 H          19.7788    0.0817   47.8488 H         1 NAD361      0.0000 
     66 H          20.4774    0.2593   50.1843 H         1 NAD361      0.0000 
     67 H          14.7084    4.9488   59.9301 H         1 NAD361      0.0000 
     68 H          15.0227    7.4596   60.3051 H         1 NAD361      0.0000 
     69 H          20.6852    1.5227   55.2730 H         1 NAD361      0.0000 
     70 H          21.8253    3.1188   52.8129 H         1 NAD361      0.0000 
@<TRIPOS>BOND
     1    2    1 ar   
     2    3    1 ar   
     3    4    1 1    
     4   23    1 1    
     5    5    4 1    
     6    6    5 1    
     7   45    5 1    
     8   46    5 1    
     9    7    6 1    
    10    8    6 1    
    11   47    6 1    
    12   12    7 1    
    13    9    8 1    
    14   10    8 1    
    15   48    8 1    
    16   67    9 1    
    17   11   10 1    
    18   12   10 1    
    19   49   10 1    
    20   68   11 1    
    21   13   12 1    
    22   50   12 1    
    23   14   13 1    
    24   22   13 1    
    25   15   14 2    
    26   51   14 1    
    27   16   15 1    
    28   17   16 ar   
    29   22   16 ar   
    30   18   17 1    
    31   19   17 ar   
    32   52   18 1    
    33   53   18 1    
    34   20   19 ar   
    35   21   20 ar   
    36   54   20 1    
    37   22   21 ar   
    38   24   23 1    
    39   25   24 ar   
    40   26   24 ar   
    41   27   24 1    
    42   28   27 1    
    43   29   28 1    
    44   55   28 1    
    45   56   28 1    
    46   30   29 1    
    47   31   29 1    
    48   57   29 1    
    49   35   30 1    
    50   32   31 1    
    51   33   31 1    
    52   58   31 1    
    53   69   32 1    
    54   34   33 1    
    55   35   33 1    
    56   59   33 1    
    57   70   34 1    
    58   36   35 1    
    59   60   35 1    
    60   37   36 ar   
    61   44   36 ar   
    62   38   37 ar   
    63   61   37 1    
    64   39   38 1    
    65   42   38 ar   
    66   40   39 2    
    67   41   39 am   
    68   62   41 1    
    69   63   41 1    
    70   43   42 ar   
    71   64   42 1    
    72   44   43 ar   
    73   65   43 1    
    74   66   44 1    
@<TRIPOS>SUBSTRUCTURE
     1 NAD361      1 GROUP   
@<TRIPOS>SET

