#    Name: 3ua9_IWR_2_INTS_M
#    Modification time : Mon Mar 24 22:05:45 2014

@<TRIPOS>MOLECULE
3ua9_IWR_2_INTS_M
   71     0     6     0     0
SMALL
NO_CHARGES


@<TRIPOS>ATOM
      1 CA         -1.7440  -42.4195   26.0035 C.3       2 GLC5        0.0000 
      2 CA         -1.4460  -40.9150   25.1270 C.3       6 GLL5        0.0000 
      3 CA         -2.0420  -43.9240   26.8800 C.3       4 GLP5        0.0000 
      4 CA         -3.3365  -38.9590   25.3595 C.3       2 GLC5        0.0000 
      5 CA         -2.7630  -40.1370   26.9150 C.3       6 GLL5        0.0000 
      6 CA         -3.9100  -37.7810   23.8040 C.3       4 GLP5        0.0000 
      7 CA          0.4585  -42.5335   21.3505 C.3       2 GLC5        0.0000 
      8 CA         -0.1340  -41.7350   23.2730 C.3       6 GLL5        0.0000 
      9 CA          1.0510  -43.3320   19.4280 C.3       4 GLP5        0.0000 
     10 CA         -2.2400  -42.8350   24.8505 C.3       2 GLC5        0.0000 
     11 CA         -1.3860  -41.4720   23.8450 C.3       6 GLL5        0.0000 
     12 CA         -3.0940  -44.1980   25.8560 C.3       4 GLP5        0.0000 
     13 N          -0.7265  -43.9740   21.3935 N.am      1 SEC2        0.0000 
     14 N          -1.8390  -43.1130   21.5550 N.am      5 SEL2        0.0000 
     15 N           0.3860  -44.8350   21.2320 N.am      3 SEP2        0.0000 
     16 CA         -3.7040  -40.1820   20.8145 C.3       2 GLC5        0.0000 
     17 CA         -5.0500  -41.5810   21.6710 C.3       6 GLL5        0.0000 
     18 CA         -2.3580  -38.7830   19.9580 C.3       4 GLP5        0.0000 
     19 CA         -4.1770  -45.1740   19.9550 C.3       2 GLC5        0.0000 
     20 CA         -4.6400  -43.9090   21.3440 C.3       6 GLL5        0.0000 
     21 CA         -3.7140  -46.4390   18.5660 C.3       4 GLP5        0.0000 
     22 CA         -5.9500  -45.0605   19.2075 C.3       2 GLC5        0.0000 
     23 CA         -5.9620  -44.0970   20.9650 C.3       6 GLL5        0.0000 
     24 CA         -5.9380  -46.0240   17.4500 C.3       4 GLP5        0.0000 
     25 N          -7.7845  -43.9260   17.2620 N.am      1 SEC2        0.0000 
     26 N          -8.0140  -43.0880   18.3670 N.am      5 SEL2        0.0000 
     27 N          -7.5550  -44.7640   16.1570 N.am      3 SEP2        0.0000 
     28 CA        -10.8200  -43.7340   17.5465 C.3       2 GLC5        0.0000 
     29 CA        -11.0020  -42.4200   18.9460 C.3       6 GLL5        0.0000 
     30 CA        -10.6380  -45.0480   16.1470 C.3       4 GLP5        0.0000 
     31 CA        -12.4290  -40.9835   18.5360 C.3       2 GLC5        0.0000 
     32 CA        -13.8560  -39.5470   18.1260 C.3       4 GLP5        0.0000 
     33 CA        -13.4025  -41.6255   18.7160 C.3       2 GLC5        0.0000 
     34 CA        -12.2020  -42.6300   19.8370 C.3       6 GLL5        0.0000 
     35 CA        -14.6030  -40.6210   17.5950 C.3       4 GLP5        0.0000 
     36 CA         -8.9045  -39.5735   19.9400 C.3       2 GLC5        0.0000 
     37 CA        -10.4800  -41.0820   19.4920 C.3       6 GLL5        0.0000 
     38 CA         -7.3290  -38.0650   20.3880 C.3       4 GLP5        0.0000 
     39 CA        -11.6575  -40.0035   18.4415 C.3       2 GLC5        0.0000 
     40 CA        -12.8350  -38.9250   17.3910 C.3       4 GLP5        0.0000 
     41 N          -8.9595  -44.7620   23.5005 N.am      1 SEC2        0.0000 
     42 N          -8.9080  -43.5070   22.7430 N.am      5 SEL2        0.0000 
     43 N          -9.0110  -46.0170   24.2580 N.am      3 SEP2        0.0000 
     44 CA         -2.6630  -39.4873   24.1450 C.3       2 GLC5        0.0000 
     45 CA         -0.1278  -39.0110   25.2698 C.3       2 GLC5        0.0000 
     46 CA          0.6030  -37.2540   25.0650 C.3       4 GLP5        0.0000 
     47 CA         -2.1152  -41.9510   27.0813 C.3       2 GLC5        0.0000 
     48 CA         -1.6140  -39.8190   27.6500 C.3       6 GLL5        0.0000 
     49 CA         -0.1918  -38.5992   26.2195 C.3       2 GLC5        0.0000 
     50 CA         -0.5075  -42.2203   26.6535 C.3       2 GLC5        0.0000 
     51 CA         -0.3590  -40.0700   27.0980 C.3       6 GLL5        0.0000 
     52 CA         -0.7000  -44.0950   26.8470 C.3       4 GLP5        0.0000 
     53 CA          0.8060  -39.2142   24.8368 C.3       2 GLC5        0.0000 
     54 CA          0.9770  -40.8960   25.2480 C.3       6 GLL5        0.0000 
     55 CA          0.7768  -43.5335   23.5540 C.3       2 GLC5        0.0000 
     56 CA          1.0410  -41.4530   23.9690 C.3       6 GLL5        0.0000 
     57 CA          1.1000  -45.4730   23.4870 C.3       4 GLP5        0.0000 
     58 CA         -0.8505  -40.3597   22.0280 C.3       2 GLC5        0.0000 
     59 CA         -0.9410  -39.1160   20.4970 C.3       4 GLP5        0.0000 
     60 CA         -0.1312  -42.7749   25.3939 C.3       2 GLC5        0.0000 
     61 CA         -6.5205  -39.8702   20.9375 C.3       2 GLC5        0.0000 
     62 CA         -6.0005  -45.2905   22.4588 C.3       2 GLC5        0.0000 
     63 CA         -6.7000  -46.5780   23.7630 C.3       4 GLP5        0.0000 
     64 CA        -10.2010  -44.7965   18.6107 C.3       2 GLC5        0.0000 
     65 CA        -10.4420  -43.7230   20.8900 C.3       6 GLL5        0.0000 
     66 CA        -10.1130  -45.9310   17.0770 C.3       4 GLP5        0.0000 
     67 CA        -12.8926  -41.9880   21.4840 C.3       2 GLC5        0.0000 
     68 CA        -14.5220  -42.0740   22.2310 C.3       4 GLP5        0.0000 
     69 CA        -11.0333  -43.9967   22.8402 C.3       2 GLC5        0.0000 
     70 CA        -11.4170  -42.5660   21.1290 C.3       6 GLL5        0.0000 
     71 CA        -11.1370  -44.8490   24.6710 C.3       4 GLP5        0.0000 
@<TRIPOS>BOND
@<TRIPOS>SUBSTRUCTURE
     1 SEC2       13 GROUP        1 X    SEC  0     ROOT SEC X 2
     2 GLC5        1 GROUP        1 X    GLC  0     **** GLC X 6
     3 SEP2       15 GROUP        1 Y    SEP  0     ROOT SEP Y 9
     4 GLP5        3 GROUP        1 Y    GLP  0     **** GLP Y 13
     5 SEL2       14 GROUP        1 Z    SEL  0     ROOT SEL Z 16
     6 GLL5        2 GROUP        1 Z    GLL  0     **** GLL Z 20
@<TRIPOS>SET

