#    Name: 3ua9_IWR_2_ligand
#    Modification time : Mon Mar 24 22:05:45 2014

@<TRIPOS>MOLECULE
3ua9_IWR_2_ligand
   50    55     1     0     0
SMALL
NO_CHARGES


@<TRIPOS>ATOM
      1 CAF        -1.4460  -40.9150   25.1270 C.ar      1 IWR1        0.0000 
      2 NAG        -2.6560  -40.6610   25.7010 N.ar      1 IWR1        0.0000 
      3 CAH        -2.7630  -40.1370   26.9150 C.ar      1 IWR1        0.0000 
      4 CAI        -1.6140  -39.8190   27.6500 C.ar      1 IWR1        0.0000 
      5 CAJ        -0.3590  -40.0700   27.0980 C.ar      1 IWR1        0.0000 
      6 CAA        -0.2710  -40.6210   25.8220 C.ar      1 IWR1        0.0000 
      7 CAB         0.9770  -40.8960   25.2480 C.ar      1 IWR1        0.0000 
      8 CAC         1.0410  -41.4530   23.9690 C.ar      1 IWR1        0.0000 
      9 CAD        -0.1340  -41.7350   23.2730 C.ar      1 IWR1        0.0000 
     10 CAE        -1.3860  -41.4720   23.8450 C.ar      1 IWR1        0.0000 
     11 NAK        -2.5660  -41.7290   23.2280 N.am      1 IWR1        0.0000 
     12 CAL        -2.7270  -42.4740   22.1080 C.2       1 IWR1        0.0000 
     13 OAM        -1.8390  -43.1130   21.5550 O.2       1 IWR1        0.0000 
     14 CAN        -4.1740  -42.6510   21.6780 C.ar      1 IWR1        0.0000 
     15 CAS        -5.0500  -41.5810   21.6710 C.ar      1 IWR1        0.0000 
     16 CAO        -6.3740  -41.7700   21.3030 C.ar      1 IWR1        0.0000 
     17 CAR        -4.6400  -43.9090   21.3440 C.ar      1 IWR1        0.0000 
     18 CAQ        -5.9620  -44.0970   20.9650 C.ar      1 IWR1        0.0000 
     19 CAP        -6.8400  -43.0250   20.9350 C.ar      1 IWR1        0.0000 
     20 NAT        -8.1220  -43.2250   20.6110 N.am      1 IWR1        0.0000 
     21 CAW        -8.6400  -43.2790   19.3880 C.2       1 IWR1        0.0000 
     22 OBE        -8.0140  -43.0880   18.3670 O.2       1 IWR1        0.0000 
     23 CAV       -10.1360  -43.6010   19.3990 C.3       1 IWR1        0.0000 
     24 CBB       -11.0020  -42.4200   18.9460 C.3       1 IWR1        0.0000 
     25 CBC       -12.2020  -42.6300   19.8370 C.3       1 IWR1        0.0000 
     26 CBA       -10.4800  -41.0820   19.4920 C.2       1 IWR1        0.0000 
     27 CAZ       -10.7170  -41.2060   20.9910 C.2       1 IWR1        0.0000 
     28 CAY       -11.4170  -42.5660   21.1290 C.3       1 IWR1        0.0000 
     29 CAU       -10.4420  -43.7230   20.8900 C.3       1 IWR1        0.0000 
     30 CAX        -9.0760  -43.4610   21.5260 C.2       1 IWR1        0.0000 
     31 OBD        -8.9080  -43.5070   22.7430 O.2       1 IWR1        0.0000 
     32 H          -3.6876  -39.9492   27.3514 H         1 IWR1        0.0000 
     33 H          -1.6981  -39.4073   28.5810 H         1 IWR1        0.0000 
     34 H           0.4898  -39.8512   27.6259 H         1 IWR1        0.0000 
     35 H           1.8355  -40.6892   25.7645 H         1 IWR1        0.0000 
     36 H           1.9524  -41.6543   23.5424 H         1 IWR1        0.0000 
     37 H          -0.0843  -42.1416   22.3268 H         1 IWR1        0.0000 
     38 H          -3.4545  -41.3023   23.6683 H         1 IWR1        0.0000 
     39 H          -4.7209  -40.6421   21.9390 H         1 IWR1        0.0000 
     40 H          -7.0244  -40.9641   21.3026 H         1 IWR1        0.0000 
     41 H          -3.9986  -44.7204   21.3761 H         1 IWR1        0.0000 
     42 H          -6.2916  -45.0392   20.7047 H         1 IWR1        0.0000 
     43 H         -10.3582  -44.4650   18.9223 H         1 IWR1        0.0000 
     44 H         -11.2388  -42.4193   18.0003 H         1 IWR1        0.0000 
     45 H         -12.5892  -43.5773   19.7013 H         1 IWR1        0.0000 
     46 H         -12.8449  -41.8251   19.7699 H         1 IWR1        0.0000 
     47 H         -10.1394  -40.4293   19.0524 H         1 IWR1        0.0000 
     48 H         -10.5115  -40.6525   21.6161 H         1 IWR1        0.0000 
     49 H         -11.9865  -42.6649   21.9146 H         1 IWR1        0.0000 
     50 H         -10.8215  -44.6219   21.1053 H         1 IWR1        0.0000 
@<TRIPOS>BOND
     1    2    1 ar   
     2    6    1 ar   
     3   10    1 ar   
     4    3    2 ar   
     5    4    3 ar   
     6   32    3 1    
     7    5    4 ar   
     8   33    4 1    
     9    6    5 ar   
    10   34    5 1    
    11    7    6 ar   
    12    8    7 ar   
    13   35    7 1    
    14    9    8 ar   
    15   36    8 1    
    16   10    9 ar   
    17   37    9 1    
    18   11   10 1    
    19   12   11 am   
    20   38   11 1    
    21   13   12 2    
    22   14   12 1    
    23   15   14 ar   
    24   17   14 ar   
    25   16   15 ar   
    26   39   15 1    
    27   19   16 ar   
    28   40   16 1    
    29   18   17 ar   
    30   41   17 1    
    31   19   18 ar   
    32   42   18 1    
    33   20   19 1    
    34   21   20 am   
    35   30   20 am   
    36   22   21 2    
    37   23   21 1    
    38   24   23 1    
    39   29   23 1    
    40   43   23 1    
    41   25   24 1    
    42   26   24 1    
    43   44   24 1    
    44   28   25 1    
    45   45   25 1    
    46   46   25 1    
    47   27   26 2    
    48   47   26 1    
    49   28   27 1    
    50   48   27 1    
    51   29   28 1    
    52   49   28 1    
    53   30   29 1    
    54   50   29 1    
    55   31   30 2    
@<TRIPOS>SUBSTRUCTURE
     1 IWR1        1 GROUP   
@<TRIPOS>SET

