#    Name: 4hle_17V_1_INTS_M
#    Modification time : Tue Mar 25 01:10:35 2014

@<TRIPOS>MOLECULE
4hle_17V_1_INTS_M
   59     0     9     0     0
SMALL
NO_CHARGES


@<TRIPOS>ATOM
      1 CA         17.3230   16.7410  126.9750 C.3       3 GLC5        0.0000 
      2 CA         15.9260   17.0270  125.2680 C.3       9 GLL5        0.0000 
      3 CA         18.7200   16.4550  128.6820 C.3       6 GLP5        0.0000 
      4 CA         14.2390   15.6140  122.4980 C.3       3 GLC5        0.0000 
      5 CA         14.6000   15.1250  124.2850 C.3       9 GLL5        0.0000 
      6 CA         13.8780   16.1030  120.7110 C.3       6 GLP5        0.0000 
      7 CA         13.2950   13.7055  123.7720 C.3       3 GLC5        0.0000 
      8 CA         11.9900   12.2860  123.2590 C.3       6 GLP5        0.0000 
      9 CA         16.1360   14.3835  123.3630 C.3       3 GLC5        0.0000 
     10 CA         17.6720   13.6420  122.4410 C.3       6 GLP5        0.0000 
     11 CA         11.4070   15.9270  125.9875 C.3       3 GLC5        0.0000 
     12 CA         12.5140   15.2520  127.6120 C.3       9 GLL5        0.0000 
     13 CA         10.3000   16.6020  124.3630 C.3       6 GLP5        0.0000 
     14 CA         11.2935   14.1370  126.6975 C.3       3 GLC5        0.0000 
     15 CA         10.0730   13.0220  125.7830 C.3       6 GLP5        0.0000 
     16 CA          9.9805   16.4790  126.4160 C.3       3 GLC5        0.0000 
     17 CA          9.6610   16.3560  128.4690 C.3       9 GLL5        0.0000 
     18 CA          7.0815   13.0625  130.9960 C.3       3 GLC5        0.0000 
     19 CA          7.7140   14.6880  129.5860 C.3       9 GLL5        0.0000 
     20 CA          6.4490   11.4370  132.4060 C.3       6 GLP5        0.0000 
     21 CA          8.0965   12.4275  129.1315 C.3       3 GLC5        0.0000 
     22 CA          9.0230   14.2470  129.5120 C.3       9 GLL5        0.0000 
     23 CA          7.1700   10.6080  128.7510 C.3       6 GLP5        0.0000 
     24 N           8.1980   12.1985  130.5380 N.am      2 SEC2        0.0000 
     25 N           9.3740   13.0410  130.0080 N.am      8 SEL2        0.0000 
     26 N           7.0220   11.3560  131.0680 N.am      5 SEP2        0.0000 
     27 CA          8.7985   12.4700  132.3430 C.3       3 GLC5        0.0000 
     28 CA         10.1520   12.9990  131.2010 C.3       9 GLL5        0.0000 
     29 CA          7.4450   11.9410  133.4850 C.3       6 GLP5        0.0000 
     30 CA         10.4350   15.1505  131.5440 C.3       3 GLC5        0.0000 
     31 CA         10.7180   17.3020  131.8870 C.3       6 GLP5        0.0000 
     32 CA         12.5195   11.9000  132.3125 C.3       3 GLC5        0.0000 
     33 CA         11.6480   12.9890  130.9020 C.3       9 GLL5        0.0000 
     34 CA         13.3910   10.8110  133.7230 C.3       6 GLP5        0.0000 
     35 O           5.1820   14.6440  130.8950 O.2       1 ALC1        0.0000 
     36 O           5.0600   15.8330  129.9740 O.2       7 ALL1        0.0000 
     37 O           5.3040   13.4550  131.8160 O.2       4 ALP1        0.0000 
     38 CA         13.4870   12.0895  128.3868 C.3       3 GLC5        0.0000 
     39 CA         13.4470   13.5890  129.2650 C.3       9 GLL5        0.0000 
     40 CA         13.3190   10.2370  128.0510 C.3       6 GLP5        0.0000 
     41 CA         10.9337   13.6135  127.5268 C.3       3 GLC5        0.0000 
     42 CA         12.1420   13.7530  129.6750 C.3       9 GLL5        0.0000 
     43 CA         12.6070   11.8040  129.1697 C.3       3 GLC5        0.0000 
     44 CA         11.2562   15.7535  130.5788 C.3       3 GLC5        0.0000 
     45 CA         13.2789   16.0636  129.2880 C.3       3 GLC5        0.0000 
     46 CA         11.4470   14.6570  128.8660 C.3       9 GLL5        0.0000 
     47 CA         14.2400   17.4120  130.1950 C.3       6 GLP5        0.0000 
     48 CA          6.3900   13.7327  128.7018 C.3       3 GLC5        0.0000 
     49 CA          7.3620   15.9610  129.0910 C.3       9 GLL5        0.0000 
     50 CA          5.2420   12.1410  128.0650 C.3       6 GLP5        0.0000 
     51 CA          8.4436   16.7240  130.4954 C.3       3 GLC5        0.0000 
     52 CA          9.1010   17.9190  131.7950 C.3       6 GLP5        0.0000 
     53 CA          9.7535   14.0056  127.4511 C.3       3 GLC5        0.0000 
     54 CA         10.0290   15.1070  128.9840 C.3       9 GLL5        0.0000 
     55 CA         10.0760   16.1456  130.5031 C.3       3 GLC5        0.0000 
     56 CA         10.8920   13.7460  132.7982 C.3       3 GLC5        0.0000 
     57 CA         10.8840   14.4980  134.5450 C.3       6 GLP5        0.0000 
     58 CA         13.1076   14.2620  131.3990 C.3       3 GLC5        0.0000 
     59 CA         13.9940   15.1940  132.6120 C.3       6 GLP5        0.0000 
@<TRIPOS>BOND
@<TRIPOS>SUBSTRUCTURE
     1 ALC1       35 GROUP        1 X    ALC  0     ROOT ALC X 1
     2 SEC2       24 GROUP        1 X    SEC  0     **** SEC X 2
     3 GLC5        1 GROUP        1 X    GLC  0     **** GLC X 6
     4 ALP1       37 GROUP        1 Y    ALP  0     ROOT ALP Y 8
     5 SEP2       26 GROUP        1 Y    SEP  0     **** SEP Y 9
     6 GLP5        3 GROUP        1 Y    GLP  0     **** GLP Y 13
     7 ALL1       36 GROUP        1 Z    ALL  0     ROOT ALL Z 15
     8 SEL2       25 GROUP        1 Z    SEL  0     **** SEL Z 16
     9 GLL5        2 GROUP        1 Z    GLL  0     **** GLL Z 20
@<TRIPOS>SET

