#    Name: 4hle_17V_1_ligand
#    Modification time : Tue Mar 25 01:10:35 2014

@<TRIPOS>MOLECULE
4hle_17V_1_ligand
   43    46     1     0     0
SMALL
NO_CHARGES


@<TRIPOS>ATOM
      1 C1         15.9260   17.0270  125.2680 C.3       1 17V1201     0.0000 
      2 C2         15.0440   15.8140  125.5760 C.3       1 17V1201     0.0000 
      3 C3         14.6000   15.1250  124.2850 C.3       1 17V1201     0.0000 
      4 N4         15.7090   14.8420  126.4600 N.pl3     1 17V1201     0.0000 
      5 C5         15.2080   14.2050  127.5720 C.2       1 17V1201     0.0000 
      6 N6         16.1610   13.4050  128.0230 N.2       1 17V1201     0.0000 
      7 C7         17.2390   13.5000  127.2580 C.2       1 17V1201     0.0000 
      8 N8         17.0210   14.3630  126.3060 N.2       1 17V1201     0.0000 
      9 C9         13.8630   14.2950  128.1800 C.2       1 17V1201     0.0000 
     10 C10        13.4470   13.5890  129.2650 C.2       1 17V1201     0.0000 
     11 C11        12.1420   13.7530  129.6750 C.2       1 17V1201     0.0000 
     12 C12        11.4470   14.6570  128.8660 C.2       1 17V1201     0.0000 
     13 S13        12.5140   15.2520  127.6120 S.3       1 17V1201     0.0000 
     14 C14        10.0290   15.1070  128.9840 C.ar      1 17V1201     0.0000 
     15 C15         9.6610   16.3560  128.4690 C.ar      1 17V1201     0.0000 
     16 C16         8.3550   16.7790  128.5200 C.ar      1 17V1201     0.0000 
     17 C17         7.3620   15.9610  129.0910 C.ar      1 17V1201     0.0000 
     18 C18         7.7140   14.6880  129.5860 C.ar      1 17V1201     0.0000 
     19 C19         9.0230   14.2470  129.5120 C.ar      1 17V1201     0.0000 
     20 O20         9.3740   13.0410  130.0080 O.3       1 17V1201     0.0000 
     21 C21        10.1520   12.9990  131.2010 C.3       1 17V1201     0.0000 
     22 C22        11.6480   12.9890  130.9020 C.3       1 17V1201     0.0000 
     23 C23         5.9590   16.4460  129.1700 C.2       1 17V1201     0.0000 
     24 O24         5.6060   17.4140  128.5150 O.2       1 17V1201     0.0000 
     25 N25         5.0600   15.8330  129.9740 N.am      1 17V1201     0.0000 
     26 H          14.1334   16.1840  126.0697 H         1 17V1201     0.0000 
     27 H          18.0715   12.9908  127.3981 H         1 17V1201     0.0000 
     28 H          14.0733   12.9572  129.7643 H         1 17V1201     0.0000 
     29 H          10.3892   16.9583  128.0479 H         1 17V1201     0.0000 
     30 H           8.0851   17.6998  128.1414 H         1 17V1201     0.0000 
     31 H           6.9848   14.0935  130.0019 H         1 17V1201     0.0000 
     32 H           9.9264   12.0990  131.8017 H         1 17V1201     0.0000 
     33 H           9.9479   13.8702  131.8501 H         1 17V1201     0.0000 
     34 H          12.1918   13.3780  131.8025 H         1 17V1201     0.0000 
     35 H          11.9843   11.9228  130.8128 H         1 17V1201     0.0000 
     36 H           5.4044   15.0651  130.5141 H         1 17V1201     0.0000 
     37 H           4.1308   16.2021  129.9569 H         1 17V1201     0.0000 
     38 H          16.2233   17.4914  126.1022 H         1 17V1201     0.0000 
     39 H          16.7516   16.7682  124.7666 H         1 17V1201     0.0000 
     40 H          15.4450   17.7041  124.7111 H         1 17V1201     0.0000 
     41 H          15.3803   14.8069  123.7465 H         1 17V1201     0.0000 
     42 H          14.0257   14.3272  124.4684 H         1 17V1201     0.0000 
     43 H          14.0706   15.7389  123.6995 H         1 17V1201     0.0000 
@<TRIPOS>BOND
     1    2    1 1    
     2   38    1 1    
     3   39    1 1    
     4   40    1 1    
     5    3    2 1    
     6    4    2 1    
     7   26    2 1    
     8   41    3 1    
     9   42    3 1    
    10   43    3 1    
    11    5    4 1    
    12    8    4 1    
    13    6    5 2    
    14    9    5 1    
    15    7    6 1    
    16    8    7 2    
    17   27    7 1    
    18   10    9 2    
    19   13    9 1    
    20   11   10 1    
    21   28   10 1    
    22   12   11 2    
    23   22   11 1    
    24   13   12 1    
    25   14   12 1    
    26   15   14 ar   
    27   19   14 ar   
    28   16   15 ar   
    29   29   15 1    
    30   17   16 ar   
    31   30   16 1    
    32   18   17 ar   
    33   23   17 1    
    34   19   18 ar   
    35   31   18 1    
    36   20   19 1    
    37   21   20 1    
    38   22   21 1    
    39   32   21 1    
    40   33   21 1    
    41   34   22 1    
    42   35   22 1    
    43   24   23 2    
    44   25   23 am   
    45   36   25 1    
    46   37   25 1    
@<TRIPOS>SUBSTRUCTURE
     1 17V1201     1 GROUP   
@<TRIPOS>SET

