#    Name: 4lae_1VM_1_INTS_M
#    Modification time : Tue Mar 25 09:58:50 2014

@<TRIPOS>MOLECULE
4lae_1VM_1_INTS_M
   72     0     9     0     0
SMALL
NO_CHARGES


@<TRIPOS>ATOM
      1 O          -2.6010   27.3150   -2.5190 O.2       1 ALC1        0.0000 
      2 O          -2.8840   28.4920   -3.0380 O.2       7 ALL1        0.0000 
      3 O          -2.3180   26.1380   -2.0000 O.2       4 ALP1        0.0000 
      4 O          -1.7225   29.2505   -3.0620 O.2       1 ALC1        0.0000 
      5 O          -0.5610   30.0090   -3.0860 O.2       4 ALP1        0.0000 
      6 CA         -4.1815   27.7380   -1.8070 C.3       3 GLC5        0.0000 
      7 CA         -4.0470   28.6250   -3.7030 C.3       9 GLL5        0.0000 
      8 CA         -4.3160   26.8510    0.0890 C.3       6 GLP5        0.0000 
      9 CA         -3.8050   26.6305   -3.8205 C.3       3 GLC5        0.0000 
     10 CA         -3.5630   24.6360   -3.9380 C.3       6 GLP5        0.0000 
     11 N          -7.6440   28.6380   -5.8670 N.am      2 SEC2        0.0000 
     12 N          -6.4640   28.8490   -5.1030 N.am      8 SEL2        0.0000 
     13 N          -8.8240   28.4270   -6.6310 N.am      5 SEP2        0.0000 
     14 CA         -4.8325   26.1705   -4.1995 C.3       3 GLC5        0.0000 
     15 CA         -6.1020   27.7050   -4.4610 C.3       9 GLL5        0.0000 
     16 CA         -6.2945   26.5075   -6.0840 C.3       3 GLC5        0.0000 
     17 CA         -6.4870   25.3100   -7.7070 C.3       6 GLP5        0.0000 
     18 CA         -7.0790   28.4450   -3.4325 C.3       3 GLC5        0.0000 
     19 CA         -8.0560   29.1850   -2.4040 C.3       6 GLP5        0.0000 
     20 O          -8.1950   26.5900   -5.0975 O.2       1 ALC1        0.0000 
     21 O          -6.9480   26.6360   -4.4870 O.2       7 ALL1        0.0000 
     22 O          -9.4420   26.5440   -5.7080 O.2       4 ALP1        0.0000 
     23 O          -7.8860   27.5315   -5.5590 O.2       1 ALC1        0.0000 
     24 O          -8.8240   28.4270   -6.6310 O.2       4 ALP1        0.0000 
     25 O          -7.4355   25.5805   -3.4400 O.2       1 ALC1        0.0000 
     26 O          -7.9230   24.5250   -2.3930 O.2       4 ALP1        0.0000 
     27 CA         -3.0845   34.1810   -4.7320 C.3       3 GLC5        0.0000 
     28 CA         -4.0000   32.1750   -5.0260 C.3       9 GLL5        0.0000 
     29 CA         -2.1690   36.1870   -4.4380 C.3       6 GLP5        0.0000 
     30 CA         -6.2515   31.2365   -7.8750 C.3       3 GLC5        0.0000 
     31 CA         -6.0440   31.1510   -5.7330 C.3       9 GLL5        0.0000 
     32 CA         -6.4590   31.3220  -10.0170 C.3       6 GLP5        0.0000 
     33 CA         -7.7320   31.7455   -6.5820 C.3       3 GLC5        0.0000 
     34 CA         -9.4200   32.3400   -7.4310 C.3       6 GLP5        0.0000 
     35 CA         -7.6580   32.7130   -3.0305 C.3       3 GLC5        0.0000 
     36 CA         -7.4740   33.9850   -4.6960 C.3       9 GLL5        0.0000 
     37 CA         -7.8420   31.4410   -1.3650 C.3       6 GLP5        0.0000 
     38 CA         -8.6330   33.0950   -2.3340 C.3       3 GLC5        0.0000 
     39 CA         -9.4240   34.7490   -3.3030 C.3       9 GLL5        0.0000 
     40 CA        -10.8485   34.3490   -1.6490 C.3       3 GLC5        0.0000 
     41 CA        -12.2730   33.9490    0.0050 C.3       6 GLP5        0.0000 
     42 CA         -3.3275   31.1325   -9.4950 C.3       3 GLC5        0.0000 
     43 CA         -2.2090   32.4450   -8.9480 C.3       9 GLL5        0.0000 
     44 CA         -4.4460   29.8200  -10.0420 C.3       6 GLP5        0.0000 
     45 CA         -1.7015   33.5600  -11.6195 C.3       3 GLC5        0.0000 
     46 CA         -1.9070   33.6080   -9.6620 C.3       9 GLL5        0.0000 
     47 CA         -1.4960   33.5120  -13.5770 C.3       6 GLP5        0.0000 
     48 CA         -3.5080   32.3135  -10.1695 C.3       3 GLC5        0.0000 
     49 CA         -5.1090   31.0190  -10.6770 C.3       6 GLP5        0.0000 
     50 CA         -2.7315   35.8275   -7.4880 C.3       3 GLC5        0.0000 
     51 CA         -3.0550   34.8120   -9.1890 C.3       9 GLL5        0.0000 
     52 CA         -2.4080   36.8430   -5.7870 C.3       6 GLP5        0.0000 
     53 CA         -6.1382   29.2248   -3.2225 C.3       3 GLC5        0.0000 
     54 CA         -4.3940   29.9040   -4.3790 C.3       9 GLL5        0.0000 
     55 CA         -6.9600   29.8708   -3.9080 C.3       3 GLC5        0.0000 
     56 CA         -5.6840   29.9620   -5.0910 C.3       9 GLL5        0.0000 
     57 CA        -10.2200   33.8855   -4.9840 C.3       3 GLC5        0.0000 
     58 CA         -8.4400   34.9610   -4.4330 C.3       9 GLL5        0.0000 
     59 CA        -11.5080   32.9160   -6.1000 C.3       6 GLP5        0.0000 
     60 CA         -7.3803   35.3950   -2.5439 C.3       3 GLC5        0.0000 
     61 CA         -6.0700   36.1790   -1.1540 C.3       6 GLP5        0.0000 
     62 CA         -9.4797   35.2555   -6.9798 C.3       3 GLC5        0.0000 
     63 CA         -8.4930   36.2050   -5.2630 C.3       9 GLL5        0.0000 
     64 CA        -10.9230   34.2140   -8.1750 C.3       6 GLP5        0.0000 
     65 CA         -7.6480   37.5345   -3.7627 C.3       3 GLC5        0.0000 
     66 CA         -6.2870   38.3280   -2.3930 C.3       6 GLP5        0.0000 
     67 CA         -8.1177   33.5446   -6.6640 C.3       3 GLC5        0.0000 
     68 CA         -6.6140   35.4180   -6.5750 C.3       9 GLL5        0.0000 
     69 CA         -0.4800   32.1727   -9.7840 C.3       3 GLC5        0.0000 
     70 CA          1.0980   31.3190  -10.2630 C.3       6 GLP5        0.0000 
     71 CA         -1.0125   35.3940   -9.5798 C.3       3 GLC5        0.0000 
     72 CA          0.4560   36.5780   -9.7340 C.3       6 GLP5        0.0000 
@<TRIPOS>BOND
@<TRIPOS>SUBSTRUCTURE
     1 ALC1        1 GROUP        1 X    ALC  0     ROOT ALC X 1
     2 SEC2       11 GROUP        1 X    SEC  0     **** SEC X 2
     3 GLC5        6 GROUP        1 X    GLC  0     **** GLC X 6
     4 ALP1        3 GROUP        1 Y    ALP  0     ROOT ALP Y 8
     5 SEP2       13 GROUP        1 Y    SEP  0     **** SEP Y 9
     6 GLP5        8 GROUP        1 Y    GLP  0     **** GLP Y 13
     7 ALL1        2 GROUP        1 Z    ALL  0     ROOT ALL Z 15
     8 SEL2       12 GROUP        1 Z    SEL  0     **** SEL Z 16
     9 GLL5        7 GROUP        1 Z    GLL  0     **** GLL Z 20
@<TRIPOS>SET

