#    Name: 4lae_1VM_1_ligand
#    Modification time : Tue Mar 25 09:58:50 2014

@<TRIPOS>MOLECULE
4lae_1VM_1_ligand
   45    49     1     0     0
SMALL
NO_CHARGES


@<TRIPOS>ATOM
      1 N11        -2.8840   28.4920   -3.0380 N.pl3     1 1VM202      0.0000 
      2 C1         -4.0470   28.6250   -3.7030 C.ar      1 1VM202      0.0000 
      3 N2         -4.9310   27.6020   -3.7790 N.ar      1 1VM202      0.0000 
      4 C6         -4.3940   29.9040   -4.3790 C.ar      1 1VM202      0.0000 
      5 C5         -5.6840   29.9620   -5.0910 C.ar      1 1VM202      0.0000 
      6 N4         -6.4640   28.8490   -5.1030 N.ar      1 1VM202      0.0000 
      7 C3         -6.1020   27.7050   -4.4610 C.ar      1 1VM202      0.0000 
      8 N12        -6.9480   26.6360   -4.4870 N.pl3     1 1VM202      0.0000 
      9 C7         -3.5710   31.0200   -4.3620 C.ar      1 1VM202      0.0000 
     10 C8         -4.0000   32.1750   -5.0260 C.ar      1 1VM202      0.0000 
     11 C9         -5.2080   32.2880   -5.7290 C.ar      1 1VM202      0.0000 
     12 C10        -6.0440   31.1510   -5.7330 C.ar      1 1VM202      0.0000 
     13 N13        -5.5600   33.4600   -6.2860 N.pl3     1 1VM202      0.0000 
     14 C14        -6.5600   34.1760   -5.7420 C.ar      1 1VM202      0.0000 
     15 C18        -7.4740   33.9850   -4.6960 C.ar      1 1VM202      0.0000 
     16 C19        -8.4400   34.9610   -4.4330 C.ar      1 1VM202      0.0000 
     17 C22        -9.4240   34.7490   -3.3030 C.3       1 1VM202      0.0000 
     18 C20        -8.4930   36.2050   -5.2630 C.ar      1 1VM202      0.0000 
     19 C23        -9.5250   37.2770   -5.0020 C.3       1 1VM202      0.0000 
     20 C21        -7.5800   36.3890   -6.3060 C.ar      1 1VM202      0.0000 
     21 C15        -6.6140   35.4180   -6.5750 C.ar      1 1VM202      0.0000 
     22 N16        -5.6210   35.3320   -7.5060 N.2       1 1VM202      0.0000 
     23 C17        -5.0030   34.1500   -7.2800 C.2       1 1VM202      0.0000 
     24 C24        -3.8440   33.7250   -8.1080 C.2       1 1VM202      0.0000 
     25 N25        -3.2700   32.5090   -8.0780 N.2       1 1VM202      0.0000 
     26 C26        -2.2090   32.4450   -8.9480 C.2       1 1VM202      0.0000 
     27 C27        -1.9070   33.6080   -9.6620 C.2       1 1VM202      0.0000 
     28 S28        -3.0550   34.8120   -9.1890 S.3       1 1VM202      0.0000 
     29 H          -2.7338   27.6129   -2.5857 H         1 1VM202      0.0000 
     30 H          -2.2740   29.2842   -3.0556 H         1 1VM202      0.0000 
     31 H          -7.4744   26.5117   -5.3281 H         1 1VM202      0.0000 
     32 H          -6.9677   26.0702   -3.6626 H         1 1VM202      0.0000 
     33 H          -2.6759   31.0056   -3.8802 H         1 1VM202      0.0000 
     34 H          -3.3689   33.0235   -4.9960 H         1 1VM202      0.0000 
     35 H          -6.9542   31.2045   -6.2299 H         1 1VM202      0.0000 
     36 H          -7.4328   33.1346   -4.1287 H         1 1VM202      0.0000 
     37 H          -7.6213   37.2433   -6.8764 H         1 1VM202      0.0000 
     38 H          -1.6666   31.6046   -9.0739 H         1 1VM202      0.0000 
     39 H          -1.3065   33.8639  -10.2623 H         1 1VM202      0.0000 
     40 H          -8.9618   34.6490   -2.4219 H         1 1VM202      0.0000 
     41 H         -10.0596   35.5160   -3.2152 H         1 1VM202      0.0000 
     42 H          -9.9751   33.9259   -3.4400 H         1 1VM202      0.0000 
     43 H          -9.4477   37.6497   -4.0773 H         1 1VM202      0.0000 
     44 H          -9.4317   38.0446   -5.6361 H         1 1VM202      0.0000 
     45 H         -10.4567   36.9273   -5.1001 H         1 1VM202      0.0000 
@<TRIPOS>BOND
     1    2    1 1    
     2   29    1 1    
     3   30    1 1    
     4    3    2 ar   
     5    4    2 ar   
     6    7    3 ar   
     7    5    4 ar   
     8    9    4 ar   
     9    6    5 ar   
    10   12    5 ar   
    11    7    6 ar   
    12    8    7 1    
    13   31    8 1    
    14   32    8 1    
    15   10    9 ar   
    16   33    9 1    
    17   11   10 ar   
    18   34   10 1    
    19   12   11 ar   
    20   13   11 1    
    21   35   12 1    
    22   14   13 1    
    23   23   13 1    
    24   15   14 ar   
    25   21   14 ar   
    26   16   15 ar   
    27   36   15 1    
    28   17   16 1    
    29   18   16 ar   
    30   40   17 1    
    31   41   17 1    
    32   42   17 1    
    33   19   18 1    
    34   20   18 ar   
    35   43   19 1    
    36   44   19 1    
    37   45   19 1    
    38   21   20 ar   
    39   37   20 1    
    40   22   21 1    
    41   23   22 2    
    42   24   23 1    
    43   25   24 2    
    44   28   24 1    
    45   26   25 1    
    46   27   26 2    
    47   38   26 1    
    48   28   27 1    
    49   39   27 1    
@<TRIPOS>SUBSTRUCTURE
     1 1VM202      1 GROUP   
@<TRIPOS>SET

