#    Name: 3lmh_ADP_1_INTS_M
#    Modification time : Mon Mar 24 21:50:30 2014

@<TRIPOS>MOLECULE
3lmh_ADP_1_INTS_M
   66     0    12     0     0
SMALL
NO_CHARGES


@<TRIPOS>ATOM
      1 N          13.4975  -20.9885    7.6085 N.am      2 SEC2        0.0000 
      2 N          13.8010  -19.9000    6.8240 N.am     10 SEL2        0.0000 
      3 N          13.1940  -22.0770    8.3930 N.am      6 SEP2        0.0000 
      4 N          14.8510  -20.6645    7.6565 N.am      2 SEC2        0.0000 
      5 N          15.9010  -21.4290    8.4890 N.am      6 SEP2        0.0000 
      6 NZ         15.8095  -19.7925    3.5275 N.4       3 LYC4        0.0000 
      7 NZ         14.8950  -20.5000    4.6850 N.4      11 LYL4        0.0000 
      8 NZ         17.5790  -19.9350    2.9160 N.4       7 LYP4        0.0000 
      9 N          16.0965  -20.5105    4.3805 N.am      2 SEC2        0.0000 
     10 N          14.8950  -20.5000    4.6850 N.am     10 SEL2        0.0000 
     11 N          17.2980  -20.5210    4.0760 N.am      6 SEP2        0.0000 
     12 N          15.8095  -19.7925    3.5275 N.am      2 SEC2        0.0000 
     13 N          16.7240  -19.0850    2.3700 N.am      6 SEP2        0.0000 
     14 NZ         16.6050  -18.2570    3.2845 N.4       3 LYC4        0.0000 
     15 NZ         15.6310  -16.5790    3.6530 N.4      11 LYL4        0.0000 
     16 NZ         16.9205  -15.8070    3.1650 N.4       3 LYC4        0.0000 
     17 NZ         18.2100  -15.0350    2.6770 N.4       7 LYP4        0.0000 
     18 N          16.9205  -15.8070    3.1650 N.am      2 SEC2        0.0000 
     19 N          15.6310  -16.5790    3.6530 N.am     10 SEL2        0.0000 
     20 N          18.2100  -15.0350    2.6770 N.am      6 SEP2        0.0000 
     21 CA         15.5190  -15.6295    9.3150 C.3       4 GLC5        0.0000 
     22 CA         15.4380  -15.1650    7.2250 C.3      12 GLL5        0.0000 
     23 CA         15.6000  -16.0940   11.4050 C.3       8 GLP5        0.0000 
     24 CA         14.2195  -16.3090    8.1035 C.3       4 GLC5        0.0000 
     25 CA         13.0010  -17.4530    8.9820 C.3       8 GLP5        0.0000 
     26 CA         16.2155  -12.8355    8.9935 C.3       4 GLC5        0.0000 
     27 CA         15.3740  -13.6410    7.4090 C.3      12 GLL5        0.0000 
     28 CA         17.0570  -12.0300   10.5780 C.3       8 GLP5        0.0000 
     29 CA         13.5910  -11.8920    4.9650 C.3       4 GLC5        0.0000 
     30 CA         14.4220  -12.9210    6.4720 C.3      12 GLL5        0.0000 
     31 CA         12.7600  -10.8630    3.4580 C.3       8 GLP5        0.0000 
     32 CA         13.8150  -10.5970    5.3565 C.3       4 GLC5        0.0000 
     33 CA         14.9410  -11.4990    6.4920 C.3      12 GLL5        0.0000 
     34 CA         12.6890   -9.6950    4.2210 C.3       8 GLP5        0.0000 
     35 CA         16.7470  -11.8425    8.6215 C.3       4 GLC5        0.0000 
     36 CA         16.4370  -11.6550    6.6650 C.3      12 GLL5        0.0000 
     37 CA         15.6740  -10.3740    5.0860 C.3       4 GLC5        0.0000 
     38 CA         14.9110   -9.0930    3.5070 C.3       8 GLP5        0.0000 
     39 N          18.1560  -13.6570    3.0565 N.am      2 SEC2        0.0000 
     40 N          18.1020  -12.2790    3.4360 N.am     10 SEL2        0.0000 
     41 CA         20.5245  -12.1005    4.4560 C.3       4 GLC5        0.0000 
     42 CA         18.6750  -11.1040    3.7390 C.3      12 GLL5        0.0000 
     43 CA         22.3740  -13.0970    5.1730 C.3       8 GLP5        0.0000 
     44 CA         18.9710  -13.2045    3.7130 C.3       4 GLC5        0.0000 
     45 CA         19.2670  -15.3050    3.6870 C.3       8 GLP5        0.0000 
     46 CA         17.6125  -11.6200    1.8735 C.3       4 GLC5        0.0000 
     47 CA         16.5500  -12.1360    0.0080 C.3       8 GLP5        0.0000 
     48 CA         21.3565  -10.4470    3.9465 C.3       4 GLC5        0.0000 
     49 CA         19.6700  -10.2190    3.0950 C.3      12 GLL5        0.0000 
     50 CA         23.0430  -10.6750    4.7980 C.3       8 GLP5        0.0000 
     51 O          19.8925  -11.9400    1.3625 O.2       1 ALC1        0.0000 
     52 O          20.2330  -10.5490    1.9060 O.2       9 ALL1        0.0000 
     53 O          19.5520  -13.3310    0.8190 O.2       5 ALP1        0.0000 
     54 O          21.4525  -10.2100    1.3495 O.2       1 ALC1        0.0000 
     55 O          22.6720   -9.8710    0.7930 O.2       5 ALP1        0.0000 
     56 N          20.5690   -8.0160    2.9765 N.am      2 SEC2        0.0000 
     57 N          19.9880   -9.0770    3.7380 N.am     10 SEL2        0.0000 
     58 N          21.1500   -6.9550    2.2150 N.am      6 SEP2        0.0000 
     59 CA         21.2345   -9.7055    4.8570 C.3       4 GLC5        0.0000 
     60 CA         19.4260   -8.7360    4.9160 C.3      12 GLL5        0.0000 
     61 CA         21.1655   -7.9610    5.2340 C.3       4 GLC5        0.0000 
     62 CA         22.9050   -7.1860    5.5520 C.3       8 GLP5        0.0000 
     63 CA         19.0975   -7.6860    3.2955 C.3       4 GLC5        0.0000 
     64 CA         18.7690   -6.6360    1.6750 C.3       8 GLP5        0.0000 
     65 CA         18.2608   -9.5452    2.0390 C.3       4 GLC5        0.0000 
     66 CA         17.3490   -8.4290    0.6610 C.3       8 GLP5        0.0000 
@<TRIPOS>BOND
@<TRIPOS>SUBSTRUCTURE
     1 ALC1       51 GROUP        1 X    ALC  0     ROOT ALC X 1
     2 SEC2        1 GROUP        1 X    SEC  0     **** SEC X 2
     3 LYC4        6 GROUP        1 X    LYC  0     **** LYC X 4
     4 GLC5       21 GROUP        1 X    GLC  0     **** GLC X 6
     5 ALP1       53 GROUP        1 Y    ALP  0     ROOT ALP Y 8
     6 SEP2        3 GROUP        1 Y    SEP  0     **** SEP Y 9
     7 LYP4        8 GROUP        1 Y    LYP  0     **** LYP Y 11
     8 GLP5       23 GROUP        1 Y    GLP  0     **** GLP Y 13
     9 ALL1       52 GROUP        1 Z    ALL  0     ROOT ALL Z 15
    10 SEL2        2 GROUP        1 Z    SEL  0     **** SEL Z 16
    11 LYL4        7 GROUP        1 Z    LYL  0     **** LYL Z 18
    12 GLL5       22 GROUP        1 Z    GLL  0     **** GLL Z 20
@<TRIPOS>SET

