#    Name: 3lmh_ADP_1_ligand
#    Modification time : Mon Mar 24 21:50:30 2014

@<TRIPOS>MOLECULE
3lmh_ADP_1_ligand
   39    41     1     0     0
SMALL
NO_CHARGES


@<TRIPOS>ATOM
      1 PB         14.1450  -19.4330    5.4390 P.3       1 ADP1511     0.0000 
      2 O1B        13.8010  -19.9000    6.8240 O.co2     1 ADP1511     0.0000 
      3 O2B        14.8950  -20.5000    4.6850 O.co2     1 ADP1511     0.0000 
      4 O3B        12.9900  -18.8500    4.6610 O.co2     1 ADP1511     0.0000 
      5 PA         14.9790  -16.6620    5.0220 P.3       1 ADP1511     0.0000 
      6 O1A        15.6310  -16.5790    3.6530 O.co2     1 ADP1511     0.0000 
      7 O2A        13.5050  -16.3290    5.1260 O.co2     1 ADP1511     0.0000 
      8 O3A        15.1880  -18.1710    5.6310 O.3       1 ADP1511     0.0000 
      9 O5'        15.8290  -15.6050    5.9200 O.3       1 ADP1511     0.0000 
     10 C5'        15.4380  -15.1650    7.2250 C.3       1 ADP1511     0.0000 
     11 C4'        15.3740  -13.6410    7.4090 C.3       1 ADP1511     0.0000 
     12 O4'        16.6260  -12.9640    7.2430 O.3       1 ADP1511     0.0000 
     13 C3'        14.4220  -12.9210    6.4720 C.3       1 ADP1511     0.0000 
     14 O3'        13.0890  -12.9740    6.9690 O.3       1 ADP1511     0.0000 
     15 C2'        14.9410  -11.4990    6.4920 C.3       1 ADP1511     0.0000 
     16 O2'        14.4420  -10.8710    7.6750 O.3       1 ADP1511     0.0000 
     17 C1'        16.4370  -11.6550    6.6650 C.3       1 ADP1511     0.0000 
     18 N9         17.2360  -11.6130    5.4000 N.pl3     1 ADP1511     0.0000 
     19 C8         17.2480  -12.5780    4.4510 C.2       1 ADP1511     0.0000 
     20 N7         18.1020  -12.2790    3.4360 N.2       1 ADP1511     0.0000 
     21 C5         18.6750  -11.1040    3.7390 C.ar      1 ADP1511     0.0000 
     22 C6         19.6700  -10.2190    3.0950 C.ar      1 ADP1511     0.0000 
     23 N6         20.2330  -10.5490    1.9060 N.pl3     1 ADP1511     0.0000 
     24 N1         19.9880   -9.0770    3.7380 N.ar      1 ADP1511     0.0000 
     25 C2         19.4260   -8.7360    4.9160 C.ar      1 ADP1511     0.0000 
     26 N3         18.5210   -9.4920    5.5510 N.ar      1 ADP1511     0.0000 
     27 C4         18.1050  -10.6680    5.0290 C.ar      1 ADP1511     0.0000 
     28 H          16.1319  -15.5598    8.0078 H         1 ADP1511     0.0000 
     29 H          14.4335  -15.5701    7.5025 H         1 ADP1511     0.0000 
     30 H          15.0019  -13.4364    8.4370 H         1 ADP1511     0.0000 
     31 H          14.5399  -13.3127    5.5020 H         1 ADP1511     0.0000 
     32 H          14.7230  -11.0160    5.6181 H         1 ADP1511     0.0000 
     33 H          16.7923  -10.9105    7.3525 H         1 ADP1511     0.0000 
     34 H          16.7049  -13.3990    4.4880 H         1 ADP1511     0.0000 
     35 H          19.9487  -11.4231    1.5120 H         1 ADP1511     0.0000 
     36 H          20.8826   -9.8891    1.5285 H         1 ADP1511     0.0000 
     37 H          19.7214   -7.8122    5.3633 H         1 ADP1511     0.0000 
     38 H          12.9021  -13.9469    7.1051 H         1 ADP1511     0.0000 
     39 H          13.7059  -11.4680    7.9940 H         1 ADP1511     0.0000 
@<TRIPOS>BOND
     1    2    1 ar   
     2    3    1 ar   
     3    4    1 ar   
     4    8    1 1    
     5    6    5 ar   
     6    7    5 ar   
     7    8    5 1    
     8    9    5 1    
     9   10    9 1    
    10   11   10 1    
    11   28   10 1    
    12   29   10 1    
    13   12   11 1    
    14   13   11 1    
    15   30   11 1    
    16   17   12 1    
    17   14   13 1    
    18   15   13 1    
    19   31   13 1    
    20   38   14 1    
    21   16   15 1    
    22   17   15 1    
    23   32   15 1    
    24   39   16 1    
    25   18   17 1    
    26   33   17 1    
    27   19   18 1    
    28   27   18 1    
    29   20   19 2    
    30   34   19 1    
    31   21   20 1    
    32   22   21 ar   
    33   27   21 ar   
    34   23   22 1    
    35   24   22 ar   
    36   35   23 1    
    37   36   23 1    
    38   25   24 ar   
    39   26   25 ar   
    40   37   25 1    
    41   27   26 ar   
@<TRIPOS>SUBSTRUCTURE
     1 ADP1511     1 GROUP   
@<TRIPOS>SET

