#    Name: 1nv9_SAH_1_INTS_M
#    Modification time : Mon Mar 24 18:57:17 2014

@<TRIPOS>MOLECULE
1nv9_SAH_1_INTS_M
   61     0     9     0     0
SMALL
NO_CHARGES


@<TRIPOS>ATOM
      1 O          24.1265    4.0850   19.2745 O.2       1 ALC1        0.0000 
      2 O          24.1460    5.6400   19.2360 O.2       7 ALL1        0.0000 
      3 O          24.1070    2.5300   19.3130 O.2       4 ALP1        0.0000 
      4 O          24.4755    5.7810   20.6530 O.2       1 ALC1        0.0000 
      5 O          24.8050    5.9220   22.0700 O.2       4 ALP1        0.0000 
      6 CA         22.7315    6.1110   16.8450 C.3       3 GLC5        0.0000 
      7 CA         24.5840    5.2130   16.2910 C.3       9 GLL5        0.0000 
      8 CA         20.8790    7.0090   17.3990 C.3       6 GLP5        0.0000 
      9 N          23.2850    7.9295   17.0410 N.am      2 SEC2        0.0000 
     10 N          24.1080    7.7720   18.2620 N.am      8 SEL2        0.0000 
     11 N          22.4620    8.0870   15.8200 N.am      5 SEP2        0.0000 
     12 CA         22.6775    1.6550   14.3635 C.3       3 GLC5        0.0000 
     13 CA         24.2090    2.5030   15.1860 C.3       9 GLL5        0.0000 
     14 CA         21.1460    0.8070   13.5410 C.3       6 GLP5        0.0000 
     15 CA         23.9855    0.9405   17.9305 C.3       3 GLC5        0.0000 
     16 CA         24.7440    1.5340   16.2710 C.3       9 GLL5        0.0000 
     17 CA         23.2270    0.3470   19.5900 C.3       6 GLP5        0.0000 
     18 O          26.8800    0.3325   17.8600 O.2       1 ALC1        0.0000 
     19 O          27.0770    0.9720   16.8240 O.2       7 ALL1        0.0000 
     20 O          26.6830   -0.3070   18.8960 O.2       4 ALP1        0.0000 
     21 CA         25.8075   -2.8645   15.6980 C.3       3 GLC5        0.0000 
     22 CA         25.7300   -0.6240   15.6330 C.3       9 GLL5        0.0000 
     23 CA         25.8850   -5.1050   15.7630 C.3       6 GLP5        0.0000 
     24 O          26.6955   -0.8875   17.5390 O.2       1 ALC1        0.0000 
     25 O          26.7080   -1.4680   16.1820 O.2       7 ALL1        0.0000 
     26 CA         23.8500   -0.2245   18.0290 C.3       3 GLC5        0.0000 
     27 CA         24.4730   -0.7960   16.4680 C.3       9 GLL5        0.0000 
     28 CA         21.0505   -6.0270   17.8950 C.3       3 GLC5        0.0000 
     29 CA         20.9850   -4.0900   17.0400 C.3       9 GLL5        0.0000 
     30 CA         21.1160   -7.9640   18.7500 C.3       6 GLP5        0.0000 
     31 N          20.5090   -4.9930   19.3345 N.am      2 SEC2        0.0000 
     32 N          21.1870   -4.2270   18.3520 N.am      8 SEL2        0.0000 
     33 N          19.8310   -5.7590   20.3170 N.am      5 SEP2        0.0000 
     34 CA         20.7375   -2.5085   19.7925 C.3       3 GLC5        0.0000 
     35 CA         22.1510   -3.5240   19.0110 C.3       9 GLL5        0.0000 
     36 CA         19.3240   -1.4930   20.5740 C.3       6 GLP5        0.0000 
     37 CA         22.6890   -1.5885   19.3005 C.3       3 GLC5        0.0000 
     38 CA         24.0820   -3.2665   19.8405 C.3       3 GLC5        0.0000 
     39 CA         26.0130   -3.0090   20.6700 C.3       6 GLP5        0.0000 
     40 CA         23.2460   -5.0150   18.1060 C.3       3 GLC5        0.0000 
     41 CA         24.3410   -6.5060   17.2010 C.3       6 GLP5        0.0000 
     42 CA         21.8885   -5.3730   19.4970 C.3       3 GLC5        0.0000 
     43 CA         21.6260   -7.2220   19.9830 C.3       6 GLP5        0.0000 
     44 CA         20.4290   -4.3640   20.0055 C.3       3 GLC5        0.0000 
     45 CA         18.7070   -5.2040   21.0000 C.3       6 GLP5        0.0000 
     46 CA         23.0010   -1.1015   18.2975 C.3       3 GLC5        0.0000 
     47 CA         22.7750   -2.5500   17.0050 C.3       9 GLL5        0.0000 
     48 CA         24.3300   -3.8275   16.3840 C.3       3 GLC5        0.0000 
     49 CA         26.2440    6.1513   16.2620 C.3       3 GLC5        0.0000 
     50 CA         25.6600    5.0310   17.3760 C.3       9 GLL5        0.0000 
     51 CA         26.9600    6.8230   14.5570 C.3       6 GLP5        0.0000 
     52 CA         26.9170    4.2323   18.6125 C.3       3 GLC5        0.0000 
     53 CA         28.3060    2.9850   19.2580 C.3       6 GLP5        0.0000 
     54 CA         25.8760    5.7445   15.0847 C.3       3 GLC5        0.0000 
     55 CA         25.6683    2.6320   13.7755 C.3       3 GLC5        0.0000 
     56 CA         25.0000    4.1190   14.9340 C.3       9 GLL5        0.0000 
     57 CA         26.7320    1.9530   12.4910 C.3       6 GLP5        0.0000 
     58 CA         26.1480    1.1181   14.1724 C.3       3 GLC5        0.0000 
     59 CA         26.0520    0.8470   15.8780 C.3       9 GLL5        0.0000 
     60 CA         22.8715   -5.0880   16.9420 C.3       3 GLC5        0.0000 
     61 CA         21.8190   -3.2500   16.3260 C.3       9 GLL5        0.0000 
@<TRIPOS>BOND
@<TRIPOS>SUBSTRUCTURE
     1 ALC1        1 GROUP        1 X    ALC  0     ROOT ALC X 1
     2 SEC2        9 GROUP        1 X    SEC  0     **** SEC X 2
     3 GLC5        6 GROUP        1 X    GLC  0     **** GLC X 6
     4 ALP1        3 GROUP        1 Y    ALP  0     ROOT ALP Y 8
     5 SEP2       11 GROUP        1 Y    SEP  0     **** SEP Y 9
     6 GLP5        8 GROUP        1 Y    GLP  0     **** GLP Y 13
     7 ALL1        2 GROUP        1 Z    ALL  0     ROOT ALL Z 15
     8 SEL2       10 GROUP        1 Z    SEL  0     **** SEL Z 16
     9 GLL5        7 GROUP        1 Z    GLL  0     **** GLL Z 20
@<TRIPOS>SET

