#    Name: 1nv9_SAH_1_ligand
#    Modification time : Mon Mar 24 18:57:17 2014

@<TRIPOS>MOLECULE
1nv9_SAH_1_ligand
   46    48     1     0     0
SMALL
NO_CHARGES


@<TRIPOS>ATOM
      1 N          24.1460    5.6400   19.2360 N.4       1 SAH300      0.0000 
      2 CA         25.3960    5.9280   18.5580 C.3       1 SAH300      0.0000 
      3 CB         25.6600    5.0310   17.3760 C.3       1 SAH300      0.0000 
      4 CG         24.5840    5.2130   16.2910 C.3       1 SAH300      0.0000 
      5 SD         25.0000    4.1190   14.9340 S.3       1 SAH300      0.0000 
      6 C          25.2790    7.3620   18.1000 C.2       1 SAH300      0.0000 
      7 O          26.3000    7.8620   17.6430 O.co2     1 SAH300      0.0000 
      8 OXT        24.1080    7.7720   18.2620 O.co2     1 SAH300      0.0000 
      9 C5'        24.2090    2.5030   15.1860 C.3       1 SAH300      0.0000 
     10 C4'        24.7440    1.5340   16.2710 C.3       1 SAH300      0.0000 
     11 O4'        23.8220    0.4660   16.3610 O.3       1 SAH300      0.0000 
     12 C3'        26.0520    0.8470   15.8780 C.3       1 SAH300      0.0000 
     13 O3'        27.0770    0.9720   16.8240 O.3       1 SAH300      0.0000 
     14 C2'        25.7300   -0.6240   15.6330 C.3       1 SAH300      0.0000 
     15 O2'        26.7080   -1.4680   16.1820 O.3       1 SAH300      0.0000 
     16 C1'        24.4730   -0.7960   16.4680 C.3       1 SAH300      0.0000 
     17 N9         23.4140   -1.7500   16.1140 N.pl3     1 SAH300      0.0000 
     18 C8         22.8140   -1.9170   14.9040 C.2       1 SAH300      0.0000 
     19 N7         21.8480   -2.8500   15.0310 N.2       1 SAH300      0.0000 
     20 C5         21.8190   -3.2500   16.3260 C.ar      1 SAH300      0.0000 
     21 C6         20.9850   -4.0900   17.0400 C.ar      1 SAH300      0.0000 
     22 N6         20.0100   -4.7910   16.4990 N.pl3     1 SAH300      0.0000 
     23 N1         21.1870   -4.2270   18.3520 N.ar      1 SAH300      0.0000 
     24 C2         22.1510   -3.5240   19.0110 C.ar      1 SAH300      0.0000 
     25 N3         22.9290   -2.6900   18.3280 N.ar      1 SAH300      0.0000 
     26 C4         22.7750   -2.5500   17.0050 C.ar      1 SAH300      0.0000 
     27 H          26.2197    5.8736   19.2500 H         1 SAH300      0.0000 
     28 H          25.6610    3.9874   17.6945 H         1 SAH300      0.0000 
     29 H          26.6342    5.2636   16.9434 H         1 SAH300      0.0000 
     30 H          24.6002    6.1640   15.8459 H         1 SAH300      0.0000 
     31 H          23.6345    4.8767   16.5877 H         1 SAH300      0.0000 
     32 H          24.2543    2.0626   14.1739 H         1 SAH300      0.0000 
     33 H          23.1556    2.7856   15.3614 H         1 SAH300      0.0000 
     34 H          24.8592    2.0348   17.1820 H         1 SAH300      0.0000 
     35 H          26.3454    1.2582   14.9015 H         1 SAH300      0.0000 
     36 H          25.4978   -0.7748   14.6392 H         1 SAH300      0.0000 
     37 H          24.7585   -0.9164   17.5134 H         1 SAH300      0.0000 
     38 H          23.0454   -1.4447   14.0962 H         1 SAH300      0.0000 
     39 H          19.4725   -5.3544   17.1265 H         1 SAH300      0.0000 
     40 H          19.8960   -4.6960   15.5101 H         1 SAH300      0.0000 
     41 H          22.2642   -3.6493   20.0355 H         1 SAH300      0.0000 
     42 H          23.3860    6.1650   18.8527 H         1 SAH300      0.0000 
     43 H          23.8995    4.6734   19.1656 H         1 SAH300      0.0000 
     44 H          24.1926    5.8604   20.2103 H         1 SAH300      0.0000 
     45 H          26.6310    0.8346   17.7084 H         1 SAH300      0.0000 
     46 H          27.1357   -0.9300   16.9085 H         1 SAH300      0.0000 
@<TRIPOS>BOND
     1    2    1 1    
     2   42    1 1    
     3   43    1 1    
     4   44    1 1    
     5    3    2 1    
     6    6    2 1    
     7   27    2 1    
     8    4    3 1    
     9   28    3 1    
    10   29    3 1    
    11    5    4 1    
    12   30    4 1    
    13   31    4 1    
    14    9    5 1    
    15    7    6 ar   
    16    8    6 ar   
    17   10    9 1    
    18   32    9 1    
    19   33    9 1    
    20   11   10 1    
    21   12   10 1    
    22   34   10 1    
    23   16   11 1    
    24   13   12 1    
    25   14   12 1    
    26   35   12 1    
    27   45   13 1    
    28   15   14 1    
    29   16   14 1    
    30   36   14 1    
    31   46   15 1    
    32   17   16 1    
    33   37   16 1    
    34   18   17 1    
    35   26   17 1    
    36   19   18 2    
    37   38   18 1    
    38   20   19 1    
    39   21   20 ar   
    40   26   20 ar   
    41   22   21 1    
    42   23   21 ar   
    43   39   22 1    
    44   40   22 1    
    45   24   23 ar   
    46   25   24 ar   
    47   41   24 1    
    48   26   25 ar   
@<TRIPOS>SUBSTRUCTURE
     1 SAH300      1 GROUP   
@<TRIPOS>SET

