#    Name: 3rvh_HQ2_2_INTS_M
#    Modification time : Tue Mar 25 12:03:42 2014

@<TRIPOS>MOLECULE
3rvh_HQ2_2_INTS_M
   42     0    12     0     0
SMALL
NO_CHARGES


@<TRIPOS>ATOM
      1 OD1       -46.7735  -60.4145    5.5860 O.co2     2 ASC3        0.0000 
      2 OD1       -47.3200  -59.2570    6.7000 O.co2    10 ASL3        0.0000 
      3 OD1       -46.2270  -61.5720    4.4720 O.co2     6 ASP3        0.0000 
      4 OD1       -47.6020  -60.5010    6.2950 O.co2     2 ASC3        0.0000 
      5 OD1       -47.8840  -61.7450    5.8900 O.co2     6 ASP3        0.0000 
      6 CA        -42.9115  -56.8785    7.4200 C.3       4 GLC5        0.0000 
      7 CA        -42.9810  -57.0910    5.4680 C.3      12 GLL5        0.0000 
      8 CA        -42.8420  -56.6660    9.3720 C.3       8 GLP5        0.0000 
      9 CA        -47.7220  -56.5250    3.4755 C.3       4 GLC5        0.0000 
     10 CA        -46.5970  -57.6000    5.0050 C.3      12 GLL5        0.0000 
     11 CA        -48.8470  -55.4500    1.9460 C.3       8 GLP5        0.0000 
     12 CA        -46.1065  -58.5840    3.4690 C.3       4 GLC5        0.0000 
     13 CA        -45.6160  -59.5680    1.9330 C.3       8 GLP5        0.0000 
     14 CA        -49.7625  -57.9425    6.1475 C.3       4 GLC5        0.0000 
     15 CA        -47.5950  -57.9280    6.1300 C.3      12 GLL5        0.0000 
     16 CA        -51.9300  -57.9570    6.1650 C.3       8 GLP5        0.0000 
     17 CA        -45.2610  -59.2820    3.9990 C.3       4 GLC5        0.0000 
     18 CA        -44.9060  -58.9960    6.0650 C.3      12 GLL5        0.0000 
     19 N         -38.9415  -54.3345    4.2515 N.am      1 SEC2        0.0000 
     20 N         -39.7040  -55.3750    3.7900 N.am      9 SEL2        0.0000 
     21 N         -38.1790  -53.2940    4.7130 N.am      5 SEP2        0.0000 
     22 NZ        -44.8945  -54.3120   -1.3305 N.4       3 LYC4        0.0000 
     23 NZ        -44.4710  -54.7420   -0.1730 N.4      11 LYL4        0.0000 
     24 NZ        -45.3180  -53.8820   -2.4880 N.4       7 LYP4        0.0000 
     25 N         -44.8945  -54.3120   -1.3305 N.am      1 SEC2        0.0000 
     26 N         -44.4710  -54.7420   -0.1730 N.am      9 SEL2        0.0000 
     27 N         -45.3180  -53.8820   -2.4880 N.am      5 SEP2        0.0000 
     28 CA        -39.7417  -53.4945    3.3945 C.3       4 GLC5        0.0000 
     29 CA        -40.9620  -54.5870    1.9520 C.3      12 GLL5        0.0000 
     30 CA        -38.5560  -52.0630    4.2360 C.3       8 GLP5        0.0000 
     31 CA        -43.8192  -53.7515    2.9260 C.3       4 GLC5        0.0000 
     32 CA        -42.1780  -54.4750    1.3040 C.3      12 GLL5        0.0000 
     33 CA        -44.8810  -52.7490    4.2840 C.3       8 GLP5        0.0000 
     34 CA        -43.7758  -54.2760    3.8315 C.3       4 GLC5        0.0000 
     35 CA        -43.2920  -55.7550    3.0500 C.3      12 GLL5        0.0000 
     36 CA        -44.6043  -54.7203    4.2807 C.3       4 GLC5        0.0000 
     37 CA        -44.4100  -56.3530    3.6660 C.3      12 GLL5        0.0000 
     38 CA        -48.3630  -58.6610    4.1593 C.3       4 GLC5        0.0000 
     39 CA        -49.6300  -59.5580    2.7510 C.3       8 GLP5        0.0000 
     40 CA        -44.0012  -58.6587    8.1965 C.3       4 GLC5        0.0000 
     41 CA        -45.9210  -59.4030    7.1670 C.3      12 GLL5        0.0000 
     42 CA        -42.5890  -58.1180    9.7770 C.3       8 GLP5        0.0000 
@<TRIPOS>BOND
@<TRIPOS>SUBSTRUCTURE
     1 SEC2       19 GROUP        1 X    SEC  0     ROOT SEC X 2
     2 ASC3        1 GROUP        1 X    ASC  0     **** ASC X 3
     3 LYC4       22 GROUP        1 X    LYC  0     **** LYC X 4
     4 GLC5        6 GROUP        1 X    GLC  0     **** GLC X 6
     5 SEP2       21 GROUP        1 Y    SEP  0     ROOT SEP Y 9
     6 ASP3        3 GROUP        1 Y    ASP  0     **** ASP Y 10
     7 LYP4       24 GROUP        1 Y    LYP  0     **** LYP Y 11
     8 GLP5        8 GROUP        1 Y    GLP  0     **** GLP Y 13
     9 SEL2       20 GROUP        1 Z    SEL  0     ROOT SEL Z 16
    10 ASL3        2 GROUP        1 Z    ASL  0     **** ASL Z 17
    11 LYL4       23 GROUP        1 Z    LYL  0     **** LYL Z 18
    12 GLL5        7 GROUP        1 Z    GLL  0     **** GLL Z 20
@<TRIPOS>SET

