#    Name: 3rvh_HQ2_2_ligand
#    Modification time : Tue Mar 25 12:03:42 2014

@<TRIPOS>MOLECULE
3rvh_HQ2_2_ligand
   33    35     1     0     0
SMALL
NO_CHARGES


@<TRIPOS>ATOM
      1 NAA       -41.9610  -56.5210    4.8810 N.ar      1 HQ2503      0.0000 
      2 NAB       -45.2410  -57.6370    5.5760 N.3       1 HQ2503      0.0000 
      3 NAC       -47.3200  -59.2570    6.7000 N.4       1 HQ2503      0.0000 
      4 CAD       -40.9620  -54.5870    1.9520 C.ar      1 HQ2503      0.0000 
      5 CAE       -42.1780  -54.4750    1.3040 C.ar      1 HQ2503      0.0000 
      6 CAF       -43.3370  -55.0330    1.8320 C.ar      1 HQ2503      0.0000 
      7 CAG       -43.2920  -55.7550    3.0500 C.ar      1 HQ2503      0.0000 
      8 CAH       -42.0490  -55.8510    3.7080 C.ar      1 HQ2503      0.0000 
      9 CAI       -40.8930  -55.2650    3.1540 C.ar      1 HQ2503      0.0000 
     10 CAJ       -44.4100  -56.3530    3.6660 C.ar      1 HQ2503      0.0000 
     11 CAK       -44.2450  -57.0300    4.8890 C.ar      1 HQ2503      0.0000 
     12 CAL       -42.9810  -57.0910    5.4680 C.ar      1 HQ2503      0.0000 
     13 CAM       -44.6440  -54.8960    1.0570 C.2       1 HQ2503      0.0000 
     14 CAN       -46.5970  -57.6000    5.0050 C.3       1 HQ2503      0.0000 
     15 CAO       -47.5950  -57.9280    6.1300 C.3       1 HQ2503      0.0000 
     16 CAP       -45.9210  -59.4030    7.1670 C.3       1 HQ2503      0.0000 
     17 CAQ       -44.9060  -58.9960    6.0650 C.3       1 HQ2503      0.0000 
     18 OAR       -39.7040  -55.3750    3.7900 O.3       1 HQ2503      0.0000 
     19 OAS       -44.4710  -54.7420   -0.1730 O.co2     1 HQ2503      0.0000 
     20 OAT       -45.7640  -54.9480    1.6260 O.co2     1 HQ2503      0.0000 
     21 H         -40.1171  -54.1697    1.5432 H         1 HQ2503      0.0000 
     22 H         -42.2308  -53.9622    0.4005 H         1 HQ2503      0.0000 
     23 H         -45.3279  -56.2953    3.2297 H         1 HQ2503      0.0000 
     24 H         -42.8861  -57.6018    6.3733 H         1 HQ2503      0.0000 
     25 H         -46.7103  -58.3393    4.2228 H         1 HQ2503      0.0000 
     26 H         -46.8301  -56.6163    4.6189 H         1 HQ2503      0.0000 
     27 H         -47.5105  -57.1520    6.8960 H         1 HQ2503      0.0000 
     28 H         -48.6045  -57.8865    5.7113 H         1 HQ2503      0.0000 
     29 H         -45.7137  -60.4405    7.4477 H         1 HQ2503      0.0000 
     30 H         -45.7378  -58.7713    8.0420 H         1 HQ2503      0.0000 
     31 H         -43.9123  -59.0176    6.4977 H         1 HQ2503      0.0000 
     32 H         -44.9700  -59.7226    5.2631 H         1 HQ2503      0.0000 
     33 H         -39.5999  -56.3519    3.9767 H         1 HQ2503      0.0000 
@<TRIPOS>BOND
     1    8    1 ar   
     2   12    1 ar   
     3   11    2 1    
     4   14    2 1    
     5   17    2 1    
     6   15    3 1    
     7   16    3 1    
     8    5    4 ar   
     9    9    4 ar   
    10   21    4 1    
    11    6    5 ar   
    12   22    5 1    
    13    7    6 ar   
    14   13    6 1    
    15    8    7 ar   
    16   10    7 ar   
    17    9    8 ar   
    18   18    9 1    
    19   11   10 ar   
    20   23   10 1    
    21   12   11 ar   
    22   24   12 1    
    23   19   13 ar   
    24   20   13 ar   
    25   15   14 1    
    26   25   14 1    
    27   26   14 1    
    28   27   15 1    
    29   28   15 1    
    30   17   16 1    
    31   29   16 1    
    32   30   16 1    
    33   31   17 1    
    34   32   17 1    
    35   33   18 1    
@<TRIPOS>SUBSTRUCTURE
     1 HQ2503      1 GROUP   
@<TRIPOS>SET

