#    Name: 1tjp_HPF_1_INTS_M
#    Modification time : Tue Mar 25 05:21:43 2014

@<TRIPOS>MOLECULE
1tjp_HPF_1_INTS_M
   64     0     9     0     0
SMALL
NO_CHARGES


@<TRIPOS>ATOM
      1 CA         52.7860   23.1250   16.1455 C.3       3 GLC5        0.0000 
      2 CA         51.6320   24.1490   14.7880 C.3       9 GLL5        0.0000 
      3 CA         53.9400   22.1010   17.5030 C.3       6 GLP5        0.0000 
      4 CA         49.8080   22.0485   15.0955 C.3       3 GLC5        0.0000 
      5 CA         50.2200   24.1300   15.0820 C.3       9 GLL5        0.0000 
      6 CA         49.3960   19.9670   15.1090 C.3       6 GLP5        0.0000 
      7 CA         51.4950   26.6100   16.8840 C.3       3 GLC5        0.0000 
      8 CA         51.4380   26.6300   15.0600 C.3       9 GLL5        0.0000 
      9 CA         51.5520   26.5900   18.7080 C.3       6 GLP5        0.0000 
     10 O          52.9955   28.0055   14.2215 O.2       1 ALC1        0.0000 
     11 O          52.0340   27.8570   15.0600 O.2       7 ALL1        0.0000 
     12 O          53.9570   28.1540   13.3830 O.2       4 ALP1        0.0000 
     13 O          53.7750   27.7430   14.9865 O.2       1 ALC1        0.0000 
     14 O          55.5160   27.6290   14.9130 O.2       4 ALP1        0.0000 
     15 CA         48.4035   29.7395   15.6565 C.3       3 GLC5        0.0000 
     16 CA         48.1960   28.0580   14.6470 C.3       9 GLL5        0.0000 
     17 CA         48.6110   31.4210   16.6660 C.3       6 GLP5        0.0000 
     18 CA         46.0790   28.4030   14.6575 C.3       3 GLC5        0.0000 
     19 CA         43.9620   28.7480   14.6680 C.3       6 GLP5        0.0000 
     20 CA         48.9500   26.0225   12.3495 C.3       3 GLC5        0.0000 
     21 CA         48.5990   28.0510   13.1640 C.3       9 GLL5        0.0000 
     22 CA         49.3010   23.9940   11.5350 C.3       6 GLP5        0.0000 
     23 CA         47.8515   26.3580   11.4645 C.3       3 GLC5        0.0000 
     24 CA         47.4480   28.3470   12.2370 C.3       9 GLL5        0.0000 
     25 CA         48.2550   24.3690   10.6920 C.3       6 GLP5        0.0000 
     26 CA         45.7050   28.5475   13.4525 C.3       3 GLC5        0.0000 
     27 CA         47.4090   30.4400   12.4775 C.3       3 GLC5        0.0000 
     28 CA         47.3700   32.5330   12.7180 C.3       6 GLP5        0.0000 
     29 N          46.5405   31.0980   10.9510 N.am      2 SEC2        0.0000 
     30 N          46.8860   30.2140    9.8770 N.am      8 SEL2        0.0000 
     31 N          46.1950   31.9820   12.0250 N.am      5 SEP2        0.0000 
     32 N          47.8610   31.5280   10.3525 N.am      2 SEC2        0.0000 
     33 N          48.8360   32.8420   10.8280 N.am      5 SEP2        0.0000 
     34 N          49.1540   31.5195   10.7205 N.am      2 SEC2        0.0000 
     35 N          49.4720   30.1970   10.6130 N.am      8 SEL2        0.0000 
     36 N          50.2990   30.9635    9.9660 N.am      2 SEC2        0.0000 
     37 N          51.1260   31.7300    9.3190 N.am      5 SEP2        0.0000 
     38 N          49.8905   28.7555    8.0785 N.am      2 SEC2        0.0000 
     39 N          48.5940   28.7010    8.6560 N.am      8 SEL2        0.0000 
     40 N          51.1870   28.8100    7.5010 N.am      5 SEP2        0.0000 
     41 N          47.6145   28.1925    7.8100 N.am      2 SEC2        0.0000 
     42 N          46.6350   27.6840    6.9640 N.am      5 SEP2        0.0000 
     43 N          46.7915   26.1410   14.0845 N.am      2 SEC2        0.0000 
     44 N          47.1100   27.1640   14.8710 N.am      8 SEL2        0.0000 
     45 N          46.4730   25.1180   13.2980 N.am      5 SEP2        0.0000 
     46 O          46.6325   27.4305   16.0440 O.2       1 ALC1        0.0000 
     47 O          47.1100   27.1640   14.8710 O.2       7 ALL1        0.0000 
     48 O          46.1550   27.6970   17.2170 O.2       4 ALP1        0.0000 
     49 O          47.6620   27.3330   16.3975 O.2       1 ALC1        0.0000 
     50 O          48.2140   27.5020   17.9240 O.2       4 ALP1        0.0000 
     51 CA         53.4827   23.8230   14.1320 C.3       3 GLC5        0.0000 
     52 CA         52.2250   25.4770   14.7920 C.3       9 GLL5        0.0000 
     53 CA         55.0370   22.8330   13.4740 C.3       6 GLP5        0.0000 
     54 CA         51.4853   25.0035   16.6925 C.3       3 GLC5        0.0000 
     55 CA         51.0420   25.1940   18.5950 C.3       6 GLP5        0.0000 
     56 CA         51.7443   25.8540   13.1940 C.3       3 GLC5        0.0000 
     57 CA         51.5600   26.8950   11.5980 C.3       6 GLP5        0.0000 
     58 CA         48.9395   23.6193   16.6995 C.3       3 GLC5        0.0000 
     59 CA         49.4300   25.2790   15.3400 C.3       9 GLL5        0.0000 
     60 CA         48.0540   22.5340   18.1880 C.3       6 GLP5        0.0000 
     61 CA         50.4977   25.4041   16.9295 C.3       3 GLC5        0.0000 
     62 CA         51.1600   26.7360   13.3933 C.3       3 GLC5        0.0000 
     63 CA         50.0820   26.5240   15.3170 C.3       9 GLL5        0.0000 
     64 CA         49.7918   27.5470   12.1493 C.3       3 GLC5        0.0000 
@<TRIPOS>BOND
@<TRIPOS>SUBSTRUCTURE
     1 ALC1       10 GROUP        1 X    ALC  0     ROOT ALC X 1
     2 SEC2       29 GROUP        1 X    SEC  0     **** SEC X 2
     3 GLC5        1 GROUP        1 X    GLC  0     **** GLC X 6
     4 ALP1       12 GROUP        1 Y    ALP  0     ROOT ALP Y 8
     5 SEP2       31 GROUP        1 Y    SEP  0     **** SEP Y 9
     6 GLP5        3 GROUP        1 Y    GLP  0     **** GLP Y 13
     7 ALL1       11 GROUP        1 Z    ALL  0     ROOT ALL Z 15
     8 SEL2       30 GROUP        1 Z    SEL  0     **** SEL Z 16
     9 GLL5        2 GROUP        1 Z    GLL  0     **** GLL Z 20
@<TRIPOS>SET

