#    Name: 1tjp_HPF_1_ligand
#    Modification time : Tue Mar 25 05:21:43 2014

@<TRIPOS>MOLECULE
1tjp_HPF_1_ligand
   30    30     1     0     0
SMALL
NO_CHARGES


@<TRIPOS>ATOM
      1 C1         52.2250   25.4770   14.7920 C.ar      1 HPF1001     0.0000 
      2 C2         51.6320   24.1490   14.7880 C.ar      1 HPF1001     0.0000 
      3 C3         50.2200   24.1300   15.0820 C.ar      1 HPF1001     0.0000 
      4 C4         49.4300   25.2790   15.3400 C.ar      1 HPF1001     0.0000 
      5 C5         50.0820   26.5240   15.3170 C.ar      1 HPF1001     0.0000 
      6 C6         51.4380   26.6300   15.0600 C.ar      1 HPF1001     0.0000 
      7 O7         52.0340   27.8570   15.0600 O.3       1 HPF1001     0.0000 
      8 N8         49.3050   27.7450   15.5810 N.pl3     1 HPF1001     0.0000 
      9 C9         48.1960   28.0580   14.6470 C.3       1 HPF1001     0.0000 
     10 C10        48.5990   28.0510   13.1640 C.3       1 HPF1001     0.0000 
     11 C11        47.4480   28.3470   12.2370 C.3       1 HPF1001     0.0000 
     12 O12        47.9160   28.0600   10.8770 O.3       1 HPF1001     0.0000 
     13 P13        48.2440   29.3420    9.9520 P.3       1 HPF1001     0.0000 
     14 O14        46.8860   30.2140    9.8770 O.co2     1 HPF1001     0.0000 
     15 O15        49.4720   30.1970   10.6130 O.co2     1 HPF1001     0.0000 
     16 O16        48.5940   28.7010    8.6560 O.co2     1 HPF1001     0.0000 
     17 O17        47.1100   27.1640   14.8710 O.3       1 HPF1001     0.0000 
     18 O18        49.5380   29.1630   13.0860 O.3       1 HPF1001     0.0000 
     19 H          53.2223   25.5675   14.5978 H         1 HPF1001     0.0000 
     20 H          52.1459   23.3502   14.6032 H         1 HPF1001     0.0000 
     21 H          49.7507   23.1903   15.1045 H         1 HPF1001     0.0000 
     22 H          48.4502   25.2006   15.5298 H         1 HPF1001     0.0000 
     23 H          49.5068   28.3298   16.3393 H         1 HPF1001     0.0000 
     24 H          47.8495   29.0940   14.8700 H         1 HPF1001     0.0000 
     25 H          49.0713   27.1489   12.9329 H         1 HPF1001     0.0000 
     26 H          47.1707   29.3874   12.3364 H         1 HPF1001     0.0000 
     27 H          46.6110   27.7138   12.4970 H         1 HPF1001     0.0000 
     28 H          52.9756   27.6872   14.7694 H         1 HPF1001     0.0000 
     29 H          47.0765   27.0410   15.8628 H         1 HPF1001     0.0000 
     30 H          49.4455   29.5148   12.1545 H         1 HPF1001     0.0000 
@<TRIPOS>BOND
     1    2    1 ar   
     2    6    1 ar   
     3   19    1 1    
     4    3    2 ar   
     5   20    2 1    
     6    4    3 ar   
     7   21    3 1    
     8    5    4 ar   
     9   22    4 1    
    10    6    5 ar   
    11    8    5 1    
    12    7    6 1    
    13   28    7 1    
    14    9    8 1    
    15   23    8 1    
    16   10    9 1    
    17   17    9 1    
    18   24    9 1    
    19   11   10 1    
    20   18   10 1    
    21   25   10 1    
    22   12   11 1    
    23   26   11 1    
    24   27   11 1    
    25   13   12 1    
    26   14   13 ar   
    27   15   13 ar   
    28   16   13 ar   
    29   29   17 1    
    30   30   18 1    
@<TRIPOS>SUBSTRUCTURE
     1 HPF1001     1 GROUP   
@<TRIPOS>SET

