#    Name: 2etm_7PY_1_INTS_M
#    Modification time : Tue Mar 25 11:30:47 2014

@<TRIPOS>MOLECULE
2etm_7PY_1_INTS_M
   64     0     6     0     0
SMALL
NO_CHARGES


@<TRIPOS>ATOM
      1 CA         -1.3490   11.1835    9.7890 C.3       2 GLC5        0.0000 
      2 CA         -2.1680    9.6950    9.8970 C.3       6 GLL5        0.0000 
      3 CA         -0.5300   12.6720    9.6810 C.3       4 GLP5        0.0000 
      4 CA         -1.8065    9.5160    5.7495 C.3       2 GLC5        0.0000 
      5 CA         -1.9450   11.1990    7.0780 C.3       6 GLL5        0.0000 
      6 CA         -1.6680    7.8330    4.4210 C.3       4 GLP5        0.0000 
      7 CA         -5.5030   11.2445    7.3200 C.3       2 GLC5        0.0000 
      8 CA         -5.7650   11.4350    9.0900 C.3       6 GLL5        0.0000 
      9 CA         -5.2410   11.0540    5.5500 C.3       4 GLP5        0.0000 
     10 CA         -2.8595   14.2760    8.9555 C.3       2 GLC5        0.0000 
     11 CA         -3.5960   13.3200    7.7870 C.3       6 GLL5        0.0000 
     12 CA         -2.1230   15.2320   10.1240 C.3       4 GLP5        0.0000 
     13 CA         -3.8730   14.8235    8.8650 C.3       2 GLC5        0.0000 
     14 CA         -5.6230   14.4150    7.6060 C.3       6 GLL5        0.0000 
     15 CA         -5.4320   12.7345    6.5780 C.3       2 GLC5        0.0000 
     16 CA          0.3180   13.7125    4.6975 C.3       2 GLC5        0.0000 
     17 CA          0.0070   11.8000    5.0460 C.3       6 GLL5        0.0000 
     18 CA          0.6290   15.6250    4.3490 C.3       4 GLP5        0.0000 
     19 CA         -0.8815   11.7535    3.0655 C.3       2 GLC5        0.0000 
     20 CA         -1.7700   11.7070    1.0850 C.3       4 GLP5        0.0000 
     21 CA          0.1315   10.2100    4.0555 C.3       2 GLC5        0.0000 
     22 CA          0.2560    8.6200    3.0650 C.3       4 GLP5        0.0000 
     23 N           0.2310   12.9050    2.7640 N.am      1 SEC2        0.0000 
     24 N           0.8410   12.1350    3.9710 N.am      5 SEL2        0.0000 
     25 N          -0.3790   13.6750    1.5570 N.am      3 SEP2        0.0000 
     26 CA          1.8685   13.2175    2.6765 C.3       2 GLC5        0.0000 
     27 CA          2.0830   11.5070    3.8030 C.3       6 GLL5        0.0000 
     28 CA          1.6540   14.9280    1.5500 C.3       4 GLP5        0.0000 
     29 CA          5.3420   10.2805    3.8990 C.3       2 GLC5        0.0000 
     30 CA          3.5960    9.8050    4.8490 C.3       6 GLL5        0.0000 
     31 CA          7.0880   10.7560    2.9490 C.3       4 GLP5        0.0000 
     32 CA          3.8605   10.2875    7.6730 C.3       2 GLC5        0.0000 
     33 CA          3.4930    9.0320    5.9230 C.3       6 GLL5        0.0000 
     34 CA          4.2280   11.5430    9.4230 C.3       4 GLP5        0.0000 
     35 CA          5.0925    7.9940    6.7690 C.3       2 GLC5        0.0000 
     36 CA          6.6920    6.9560    7.6150 C.3       4 GLP5        0.0000 
     37 CA          0.6935    9.6185   11.8185 C.3       2 GLC5        0.0000 
     38 CA          1.1180    8.8360    9.9580 C.3       6 GLL5        0.0000 
     39 CA          0.2690   10.4010   13.6790 C.3       4 GLP5        0.0000 
     40 CA          4.7815    7.1155    8.5440 C.3       2 GLC5        0.0000 
     41 CA          2.8710    7.2750    9.4730 C.3       6 GLL5        0.0000 
     42 CA         -3.8152   11.0913    6.5797 C.3       2 GLC5        0.0000 
     43 CA         -2.8340   11.0580    8.1410 C.3       6 GLL5        0.0000 
     44 CA         -1.7766   12.1494    8.8679 C.3       2 GLC5        0.0000 
     45 CA         -4.4337   11.8883    6.8468 C.3       2 GLC5        0.0000 
     46 CA         -3.6570   12.1250    8.5000 C.3       6 GLL5        0.0000 
     47 CA         -1.4198   12.7925    8.1040 C.3       2 GLC5        0.0000 
     48 CA         -2.7260   13.4410    6.7070 C.3       6 GLL5        0.0000 
     49 CA         -3.7752   11.9835    6.0385 C.3       2 GLC5        0.0000 
     50 CA         -1.8930   12.3850    6.3470 C.3       6 GLL5        0.0000 
     51 CA          1.1705    9.7793    3.7959 C.3       2 GLC5        0.0000 
     52 CA          3.5818   11.9134    5.0744 C.3       2 GLC5        0.0000 
     53 CA          1.6750   10.1960    5.7850 C.3       6 GLL5        0.0000 
     54 CA          4.3230   13.4550    5.4610 C.3       4 GLP5        0.0000 
     55 CA          1.9002    9.0192    4.2255 C.3       2 GLC5        0.0000 
     56 CA          2.9467   10.3230    8.8152 C.3       2 GLC5        0.0000 
     57 CA          2.1220    8.8530    7.7450 C.3       6 GLL5        0.0000 
     58 CA          0.3168   10.8833    9.4975 C.3       2 GLC5        0.0000 
     59 CA          1.2090    9.3530    8.6700 C.3       6 GLL5        0.0000 
     60 CA          3.7175    6.7828   11.4835 C.3       2 GLC5        0.0000 
     61 CA          1.9430    7.7940   10.3690 C.3       6 GLL5        0.0000 
     62 CA          5.0280    6.0310   13.0460 C.3       4 GLP5        0.0000 
     63 CA          3.4324    8.7815   10.4711 C.3       2 GLC5        0.0000 
     64 CA          4.6640    9.7680   11.1240 C.3       4 GLP5        0.0000 
@<TRIPOS>BOND
@<TRIPOS>SUBSTRUCTURE
     1 SEC2       23 GROUP        1 X    SEC  0     ROOT SEC X 2
     2 GLC5        1 GROUP        1 X    GLC  0     **** GLC X 6
     3 SEP2       25 GROUP        1 Y    SEP  0     ROOT SEP Y 9
     4 GLP5        3 GROUP        1 Y    GLP  0     **** GLP Y 13
     5 SEL2       24 GROUP        1 Z    SEL  0     ROOT SEL Z 16
     6 GLL5        2 GROUP        1 Z    GLL  0     **** GLL Z 20
@<TRIPOS>SET

