#    Name: 2etm_7PY_1_ligand
#    Modification time : Tue Mar 25 11:30:47 2014

@<TRIPOS>MOLECULE
2etm_7PY_1_ligand
   47    50     1     0     0
SMALL
NO_CHARGES


@<TRIPOS>ATOM
      1 CAX        -2.1680    9.6950    9.8970 C.3       1 7PY131      0.0000 
      2 OAW        -2.9920    9.8440    8.7380 O.3       1 7PY131      0.0000 
      3 CAS        -2.8340   11.0580    8.1410 C.ar      1 7PY131      0.0000 
      4 CAR        -1.9450   11.1990    7.0780 C.ar      1 7PY131      0.0000 
      5 CAT        -3.6570   12.1250    8.5000 C.ar      1 7PY131      0.0000 
      6 OAY        -4.5250   11.9940    9.5400 O.3       1 7PY131      0.0000 
      7 CAZ        -5.7650   11.4350    9.0900 C.3       1 7PY131      0.0000 
      8 CAU        -3.5960   13.3200    7.7870 C.ar      1 7PY131      0.0000 
      9 OBA        -4.3160   14.4020    8.1900 O.3       1 7PY131      0.0000 
     10 CBB        -5.6230   14.4150    7.6060 C.3       1 7PY131      0.0000 
     11 CAV        -2.7260   13.4410    6.7070 C.ar      1 7PY131      0.0000 
     12 CAF        -1.8930   12.3850    6.3470 C.ar      1 7PY131      0.0000 
     13 NAE        -0.9930   12.6100    5.3890 N.pl3     1 7PY131      0.0000 
     14 CAD         0.0070   11.8000    5.0460 C.ar      1 7PY131      0.0000 
     15 NAG         0.4280   10.8130    5.9470 N.ar      1 7PY131      0.0000 
     16 CAH         1.6750   10.1960    5.7850 C.ar      1 7PY131      0.0000 
     17 NAC         0.8410   12.1350    3.9710 N.ar      1 7PY131      0.0000 
     18 CAB         2.0830   11.5070    3.8030 C.ar      1 7PY131      0.0000 
     19 CAA         2.4990   10.5440    4.7160 C.ar      1 7PY131      0.0000 
     20 CAL         3.5960    9.8050    4.8490 C.2       1 7PY131      0.0000 
     21 CAK         3.4930    9.0320    5.9230 C.2       1 7PY131      0.0000 
     22 NAI         2.3180    9.2710    6.4960 N.pl3     1 7PY131      0.0000 
     23 CAJ         2.1220    8.8530    7.7450 C.ar      1 7PY131      0.0000 
     24 CAM         1.2090    9.3530    8.6700 C.ar      1 7PY131      0.0000 
     25 CAN         1.1180    8.8360    9.9580 C.ar      1 7PY131      0.0000 
     26 CAO         1.9430    7.7940   10.3690 C.ar      1 7PY131      0.0000 
     27 CAP         2.8710    7.2750    9.4730 C.ar      1 7PY131      0.0000 
     28 NAQ         2.9530    7.8090    8.1790 N.ar      1 7PY131      0.0000 
     29 H          -1.3183   10.4180    6.8286 H         1 7PY131      0.0000 
     30 H          -2.6981   14.3207    6.1686 H         1 7PY131      0.0000 
     31 H          -1.0849   13.5436    4.8358 H         1 7PY131      0.0000 
     32 H           2.6787   11.7602    3.0085 H         1 7PY131      0.0000 
     33 H           4.3686    9.8284    4.2411 H         1 7PY131      0.0000 
     34 H           4.1617    8.3993    6.2374 H         1 7PY131      0.0000 
     35 H           0.5802   10.1320    8.3903 H         1 7PY131      0.0000 
     36 H           0.4278    9.2314   10.6191 H         1 7PY131      0.0000 
     37 H           1.8679    7.4161   11.3148 H         1 7PY131      0.0000 
     38 H           3.4907    6.5105    9.7502 H         1 7PY131      0.0000 
     39 H          -1.1965    9.7789    9.6753 H         1 7PY131      0.0000 
     40 H          -2.3716   10.3876   10.5890 H         1 7PY131      0.0000 
     41 H          -2.2938    8.8024   10.3299 H         1 7PY131      0.0000 
     42 H          -5.6381   10.5318    8.6799 H         1 7PY131      0.0000 
     43 H          -6.4177   11.3274    9.8399 H         1 7PY131      0.0000 
     44 H          -6.2035   12.0111    8.4002 H         1 7PY131      0.0000 
     45 H          -5.5832   14.4473    6.6073 H         1 7PY131      0.0000 
     46 H          -6.1479   13.6003    7.8523 H         1 7PY131      0.0000 
     47 H          -6.1550   15.2076    7.9039 H         1 7PY131      0.0000 
@<TRIPOS>BOND
     1    2    1 1    
     2   39    1 1    
     3   40    1 1    
     4   41    1 1    
     5    3    2 1    
     6    4    3 ar   
     7    5    3 ar   
     8   12    4 ar   
     9   29    4 1    
    10    6    5 1    
    11    8    5 ar   
    12    7    6 1    
    13   42    7 1    
    14   43    7 1    
    15   44    7 1    
    16    9    8 1    
    17   11    8 ar   
    18   10    9 1    
    19   45   10 1    
    20   46   10 1    
    21   47   10 1    
    22   12   11 ar   
    23   30   11 1    
    24   13   12 1    
    25   14   13 1    
    26   31   13 1    
    27   15   14 ar   
    28   17   14 ar   
    29   16   15 ar   
    30   19   16 ar   
    31   22   16 1    
    32   18   17 ar   
    33   19   18 ar   
    34   32   18 1    
    35   20   19 1    
    36   21   20 2    
    37   33   20 1    
    38   22   21 1    
    39   34   21 1    
    40   23   22 1    
    41   24   23 ar   
    42   28   23 ar   
    43   25   24 ar   
    44   35   24 1    
    45   26   25 ar   
    46   36   25 1    
    47   27   26 ar   
    48   37   26 1    
    49   28   27 ar   
    50   38   27 1    
@<TRIPOS>SUBSTRUCTURE
     1 7PY131      1 GROUP   
@<TRIPOS>SET

