#    Name: 1D4P_1_CAVITY_N1_ALL.mol2
#    Modification time : Mon Mar 10 17:47:51 2014

@<TRIPOS>MOLECULE
1D4P_1_CAVITY_N1_ALL.mol2
  121     0     6     0     0
SMALL
NO_CHARGES


@<TRIPOS>ATOM
      1 N         -13.5059  -36.1661   26.2352 N.2       2 ALA2        0.0000 
      2 N         -12.7190  -36.2546   24.9613 N.2       2 ALA2        0.0000 
      3 OG        -11.9320  -36.3431   23.6873 O.2       1 SER1        0.0000 
      4 CA        -15.5350  -36.4779   26.7696 C.3       5 GLY6        0.0000 
      5 DU        -14.7481  -36.5664   25.4957 H         6 CUB7        0.0000 
      6 OG        -13.9611  -36.6549   24.2217 O.2       1 SER1        0.0000 
      7 DU        -16.7771  -36.8782   26.0301 H         6 CUB7        0.0000 
      8 OG        -15.2032  -37.0552   23.4822 O.2       1 SER1        0.0000 
      9 OG        -14.4163  -37.1436   22.2083 O.2       1 SER1        0.0000 
     10 CA        -18.0193  -37.2785   25.2906 C.3       5 GLY6        0.0000 
     11 DU        -17.2323  -37.3670   24.0166 H         6 CUB7        0.0000 
     12 DU        -16.4454  -37.4554   22.7427 H         6 CUB7        0.0000 
     13 N         -11.7732  -34.4114   25.4175 N.2       2 ALA2        0.0000 
     14 CA        -14.5892  -34.6348   27.2258 C.3       5 GLY6        0.0000 
     15 N         -13.8023  -34.7232   25.9519 N.2       2 ALA2        0.0000 
     16 N         -13.0153  -34.8117   24.6780 N.2       2 ALA2        0.0000 
     17 OG        -12.2283  -34.9002   23.4041 O.2       1 SER1        0.0000 
     18 CZ        -16.6183  -34.9466   27.7602 C.ar      4 PHE5        0.0000 
     19 CZ        -15.8313  -35.0350   26.4863 C.ar      4 PHE5        0.0000 
     20 DU        -15.0444  -35.1235   25.2124 H         6 CUB7        0.0000 
     21 OG        -14.2574  -35.2120   23.9385 O.2       1 SER1        0.0000 
     22 CZ        -17.0735  -35.4353   25.7468 C.ar      4 PHE5        0.0000 
     23 DU        -16.2865  -35.5238   24.4729 H         6 CUB7        0.0000 
     24 OG        -15.4996  -35.6123   23.1990 O.2       1 SER1        0.0000 
     25 N         -18.3156  -35.8356   25.0073 N.2       2 ALA2        0.0000 
     26 DU        -17.5287  -35.9241   23.7334 H         6 CUB7        0.0000 
     27 DU        -16.7417  -36.0125   22.4594 H         6 CUB7        0.0000 
     28 OG        -15.9547  -36.1010   21.1855 O.2       1 SER1        0.0000 
     29 N         -18.7708  -36.3243   22.9939 N.2       2 ALA2        0.0000 
     30 DU        -17.9838  -36.4128   21.7199 H         6 CUB7        0.0000 
     31 CZ        -17.1969  -36.5013   20.4460 C.ar      4 PHE5        0.0000 
     32 DU        -19.2260  -36.8131   20.9804 H         6 CUB7        0.0000 
     33 CZ        -18.4390  -36.9016   19.7065 C.ar      4 PHE5        0.0000 
     34 O         -22.0420  -37.0364   22.7887 O.2       2 ALA2        0.0000 
     35 N         -21.2550  -37.1249   21.5148 N.2       2 ALA2        0.0000 
     36 O         -23.2841  -37.4367   22.0492 O.2       2 ALA2        0.0000 
     37 DU        -22.4972  -37.5252   20.7753 H         6 CUB7        0.0000 
     38 DU        -23.7393  -37.9255   20.0358 H         6 CUB7        0.0000 
     39 N         -14.8855  -33.1919   26.9426 N.2       2 ALA2        0.0000 
     40 CA        -14.0986  -33.2803   25.6687 C.3       5 GLY6        0.0000 
     41 CZ        -16.1277  -33.5922   26.2031 C.ar      4 PHE5        0.0000 
     42 CA        -15.3407  -33.6806   24.9291 C.3       5 GLY6        0.0000 
     43 CA        -14.5538  -33.7691   23.6552 C.3       5 GLY6        0.0000 
     44 OG        -13.7668  -33.8576   22.3813 O.2       1 SER1        0.0000 
     45 CZ        -17.3698  -33.9924   25.4635 C.ar      4 PHE5        0.0000 
     46 CA        -16.5828  -34.0809   24.1896 C.3       5 GLY6        0.0000 
     47 CA        -15.7959  -34.1694   22.9157 C.3       5 GLY6        0.0000 
     48 OG        -15.0089  -34.2578   21.6418 O.2       1 SER1        0.0000 
     49 N         -18.6119  -34.3927   24.7240 N.2       2 ALA2        0.0000 
     50 CA        -17.8250  -34.4812   23.4501 C.3       5 GLY6        0.0000 
     51 DU        -17.0380  -34.5696   22.1762 H         6 CUB7        0.0000 
     52 DU        -16.2511  -34.6581   20.9023 H         6 CUB7        0.0000 
     53 CZ        -15.4641  -34.7466   19.6283 C.ar      4 PHE5        0.0000 
     54 N         -19.0671  -34.8815   22.7106 N.2       2 ALA2        0.0000 
     55 DU        -18.2802  -34.9699   21.4367 H         6 CUB7        0.0000 
     56 CZ        -17.4932  -35.0584   20.1627 C.ar      4 PHE5        0.0000 
     57 CZ        -16.7063  -35.1469   18.8888 C.ar      4 PHE5        0.0000 
     58 N         -20.3092  -35.2817   21.9711 N.2       2 ALA2        0.0000 
     59 DU        -19.5223  -35.3702   20.6972 H         6 CUB7        0.0000 
     60 CZ        -18.7353  -35.4587   19.4232 C.ar      4 PHE5        0.0000 
     61 N         -22.3383  -35.5935   22.5055 N.2       2 ALA2        0.0000 
     62 N         -21.5514  -35.6820   21.2316 N.2       2 ALA2        0.0000 
     63 DU        -20.7644  -35.7705   19.9576 H         6 CUB7        0.0000 
     64 CZ        -19.9775  -35.8589   18.6837 C.ar      4 PHE5        0.0000 
     65 N         -23.5805  -35.9938   21.7660 N.2       2 ALA2        0.0000 
     66 DU        -22.7935  -36.0823   20.4920 H         6 CUB7        0.0000 
     67 CA        -22.0066  -36.1708   19.2181 C.3       5 GLY6        0.0000 
     68 CA        -24.8226  -36.3941   21.0265 C.3       5 GLY6        0.0000 
     69 CA        -24.0356  -36.4826   19.7525 C.3       5 GLY6        0.0000 
     70 NZ        -23.2487  -36.5710   18.4786 N.2       3 LYS4        0.0000 
     71 CA        -15.3053  -32.8149   21.3585 C.3       5 GLY6        0.0000 
     72 CZ        -14.5183  -32.9034   20.0846 C.ar      4 PHE5        0.0000 
     73 CA        -17.3344  -33.1267   21.8929 C.3       5 GLY6        0.0000 
     74 CA        -16.5474  -33.2152   20.6190 C.3       5 GLY6        0.0000 
     75 CA        -15.7605  -33.3037   19.3451 C.3       5 GLY6        0.0000 
     76 CA        -19.3634  -33.4386   22.4273 C.3       5 GLY6        0.0000 
     77 DU        -18.5765  -33.5270   21.1534 H         6 CUB7        0.0000 
     78 N         -17.7895  -33.6155   19.8795 N.2       2 ALA2        0.0000 
     79 CZ        -17.0026  -33.7040   18.6056 C.ar      4 PHE5        0.0000 
     80 N         -20.6056  -33.8388   21.6878 N.2       2 ALA2        0.0000 
     81 DU        -19.8186  -33.9273   20.4139 H         6 CUB7        0.0000 
     82 CZ        -19.0317  -34.0158   19.1400 C.ar      4 PHE5        0.0000 
     83 CZ        -18.2447  -34.1042   17.8660 C.ar      4 PHE5        0.0000 
     84 N         -23.4216  -34.0622   23.4961 N.2       2 ALA2        0.0000 
     85 N         -22.6347  -34.1506   22.2222 N.2       2 ALA2        0.0000 
     86 DU        -21.8477  -34.2391   20.9483 H         6 CUB7        0.0000 
     87 DU        -21.0608  -34.3276   19.6744 H         6 CUB7        0.0000 
     88 CZ        -20.2738  -34.4160   18.4005 C.ar      4 PHE5        0.0000 
     89 CZ        -19.4869  -34.5045   17.1265 C.ar      4 PHE5        0.0000 
     90 N         -23.8768  -34.5509   21.4827 N.2       2 ALA2        0.0000 
     91 O         -23.0898  -34.6394   20.2088 O.2       2 ALA2        0.0000 
     92 CA        -22.3029  -34.7279   18.9349 C.3       5 GLY6        0.0000 
     93 O         -24.3320  -35.0397   19.4693 O.2       2 ALA2        0.0000 
     94 N         -17.6307  -31.6839   21.6097 N.2       2 ALA2        0.0000 
     95 N         -16.8437  -31.7723   20.3357 N.2       2 ALA2        0.0000 
     96 CA        -19.6598  -31.9957   22.1441 C.3       5 GLY6        0.0000 
     97 N         -18.8728  -32.0841   20.8702 N.2       2 ALA2        0.0000 
     98 N         -18.0859  -32.1726   19.5962 N.2       2 ALA2        0.0000 
     99 O         -21.6889  -32.3075   22.6785 O.2       2 ALA2        0.0000 
    100 CA        -20.9019  -32.3959   21.4046 C.3       5 GLY6        0.0000 
    101 N         -20.1150  -32.4844   20.1306 N.2       2 ALA2        0.0000 
    102 N         -19.3280  -32.5729   18.8567 N.2       2 ALA2        0.0000 
    103 N         -18.5411  -32.6613   17.5828 N.2       2 ALA2        0.0000 
    104 O         -23.7179  -32.6193   23.2129 O.2       2 ALA2        0.0000 
    105 O         -22.9310  -32.7077   21.9390 O.2       2 ALA2        0.0000 
    106 O         -22.1440  -32.7962   20.6650 O.2       2 ALA2        0.0000 
    107 CA        -21.3571  -32.8847   19.3911 C.3       5 GLY6        0.0000 
    108 CA        -20.5701  -32.9732   18.1172 C.3       5 GLY6        0.0000 
    109 O         -24.1731  -33.1080   21.1994 O.2       2 ALA2        0.0000 
    110 N         -22.7721  -30.7761   23.6691 N.2       2 ALA2        0.0000 
    111 CA        -21.9852  -30.8646   22.3952 C.3       5 GLY6        0.0000 
    112 N         -21.1982  -30.9530   21.1213 N.2       2 ALA2        0.0000 
    113 CA        -20.4113  -31.0415   19.8474 C.3       5 GLY6        0.0000 
    114 N         -24.0143  -31.1764   22.9296 N.2       2 ALA2        0.0000 
    115 N         -23.2273  -31.2648   21.6557 N.2       2 ALA2        0.0000 
    116 N         -22.4404  -31.3533   20.3818 N.2       2 ALA2        0.0000 
    117 CA        -21.6534  -31.4418   19.1079 C.3       5 GLY6        0.0000 
    118 OG        -20.8665  -31.5303   17.8339 O.2       1 SER1        0.0000 
    119 CA        -23.0685  -29.3332   23.3859 C.3       5 GLY6        0.0000 
    120 CA        -22.2815  -29.4217   22.1120 C.3       5 GLY6        0.0000 
    121 CA        -23.5237  -29.8219   21.3724 C.3       5 GLY6        0.0000 
@<TRIPOS>BOND
@<TRIPOS>SUBSTRUCTURE
     1 SER1        3 GROUP   
     2 ALA2        1 GROUP   
     3 LYS4       70 GROUP   
     4 PHE5       18 GROUP   
     5 GLY6        4 GROUP   
     6 CUB7        5 GROUP   
@<TRIPOS>SET

