#    Name: 1d4p_BPP_1_INTS_M
#    Modification time : Mon Mar 24 21:31:05 2014

@<TRIPOS>MOLECULE
1d4p_BPP_1_INTS_M
   55     0     6     0     0
SMALL
NO_CHARGES


@<TRIPOS>ATOM
      1 CA        -21.7035  -29.2855   20.2965 C.3       2 GLC5        0.0000 
      2 CA        -22.6540  -30.5500   21.5620 C.3       6 GLL5        0.0000 
      3 CA        -20.7530  -28.0210   19.0310 C.3       4 GLP5        0.0000 
      4 CA        -25.3325  -29.3360   22.5545 C.3       2 GLC5        0.0000 
      5 CA        -23.6720  -30.6180   22.5390 C.3       6 GLL5        0.0000 
      6 CA        -26.9930  -28.0540   22.5700 C.3       4 GLP5        0.0000 
      7 O         -26.4455  -30.5455   25.4160 O.2       1 ALC1        0.0000 
      8 O         -25.1220  -30.7030   24.8440 O.2       5 ALL1        0.0000 
      9 O         -27.7690  -30.3880   25.9880 O.2       3 ALP1        0.0000 
     10 O         -26.8365  -32.7355   25.2545 O.2       1 ALC1        0.0000 
     11 O         -25.7300  -32.8840   24.4660 O.2       5 ALL1        0.0000 
     12 O         -27.9430  -32.5870   26.0430 O.2       3 ALP1        0.0000 
     13 O         -25.5935  -34.2595   24.2550 O.2       1 ALC1        0.0000 
     14 O         -25.4570  -35.6350   24.0440 O.2       3 ALP1        0.0000 
     15 CA        -16.6330  -32.0350   18.8615 C.3       2 GLC5        0.0000 
     16 CA        -16.8530  -34.0600   19.3190 C.3       6 GLL5        0.0000 
     17 CA        -16.4130  -30.0100   18.4040 C.3       4 GLP5        0.0000 
     18 CA        -17.1020  -31.4530   19.8645 C.3       2 GLC5        0.0000 
     19 CA        -17.7910  -32.8960   21.3250 C.3       6 GLL5        0.0000 
     20 CA        -15.7080  -35.4785   28.3140 C.3       2 GLC5        0.0000 
     21 CA        -15.6990  -34.8010   26.3600 C.3       6 GLL5        0.0000 
     22 CA        -15.7170  -36.1560   30.2680 C.3       4 GLP5        0.0000 
     23 CA        -14.4075  -34.1950   28.5820 C.3       2 GLC5        0.0000 
     24 CA        -14.3740  -34.3200   26.4640 C.3       6 GLL5        0.0000 
     25 CA        -14.4410  -34.0700   30.7000 C.3       4 GLP5        0.0000 
     26 CA        -25.3298  -31.5125   21.5645 C.3       2 GLC5        0.0000 
     27 CA        -26.8350  -31.7950   20.2670 C.3       4 GLP5        0.0000 
     28 CA        -21.4461  -31.7381   23.4631 C.3       2 GLC5        0.0000 
     29 CA        -23.9770  -31.8420   23.1850 C.3       6 GLL5        0.0000 
     30 CA        -19.9620  -30.7690   24.4900 C.3       4 GLP5        0.0000 
     31 CA        -22.5386  -33.0071   24.3221 C.3       2 GLC5        0.0000 
     32 CA        -22.2410  -32.9690   21.8570 C.3       6 GLL5        0.0000 
     33 CA        -22.1470  -33.3070   26.2080 C.3       4 GLP5        0.0000 
     34 CA        -23.3940  -28.6850   22.0187 C.3       2 GLC5        0.0000 
     35 CA        -23.6250  -26.7860   21.9870 C.3       4 GLP5        0.0000 
     36 CA        -21.5625  -30.6765   23.2702 C.3       2 GLC5        0.0000 
     37 CA        -14.6623  -35.1095   19.2473 C.3       2 GLC5        0.0000 
     38 CA        -12.7020  -35.5610   18.7340 C.3       4 GLP5        0.0000 
     39 CA        -17.0463  -35.7920   18.4243 C.3       2 GLC5        0.0000 
     40 CA        -16.3920  -35.2560   20.2020 C.3       6 GLL5        0.0000 
     41 CA        -17.4700  -36.9260   17.0880 C.3       4 GLP5        0.0000 
     42 CA        -14.1073  -35.2595   21.0540 C.3       2 GLC5        0.0000 
     43 CA        -16.1290  -34.7710   21.6280 C.3       6 GLL5        0.0000 
     44 CA        -12.2900  -35.1710   19.9940 C.3       4 GLP5        0.0000 
     45 CA        -18.1050  -32.4630   23.2760 C.3       2 GLC5        0.0000 
     46 CA        -17.3950  -34.0160   22.2270 C.3       6 GLL5        0.0000 
     47 CA        -18.6170  -31.4700   24.7760 C.3       4 GLP5        0.0000 
     48 CA        -16.1197  -32.2119   22.3076 C.3       2 GLC5        0.0000 
     49 CA        -14.9630  -30.7790   22.9890 C.3       4 GLP5        0.0000 
     50 CA        -12.7808  -33.3347   27.0433 C.3       2 GLC5        0.0000 
     51 CA        -13.4870  -34.3510   25.3550 C.3       6 GLL5        0.0000 
     52 CA        -11.6310  -32.3340   28.1770 C.3       4 GLP5        0.0000 
     53 CA        -13.7901  -32.7944   24.3999 C.3       2 GLC5        0.0000 
     54 CA        -13.9140  -34.8640   24.1260 C.3       6 GLL5        0.0000 
     55 CA        -13.6580  -30.9890   23.7820 C.3       4 GLP5        0.0000 
@<TRIPOS>BOND
@<TRIPOS>SUBSTRUCTURE
     1 ALC1        7 GROUP        1 X    ALC  0     ROOT ALC X 1
     2 GLC5        1 GROUP        1 X    GLC  0     **** GLC X 6
     3 ALP1        9 GROUP        1 Y    ALP  0     ROOT ALP Y 8
     4 GLP5        3 GROUP        1 Y    GLP  0     **** GLP Y 13
     5 ALL1        8 GROUP        1 Z    ALL  0     ROOT ALL Z 15
     6 GLL5        2 GROUP        1 Z    GLL  0     **** GLL Z 20
@<TRIPOS>SET

