#    Name: 1d4p_BPP_1_ligand
#    Modification time : Mon Mar 24 21:31:05 2014

@<TRIPOS>MOLECULE
1d4p_BPP_1_ligand
   52    55     1     0     0
SMALL
NO_CHARGES


@<TRIPOS>ATOM
      1 C1        -23.9770  -31.8420   23.1850 C.2       1 BPP400      0.0000 
      2 C2        -23.2620  -33.0490   22.8460 C.2       1 BPP400      0.0000 
      3 C3        -22.2410  -32.9690   21.8570 C.3       1 BPP400      0.0000 
      4 C4        -21.9390  -31.7360   21.2190 C.2       1 BPP400      0.0000 
      5 C5        -22.6540  -30.5500   21.5620 C.2       1 BPP400      0.0000 
      6 C6        -23.6720  -30.6180   22.5390 C.2       1 BPP400      0.0000 
      7 C10       -21.3610  -33.8910   21.3030 C.2       1 BPP400      0.0000 
      8 C11       -20.5500  -33.2420   20.3660 C.2       1 BPP400      0.0000 
      9 N12       -20.9500  -31.9310   20.3630 N.2       1 BPP400      0.0000 
     10 C13       -24.9870  -31.8380   24.1860 C.ar      1 BPP400      0.0000 
     11 N14       -25.1220  -30.7030   24.8440 N.pl3     1 BPP400      0.0000 
     12 N15       -25.7300  -32.8840   24.4660 N.pl3     1 BPP400      0.0000 
     13 C17       -19.4790  -33.7530   19.5580 C.2       1 BPP400      0.0000 
     14 O18       -19.6650  -34.3370   18.4800 O.2       1 BPP400      0.0000 
     15 N19       -18.0940  -33.5610   20.0610 N.am      1 BPP400      0.0000 
     16 C20       -16.8530  -34.0600   19.3190 C.3       1 BPP400      0.0000 
     17 C21       -16.3920  -35.2560   20.2020 C.3       1 BPP400      0.0000 
     18 C22       -16.1290  -34.7710   21.6280 C.3       1 BPP400      0.0000 
     19 C23       -17.3950  -34.0160   22.2270 C.3       1 BPP400      0.0000 
     20 C24       -17.7910  -32.8960   21.3250 C.3       1 BPP400      0.0000 
     21 C33       -15.7200  -35.9250   22.6000 C.3       1 BPP400      0.0000 
     22 C35       -15.2460  -35.3600   23.9730 C.ar      1 BPP400      0.0000 
     23 C38       -16.1300  -35.3170   25.1240 C.ar      1 BPP400      0.0000 
     24 C39       -15.6990  -34.8010   26.3600 C.ar      1 BPP400      0.0000 
     25 C40       -14.3740  -34.3200   26.4640 C.ar      1 BPP400      0.0000 
     26 C41       -13.4870  -34.3510   25.3550 C.ar      1 BPP400      0.0000 
     27 C42       -13.9140  -34.8640   24.1260 C.ar      1 BPP400      0.0000 
     28 H         -23.4843  -33.9133   23.2984 H         1 BPP400      0.0000 
     29 H         -23.1776  -33.2251   20.7868 H         1 BPP400      0.0000 
     30 H         -22.4298  -29.6735   21.1071 H         1 BPP400      0.0000 
     31 H         -24.1979  -29.7724   22.7852 H         1 BPP400      0.0000 
     32 H         -21.3136  -34.8165   21.5224 H         1 BPP400      0.0000 
     33 H         -25.7973  -30.6996   25.5816 H         1 BPP400      0.0000 
     34 H         -24.5368  -29.9490   24.5455 H         1 BPP400      0.0000 
     35 H         -26.4022  -32.7634   25.1965 H         1 BPP400      0.0000 
     36 H         -25.5557  -33.7055   23.9231 H         1 BPP400      0.0000 
     37 H         -16.1050  -33.3205   19.3214 H         1 BPP400      0.0000 
     38 H         -17.1173  -34.4165   18.3654 H         1 BPP400      0.0000 
     39 H         -15.4853  -35.6673   19.7822 H         1 BPP400      0.0000 
     40 H         -17.1723  -36.0035   20.2076 H         1 BPP400      0.0000 
     41 H         -15.3162  -34.0456   21.6182 H         1 BPP400      0.0000 
     42 H         -17.1165  -33.6503   23.2071 H         1 BPP400      0.0000 
     43 H         -18.1898  -34.7452   22.3187 H         1 BPP400      0.0000 
     44 H         -18.6589  -32.4051   21.7183 H         1 BPP400      0.0000 
     45 H         -16.9710  -32.2148   21.2136 H         1 BPP400      0.0000 
     46 H         -14.9125  -36.4904   22.1524 H         1 BPP400      0.0000 
     47 H         -16.5756  -36.5690   22.7589 H         1 BPP400      0.0000 
     48 H         -17.0848  -35.6748   25.0143 H         1 BPP400      0.0000 
     49 H         -16.3203  -34.7736   27.1569 H         1 BPP400      0.0000 
     50 H         -14.0421  -33.9388   27.3606 H         1 BPP400      0.0000 
     51 H         -12.5339  -33.9943   25.4655 H         1 BPP400      0.0000 
     52 H         -13.2797  -34.8904   23.3235 H         1 BPP400      0.0000 
@<TRIPOS>BOND
     1    2    1 2    
     2    6    1 1    
     3   10    1 1    
     4    3    2 1    
     5   28    2 1    
     6    4    3 1    
     7    7    3 1    
     8   29    3 1    
     9    5    4 1    
    10    9    4 2    
    11    6    5 2    
    12   30    5 1    
    13   31    6 1    
    14    8    7 2    
    15   32    7 1    
    16    9    8 1    
    17   13    8 1    
    18   11   10 ar   
    19   12   10 ar   
    20   33   11 1    
    21   34   11 1    
    22   35   12 1    
    23   36   12 1    
    24   14   13 2    
    25   15   13 am   
    26   16   15 1    
    27   20   15 1    
    28   17   16 1    
    29   37   16 1    
    30   38   16 1    
    31   18   17 1    
    32   39   17 1    
    33   40   17 1    
    34   19   18 1    
    35   21   18 1    
    36   41   18 1    
    37   20   19 1    
    38   42   19 1    
    39   43   19 1    
    40   44   20 1    
    41   45   20 1    
    42   22   21 1    
    43   46   21 1    
    44   47   21 1    
    45   23   22 ar   
    46   27   22 ar   
    47   24   23 ar   
    48   48   23 1    
    49   25   24 ar   
    50   49   24 1    
    51   26   25 ar   
    52   50   25 1    
    53   27   26 ar   
    54   51   26 1    
    55   52   27 1    
@<TRIPOS>SUBSTRUCTURE
     1 BPP400      1 GROUP   
@<TRIPOS>SET

