#    Name: 3kb1_ADP_1_INTS_M
#    Modification time : Mon Mar 24 19:05:10 2014

@<TRIPOS>MOLECULE
3kb1_ADP_1_INTS_M
   59     0    12     0     0
SMALL
NO_CHARGES


@<TRIPOS>ATOM
      1 NZ        -11.2955   -5.4465   14.5515 N.4       3 LYC4        0.0000 
      2 NZ        -10.2230   -5.9940   15.6160 N.4      11 LYL4        0.0000 
      3 NZ        -12.3680   -4.8990   13.4870 N.4       7 LYP4        0.0000 
      4 N          -9.0555   -6.3135   14.5695 N.am      2 SEC2        0.0000 
      5 N         -10.2230   -5.9940   15.6160 N.am     10 SEL2        0.0000 
      6 N          -7.8880   -6.6330   13.5230 N.am      6 SEP2        0.0000 
      7 N         -11.2955   -5.4465   14.5515 N.am      2 SEC2        0.0000 
      8 N         -12.3680   -4.8990   13.4870 N.am      6 SEP2        0.0000 
      9 N          -9.5615   -5.0065   14.8080 N.am      2 SEC2        0.0000 
     10 N          -8.9000   -4.0190   14.0000 N.am      6 SEP2        0.0000 
     11 N         -10.6550   -4.5910   15.6525 N.am      2 SEC2        0.0000 
     12 N         -11.0870   -3.1880   15.6890 N.am      6 SEP2        0.0000 
     13 N          -9.0340   -7.5295   14.3765 N.am      2 SEC2        0.0000 
     14 N         -10.1800   -8.4260   15.2300 N.am     10 SEL2        0.0000 
     15 N          -6.9315   -4.0990   15.9565 N.am      2 SEC2        0.0000 
     16 N          -7.2110   -5.3670   16.7620 N.am     10 SEL2        0.0000 
     17 N          -6.6520   -2.8310   15.1510 N.am      6 SEP2        0.0000 
     18 N          -5.9345   -4.4400   17.0620 N.am      2 SEC2        0.0000 
     19 N          -4.6580   -3.5130   17.3620 N.am      6 SEP2        0.0000 
     20 N          -7.6305   -8.1945   15.8120 N.am      2 SEC2        0.0000 
     21 N          -8.5890   -7.4120   16.8720 N.am     10 SEL2        0.0000 
     22 N          -6.6720   -8.9770   14.7520 N.am      6 SEP2        0.0000 
     23 CA         -7.4395   -9.8040   18.3595 C.3       4 GLC5        0.0000 
     24 CA         -6.4510   -8.1030   19.2530 C.3      12 GLL5        0.0000 
     25 CA         -8.4280  -11.5050   17.4660 C.3       8 GLP5        0.0000 
     26 CA         -6.2765   -7.8740   17.0510 C.3       4 GLC5        0.0000 
     27 CA         -6.1020   -7.6450   14.8490 C.3       8 GLP5        0.0000 
     28 N          -3.8910   -7.8345   23.2000 N.am      2 SEC2        0.0000 
     29 N          -4.5930   -6.6650   22.3740 N.am     10 SEL2        0.0000 
     30 N          -3.1890   -9.0040   24.0260 N.am      6 SEP2        0.0000 
     31 CA         -2.1175   -6.5585   21.7295 C.3       4 GLC5        0.0000 
     32 CA         -3.1620   -7.2380   19.9380 C.3      12 GLL5        0.0000 
     33 CA         -1.0730   -5.8790   23.5210 C.3       8 GLP5        0.0000 
     34 N          -2.3175   -7.6530   15.3315 N.am      2 SEC2        0.0000 
     35 N          -1.7800   -7.1270   16.5860 N.am     10 SEL2        0.0000 
     36 N          -2.8550   -8.1790   14.0770 N.am      6 SEP2        0.0000 
     37 CA          2.3575   -8.5690   16.9735 C.3       4 GLC5        0.0000 
     38 CA          0.7490   -7.4200   17.0200 C.3      12 GLL5        0.0000 
     39 CA          3.9660   -9.7180   16.9270 C.3       8 GLP5        0.0000 
     40 O           0.2745   -7.7810   14.6770 O.2       1 ALC1        0.0000 
     41 O           1.2120   -7.3850   15.7860 O.2       9 ALL1        0.0000 
     42 O          -0.6630   -8.1770   13.5680 O.2       5 ALP1        0.0000 
     43 O           2.5550   -7.6265   15.3000 O.2       1 ALC1        0.0000 
     44 O           3.8980   -7.8680   14.8140 O.2       5 ALP1        0.0000 
     45 N           3.1230   -7.5465   17.8470 N.am      2 SEC2        0.0000 
     46 N           1.6350   -7.5860   18.0380 N.am     10 SEL2        0.0000 
     47 N           4.6110   -7.5070   17.6560 N.am      6 SEP2        0.0000 
     48 CA          0.2395   -9.4395   19.0015 C.3       4 GLC5        0.0000 
     49 CA          1.1980   -7.6300   19.3080 C.3      12 GLL5        0.0000 
     50 CA         -0.7190  -11.2490   18.6950 C.3       8 GLP5        0.0000 
     51 CA          2.4300   -9.1870   19.2620 C.3       4 GLC5        0.0000 
     52 CA          3.6620  -10.7440   19.2160 C.3       8 GLP5        0.0000 
     53 CA          1.2330   -6.5145   21.0150 C.3       4 GLC5        0.0000 
     54 CA          1.2680   -5.3990   22.7220 C.3       8 GLP5        0.0000 
     55 CA         -0.8355   -9.3075   18.6905 C.3       4 GLC5        0.0000 
     56 CA         -0.9520   -7.3660   18.6860 C.3      12 GLL5        0.0000 
     57 CA         -0.0550   -9.0145   16.5232 C.3       4 GLC5        0.0000 
     58 CA         -0.6290   -7.3040   17.3490 C.3      12 GLL5        0.0000 
     59 CA         -0.1700  -10.6670   15.8620 C.3       8 GLP5        0.0000 
@<TRIPOS>BOND
@<TRIPOS>SUBSTRUCTURE
     1 ALC1       40 GROUP        1 X    ALC  0     ROOT ALC X 1
     2 SEC2        4 GROUP        1 X    SEC  0     **** SEC X 2
     3 LYC4        1 GROUP        1 X    LYC  0     **** LYC X 4
     4 GLC5       23 GROUP        1 X    GLC  0     **** GLC X 6
     5 ALP1       42 GROUP        1 Y    ALP  0     ROOT ALP Y 8
     6 SEP2        6 GROUP        1 Y    SEP  0     **** SEP Y 9
     7 LYP4        3 GROUP        1 Y    LYP  0     **** LYP Y 11
     8 GLP5       25 GROUP        1 Y    GLP  0     **** GLP Y 13
     9 ALL1       41 GROUP        1 Z    ALL  0     ROOT ALL Z 15
    10 SEL2        5 GROUP        1 Z    SEL  0     **** SEL Z 16
    11 LYL4        2 GROUP        1 Z    LYL  0     **** LYL Z 18
    12 GLL5       24 GROUP        1 Z    GLL  0     **** GLL Z 20
@<TRIPOS>SET

