#    Name: 3kb1_ADP_1_ligand
#    Modification time : Mon Mar 24 19:05:10 2014

@<TRIPOS>MOLECULE
3kb1_ADP_1_ligand
   39    41     1     0     0
SMALL
NO_CHARGES


@<TRIPOS>ATOM
      1 PB         -9.9320   -7.3210   16.1910 P.3       1 ADP301      0.0000 
      2 O1B       -10.2230   -5.9940   15.6160 O.co2     1 ADP301      0.0000 
      3 O2B       -10.1800   -8.4260   15.2300 O.co2     1 ADP301      0.0000 
      4 O3B       -11.0390   -7.5850   17.4430 O.co2     1 ADP301      0.0000 
      5 PA         -7.7260   -6.4220   17.6410 P.3       1 ADP301      0.0000 
      6 O1A        -8.3690   -5.9310   18.8900 O.co2     1 ADP301      0.0000 
      7 O2A        -7.2110   -5.3670   16.7620 O.co2     1 ADP301      0.0000 
      8 O3A        -8.5890   -7.4120   16.8720 O.3       1 ADP301      0.0000 
      9 O5'        -6.3940   -7.2220   18.1190 O.3       1 ADP301      0.0000 
     10 C5'        -6.4510   -8.1030   19.2530 C.3       1 ADP301      0.0000 
     11 C4'        -5.3540   -7.9870   20.3650 C.3       1 ADP301      0.0000 
     12 O4'        -4.1000   -8.3150   19.7370 O.3       1 ADP301      0.0000 
     13 C3'        -5.1070   -6.5680   21.0210 C.3       1 ADP301      0.0000 
     14 O3'        -4.5930   -6.6650   22.3740 O.3       1 ADP301      0.0000 
     15 C2'        -4.0870   -6.0180   20.0500 C.3       1 ADP301      0.0000 
     16 O2'        -3.5090   -4.8300   20.6210 O.3       1 ADP301      0.0000 
     17 C1'        -3.1620   -7.2380   19.9380 C.3       1 ADP301      0.0000 
     18 N9         -2.3340   -7.2240   18.7460 N.pl3     1 ADP301      0.0000 
     19 C8         -2.7410   -7.0920   17.4510 C.2       1 ADP301      0.0000 
     20 N7         -1.7800   -7.1270   16.5860 N.2       1 ADP301      0.0000 
     21 C5         -0.6290   -7.3040   17.3490 C.ar      1 ADP301      0.0000 
     22 C6          0.7490   -7.4200   17.0200 C.ar      1 ADP301      0.0000 
     23 N6          1.2120   -7.3850   15.7860 N.pl3     1 ADP301      0.0000 
     24 N1          1.6350   -7.5860   18.0380 N.ar      1 ADP301      0.0000 
     25 C2          1.1980   -7.6300   19.3080 C.ar      1 ADP301      0.0000 
     26 N3         -0.0710   -7.5290   19.7400 N.ar      1 ADP301      0.0000 
     27 C4         -0.9520   -7.3660   18.6860 C.ar      1 ADP301      0.0000 
     28 H          -6.4437   -9.1864   18.9224 H         1 ADP301      0.0000 
     29 H          -7.4452   -8.0081   19.7875 H         1 ADP301      0.0000 
     30 H          -5.5594   -8.6889   21.1447 H         1 ADP301      0.0000 
     31 H          -6.0016   -6.0275   20.9194 H         1 ADP301      0.0000 
     32 H          -4.5736   -5.8758   19.1267 H         1 ADP301      0.0000 
     33 H          -2.6323   -7.3652   20.8189 H         1 ADP301      0.0000 
     34 H          -3.7201   -6.9782   17.2239 H         1 ADP301      0.0000 
     35 H           2.2068   -7.4160   15.6882 H         1 ADP301      0.0000 
     36 H           0.5263   -7.3306   15.0601 H         1 ADP301      0.0000 
     37 H           1.9634   -7.7635   20.0799 H         1 ADP301      0.0000 
     38 H          -5.3717   -6.4482   22.9627 H         1 ADP301      0.0000 
     39 H          -3.6369   -4.9287   21.6078 H         1 ADP301      0.0000 
@<TRIPOS>BOND
     1    2    1 ar   
     2    3    1 ar   
     3    4    1 ar   
     4    8    1 1    
     5    6    5 ar   
     6    7    5 ar   
     7    8    5 1    
     8    9    5 1    
     9   10    9 1    
    10   11   10 1    
    11   28   10 1    
    12   29   10 1    
    13   12   11 1    
    14   13   11 1    
    15   30   11 1    
    16   17   12 1    
    17   14   13 1    
    18   15   13 1    
    19   31   13 1    
    20   38   14 1    
    21   16   15 1    
    22   17   15 1    
    23   32   15 1    
    24   39   16 1    
    25   18   17 1    
    26   33   17 1    
    27   19   18 1    
    28   27   18 1    
    29   20   19 2    
    30   34   19 1    
    31   21   20 1    
    32   22   21 ar   
    33   27   21 ar   
    34   23   22 1    
    35   24   22 ar   
    36   35   23 1    
    37   36   23 1    
    38   25   24 ar   
    39   26   25 ar   
    40   37   25 1    
    41   27   26 ar   
@<TRIPOS>SUBSTRUCTURE
     1 ADP301      1 GROUP   
@<TRIPOS>SET

