#    Name: 1nja_DCM_1_INTS_M
#    Modification time : Mon Mar 24 18:21:14 2014

@<TRIPOS>MOLECULE
1nja_DCM_1_INTS_M
   41     0    12     0     0
SMALL
NO_CHARGES


@<TRIPOS>ATOM
      1 N          14.5490   43.4340  -52.7965 N.am      2 SEC2        0.0000 
      2 N          14.3930   44.6540  -52.1480 N.am     10 SEL2        0.0000 
      3 N          14.7050   42.2140  -53.4450 N.am      6 SEP2        0.0000 
      4 CA         16.4415   44.4380  -52.9575 C.3       4 GLC5        0.0000 
      5 CA         16.0180   46.4250  -53.5420 C.3      12 GLL5        0.0000 
      6 CA         16.8650   42.4510  -52.3730 C.3       8 GLP5        0.0000 
      7 CA         13.9530   44.5645  -54.6840 C.3       4 GLC5        0.0000 
      8 CA         15.2480   46.3280  -54.8550 C.3      12 GLL5        0.0000 
      9 CA         12.6580   42.8010  -54.5130 C.3       8 GLP5        0.0000 
     10 N          16.9055   44.1520  -56.4990 N.am      2 SEC2        0.0000 
     11 N          17.1580   45.1450  -55.6540 N.am     10 SEL2        0.0000 
     12 N          16.6530   43.1590  -57.3440 N.am      6 SEP2        0.0000 
     13 O          18.3985   44.9940  -56.1670 O.2       1 ALC1        0.0000 
     14 O          17.1580   45.1450  -55.6540 O.2       9 ALL1        0.0000 
     15 O          19.6390   44.8430  -56.6800 O.2       5 ALP1        0.0000 
     16 CA         15.9275   50.5330  -55.3905 C.3       4 GLC5        0.0000 
     17 CA         16.7270   48.8740  -55.8280 C.3      12 GLL5        0.0000 
     18 CA         15.1280   52.1920  -54.9530 C.3       8 GLP5        0.0000 
     19 CA         14.6915   48.9270  -54.9515 C.3       4 GLC5        0.0000 
     20 CA         12.6560   48.9800  -54.0750 C.3       8 GLP5        0.0000 
     21 NZ         13.4265   48.9515  -58.4895 N.4       3 LYC4        0.0000 
     22 NZ         14.8250   48.3920  -58.1470 N.4      11 LYL4        0.0000 
     23 NZ         11.6910   50.3890  -57.9000 N.4       7 LYP4        0.0000 
     24 N          13.4265   48.9515  -58.4895 N.am      2 SEC2        0.0000 
     25 N          14.8250   48.3920  -58.1470 N.am     10 SEL2        0.0000 
     26 N          12.0280   49.5110  -58.8320 N.am      6 SEP2        0.0000 
     27 N          14.2360   47.0165  -57.9165 N.am      2 SEC2        0.0000 
     28 N          13.6470   45.6410  -57.6860 N.am      6 SEP2        0.0000 
     29 NZ         14.0760   50.8705  -57.7760 N.4       3 LYC4        0.0000 
     30 NZ         15.5140   50.7430  -58.3510 N.4      11 LYL4        0.0000 
     31 N          14.0760   50.8705  -57.7760 N.am      2 SEC2        0.0000 
     32 N          15.5140   50.7430  -58.3510 N.am     10 SEL2        0.0000 
     33 N          12.6380   50.9980  -57.2010 N.am      6 SEP2        0.0000 
     34 CA         15.3530   50.3045  -52.0483 C.3       4 GLC5        0.0000 
     35 CA         15.2310   48.0420  -52.0540 C.3      12 GLL5        0.0000 
     36 CA         15.8600   52.3280  -52.5670 C.3       8 GLP5        0.0000 
     37 CA         13.7510   48.6305  -52.8023 C.3       4 GLC5        0.0000 
     38 CA         14.4610   48.5200  -51.0050 C.3      12 GLL5        0.0000 
     39 CA         14.1445   47.6782  -54.1368 C.3       4 GLC5        0.0000 
     40 CA         14.0880   46.2665  -56.4763 C.3       4 GLC5        0.0000 
     41 CA         12.3450   46.1820  -57.6120 C.3       8 GLP5        0.0000 
@<TRIPOS>BOND
@<TRIPOS>SUBSTRUCTURE
     1 ALC1       13 GROUP        1 X    ALC  0     ROOT ALC X 1
     2 SEC2        1 GROUP        1 X    SEC  0     **** SEC X 2
     3 LYC4       21 GROUP        1 X    LYC  0     **** LYC X 4
     4 GLC5        4 GROUP        1 X    GLC  0     **** GLC X 6
     5 ALP1       15 GROUP        1 Y    ALP  0     ROOT ALP Y 8
     6 SEP2        3 GROUP        1 Y    SEP  0     **** SEP Y 9
     7 LYP4       23 GROUP        1 Y    LYP  0     **** LYP Y 11
     8 GLP5        6 GROUP        1 Y    GLP  0     **** GLP Y 13
     9 ALL1       14 GROUP        1 Z    ALL  0     ROOT ALL Z 15
    10 SEL2        2 GROUP        1 Z    SEL  0     **** SEL Z 16
    11 LYL4       22 GROUP        1 Z    LYL  0     **** LYL Z 18
    12 GLL5        5 GROUP        1 Z    GLL  0     **** GLL Z 20
@<TRIPOS>SET

