#    Name: 1nja_DCM_1_ligand
#    Modification time : Mon Mar 24 18:21:14 2014

@<TRIPOS>MOLECULE
1nja_DCM_1_ligand
   32    33     1     0     0
SMALL
NO_CHARGES


@<TRIPOS>ATOM
      1 N1         15.1840   46.7700  -52.4170 N.am      1 DCM317      0.0000 
      2 C2         14.3930   45.8310  -51.8040 C.2       1 DCM317      0.0000 
      3 N3         13.6130   46.2850  -50.7560 N.2       1 DCM317      0.0000 
      4 C4         13.6360   47.5830  -50.3560 C.2       1 DCM317      0.0000 
      5 C5         14.4610   48.5200  -51.0050 C.2       1 DCM317      0.0000 
      6 C6         15.2310   48.0420  -52.0540 C.2       1 DCM317      0.0000 
      7 O2         14.3930   44.6540  -52.1480 O.2       1 DCM317      0.0000 
      8 N4         12.9040   48.0020  -49.3460 N.pl3     1 DCM317      0.0000 
      9 C1'        16.0180   46.4250  -53.5420 C.3       1 DCM317      0.0000 
     10 C2'        15.2480   46.3280  -54.8550 C.3       1 DCM317      0.0000 
     11 C3'        16.4140   46.3740  -55.8260 C.3       1 DCM317      0.0000 
     12 C4'        17.3030   47.5340  -55.3580 C.3       1 DCM317      0.0000 
     13 O4'        17.1420   47.3690  -53.8730 O.3       1 DCM317      0.0000 
     14 O3'        17.1580   45.1450  -55.6540 O.3       1 DCM317      0.0000 
     15 C5'        16.7270   48.8740  -55.8280 C.3       1 DCM317      0.0000 
     16 O5'        16.9780   48.9670  -57.2610 O.3       1 DCM317      0.0000 
     17 P          15.9390   49.3110  -58.3770 P.3       1 DCM317      0.0000 
     18 O1P        16.4890   49.0510  -59.7300 O.co2     1 DCM317      0.0000 
     19 O2P        14.8250   48.3920  -58.1470 O.co2     1 DCM317      0.0000 
     20 O3P        15.5140   50.7430  -58.3510 O.co2     1 DCM317      0.0000 
     21 H          14.4836   49.4788  -50.7169 H         1 DCM317      0.0000 
     22 H          15.8542   48.7233  -52.5524 H         1 DCM317      0.0000 
     23 H          12.9440   48.9818  -49.1502 H         1 DCM317      0.0000 
     24 H          12.3744   47.3024  -48.8663 H         1 DCM317      0.0000 
     25 H          16.4789   45.4252  -53.4066 H         1 DCM317      0.0000 
     26 H          14.6432   47.1714  -54.9765 H         1 DCM317      0.0000 
     27 H          14.7631   45.4045  -54.9162 H         1 DCM317      0.0000 
     28 H          16.0854   46.5353  -56.7862 H         1 DCM317      0.0000 
     29 H          18.2691   47.3748  -55.6472 H         1 DCM317      0.0000 
     30 H          17.2248   49.6670  -55.2881 H         1 DCM317      0.0000 
     31 H          15.6682   48.8844  -55.6115 H         1 DCM317      0.0000 
     32 H          18.0294   45.3029  -56.1185 H         1 DCM317      0.0000 
@<TRIPOS>BOND
     1    2    1 am   
     2    6    1 1    
     3    9    1 1    
     4    3    2 1    
     5    7    2 2    
     6    4    3 2    
     7    5    4 1    
     8    8    4 1    
     9    6    5 2    
    10   21    5 1    
    11   22    6 1    
    12   23    8 1    
    13   24    8 1    
    14   10    9 1    
    15   13    9 1    
    16   25    9 1    
    17   11   10 1    
    18   26   10 1    
    19   27   10 1    
    20   12   11 1    
    21   14   11 1    
    22   28   11 1    
    23   13   12 1    
    24   15   12 1    
    25   29   12 1    
    26   32   14 1    
    27   16   15 1    
    28   30   15 1    
    29   31   15 1    
    30   17   16 1    
    31   18   17 ar   
    32   19   17 ar   
    33   20   17 ar   
@<TRIPOS>SUBSTRUCTURE
     1 DCM317      1 GROUP   
@<TRIPOS>SET

