#    Name: 4MSL_1_CAVITY_N1_ALL.mol2
#    Modification time : Tue Mar 11 15:35:17 2014

@<TRIPOS>MOLECULE
4MSL_1_CAVITY_N1_ALL.mol2
   72     0     6     0     0
SMALL
NO_CHARGES


@<TRIPOS>ATOM
      1 CA        -27.1966   41.5428   12.7211 C.3       5 GLY6        0.0000 
      2 O         -27.8428   41.2320   14.0387 O.2       2 ALA2        0.0000 
      3 N         -28.4889   40.9213   15.3562 N.2       2 ALA2        0.0000 
      4 N         -29.1351   40.6105   16.6738 N.2       2 ALA2        0.0000 
      5 OG        -29.7813   40.2998   17.9913 O.2       1 SER1        0.0000 
      6 CA        -27.9010   40.3732   12.0998 C.3       5 GLY6        0.0000 
      7 DU        -28.5471   40.0625   13.4174 H         6 CUB7        0.0000 
      8 DU        -29.1933   39.7517   14.7349 H         6 CUB7        0.0000 
      9 DU        -29.8395   39.4410   16.0525 H         6 CUB7        0.0000 
     10 DU        -30.4856   39.1302   17.3700 H         6 CUB7        0.0000 
     11 CA        -28.6053   39.2037   11.4786 C.3       5 GLY6        0.0000 
     12 N         -29.2515   38.8929   12.7961 N.2       2 ALA2        0.0000 
     13 N         -29.8977   38.5822   14.1136 N.2       2 ALA2        0.0000 
     14 N         -30.5439   38.2714   15.4312 N.2       2 ALA2        0.0000 
     15 N         -31.1900   37.9607   16.7487 N.2       2 ALA2        0.0000 
     16 N         -31.8944   36.7911   16.1274 N.2       2 ALA2        0.0000 
     17 CA        -26.0406   40.6564   13.0790 C.3       5 GLY6        0.0000 
     18 CA        -26.6868   40.3457   14.3966 C.3       5 GLY6        0.0000 
     19 CA        -27.3329   40.0349   15.7141 C.3       5 GLY6        0.0000 
     20 N         -27.9791   39.7242   17.0316 N.2       2 ALA2        0.0000 
     21 CA        -26.7450   39.4869   12.4577 C.3       5 GLY6        0.0000 
     22 CA        -27.3911   39.1761   13.7753 C.3       5 GLY6        0.0000 
     23 CA        -28.0373   38.8654   15.0928 C.3       5 GLY6        0.0000 
     24 DU        -28.6835   38.5546   16.4104 H         6 CUB7        0.0000 
     25 CA        -28.0955   38.0066   13.1540 C.3       5 GLY6        0.0000 
     26 O         -28.7417   37.6958   14.4715 O.2       2 ALA2        0.0000 
     27 N         -29.3879   37.3851   15.7891 N.2       2 ALA2        0.0000 
     28 CA        -25.5308   39.4593   14.7545 C.3       5 GLY6        0.0000 
     29 CA        -26.1769   39.1486   16.0720 C.3       5 GLY6        0.0000 
     30 OD1       -26.8231   38.8378   17.3895 O.3       3 ASP3        0.0000 
     31 CA        -26.8813   37.9790   15.4507 C.3       5 GLY6        0.0000 
     32 DU        -27.5275   37.6683   16.7683 H         6 CUB7        0.0000 
     33 CA        -27.5857   36.8095   14.8294 C.3       5 GLY6        0.0000 
     34 OG        -28.9363   35.3292   15.5257 O.2       1 SER1        0.0000 
     35 O         -24.3166   39.4318   17.0512 O.2       2 ALA2        0.0000 
     36 N         -24.3748   38.5730   15.1124 N.2       2 ALA2        0.0000 
     37 N         -25.0209   38.2623   16.4299 N.2       2 ALA2        0.0000 
     38 CA        -25.7253   37.0927   15.8086 C.3       5 GLY6        0.0000 
     39 N         -23.8650   37.3759   16.7878 N.2       2 ALA2        0.0000 
     40 CA        -23.9232   36.5171   14.8490 C.3       5 GLY6        0.0000 
     41 CA        -24.5693   36.2064   16.1665 C.3       5 GLY6        0.0000 
     42 CA        -33.9536   41.7893   16.2963 C.3       5 GLY6        0.0000 
     43 OG        -33.3657   41.2412   13.0399 O.2       1 SER1        0.0000 
     44 CZ        -34.0118   40.9304   14.3575 C.ar      4 PHE5        0.0000 
     45 CZ        -34.6580   40.6197   15.6750 C.ar      4 PHE5        0.0000 
     46 CZ        -35.3042   40.3090   16.9926 C.ar      4 PHE5        0.0000 
     47 O         -34.7162   39.7609   13.7362 O.2       2 ALA2        0.0000 
     48 O         -35.3624   39.4502   15.0537 O.2       2 ALA2        0.0000 
     49 OG        -30.8591   41.8351   12.7016 O.2       1 SER1        0.0000 
     50 CA        -31.5053   41.5244   14.0191 C.3       5 GLY6        0.0000 
     51 CA        -32.1515   41.2137   15.3367 C.3       5 GLY6        0.0000 
     52 OG        -32.7976   40.9029   16.6542 O.2       1 SER1        0.0000 
     53 CA        -31.5635   40.6656   12.0803 C.3       5 GLY6        0.0000 
     54 OG        -32.2097   40.3548   13.3978 O.2       1 SER1        0.0000 
     55 N         -32.8558   40.0441   14.7154 N.2       2 ALA2        0.0000 
     56 DU        -33.5020   39.7334   16.0329 H         6 CUB7        0.0000 
     57 O         -32.9140   39.1853   12.7765 O.2       2 ALA2        0.0000 
     58 N         -33.5602   38.8746   14.0941 N.2       2 ALA2        0.0000 
     59 CA        -34.2064   38.5638   15.4116 C.3       5 GLY6        0.0000 
     60 N         -28.3526   42.4291   12.3632 N.2       2 ALA2        0.0000 
     61 CA        -28.9987   42.1183   13.6808 C.3       5 GLY6        0.0000 
     62 N         -29.6449   41.8076   14.9983 N.2       2 ALA2        0.0000 
     63 CA        -29.0570   41.2595   11.7420 C.3       5 GLY6        0.0000 
     64 DU        -29.7031   40.9488   13.0595 H         6 CUB7        0.0000 
     65 CA        -30.3493   40.6381   14.3770 C.3       5 GLY6        0.0000 
     66 OG        -30.9955   40.3273   15.6946 O.2       1 SER1        0.0000 
     67 OG        -31.6416   40.0166   17.0121 O.2       1 SER1        0.0000 
     68 CA        -30.4075   39.7793   12.4382 C.3       5 GLY6        0.0000 
     69 N         -31.0537   39.4685   13.7557 N.2       2 ALA2        0.0000 
     70 N         -31.6998   39.1578   15.0733 N.2       2 ALA2        0.0000 
     71 N         -32.3460   38.8470   16.3908 N.2       2 ALA2        0.0000 
     72 CA        -23.4133   35.3200   16.5244 C.3       5 GLY6        0.0000 
@<TRIPOS>BOND
@<TRIPOS>SUBSTRUCTURE
     1 SER1        5 GROUP   
     2 ALA2        2 GROUP   
     3 ASP3       30 GROUP   
     4 PHE5       44 GROUP   
     5 GLY6        1 GROUP   
     6 CUB7        7 GROUP   
@<TRIPOS>SET

