#    Name: 4msl_2ET_1_INTS_M
#    Modification time : Tue Apr  8 00:31:02 2014

@<TRIPOS>MOLECULE
4msl_2ET_1_INTS_M
   56     0     9     0     0
SMALL
NO_CHARGES


@<TRIPOS>ATOM
      1 CA        -36.1780   34.8345   15.7415 C.3       3 GLC5        0.0000 
      2 CA        -36.2430   34.8880   17.5020 C.3       9 GLL5        0.0000 
      3 CA        -36.1130   34.7810   13.9810 C.3       6 GLP5        0.0000 
      4 CA        -34.9020   34.2720   15.8235 C.3       3 GLC5        0.0000 
      5 CA        -34.9620   34.3210   17.7060 C.3       9 GLL5        0.0000 
      6 CA        -34.8420   34.2230   13.9410 C.3       6 GLP5        0.0000 
      7 NZ        -35.5605   40.8490   12.9965 N.4       2 LYC4        0.0000 
      8 NZ        -34.3890   39.3790   13.4310 N.4       8 LYL4        0.0000 
      9 NZ        -37.4260   41.3260   12.2140 N.4       5 LYP4        0.0000 
     10 N         -35.7435   39.7780   13.1070 N.am      1 SEC2        0.0000 
     11 N         -34.3890   39.3790   13.4310 N.am      7 SEL2        0.0000 
     12 N         -37.0980   40.1770   12.7830 N.am      4 SEP2        0.0000 
     13 N         -34.2795   38.1605   12.5870 N.am      1 SEC2        0.0000 
     14 N         -34.1700   36.9420   11.7430 N.am      4 SEP2        0.0000 
     15 NZ        -34.0230   41.5210   13.2100 N.4       8 LYL4        0.0000 
     16 N         -33.3945   42.8105   12.9550 N.am      1 SEC2        0.0000 
     17 N         -34.0230   41.5210   13.2100 N.am      7 SEL2        0.0000 
     18 N         -32.7660   44.1000   12.7000 N.am      4 SEP2        0.0000 
     19 N         -35.2585   41.8650   12.5415 N.am      1 SEC2        0.0000 
     20 N         -36.4940   42.2090   11.8730 N.am      4 SEP2        0.0000 
     21 N         -35.5605   40.8490   12.9965 N.am      1 SEC2        0.0000 
     22 CA        -31.9610   42.2260   12.2860 C.3       3 GLC5        0.0000 
     23 CA        -31.2460   40.6040   13.2690 C.3       9 GLL5        0.0000 
     24 CA        -32.6760   43.8480   11.3030 C.3       6 GLP5        0.0000 
     25 CA        -30.8405   40.7885   11.1355 C.3       3 GLC5        0.0000 
     26 CA        -30.4350   40.9730    9.0020 C.3       6 GLP5        0.0000 
     27 CA        -31.6720   39.0935   11.9090 C.3       3 GLC5        0.0000 
     28 CA        -32.0980   37.5830   10.5490 C.3       6 GLP5        0.0000 
     29 CA        -27.1810   41.2935   11.8600 C.3       3 GLC5        0.0000 
     30 CA        -28.7120   40.7440   12.9720 C.3       9 GLL5        0.0000 
     31 CA        -25.6500   41.8430   10.7480 C.3       6 GLP5        0.0000 
     32 CA        -29.5735   40.8585   10.9870 C.3       3 GLC5        0.0000 
     33 CA        -30.8390   35.5915   14.8955 C.3       3 GLC5        0.0000 
     34 CA        -31.4680   36.6270   16.6910 C.3       9 GLL5        0.0000 
     35 CA        -30.2100   34.5560   13.1000 C.3       6 GLP5        0.0000 
     36 CA        -34.7765   32.8935   16.1625 C.3       3 GLC5        0.0000 
     37 CA        -34.8850   32.9250   18.2730 C.3       9 GLL5        0.0000 
     38 CA        -34.6680   32.8620   14.0520 C.3       6 GLP5        0.0000 
     39 CA        -34.0170   31.3895   17.4430 C.3       3 GLC5        0.0000 
     40 CA        -33.1490   29.8540   16.6130 C.3       6 GLP5        0.0000 
     41 CA        -35.2700   31.1645   19.1350 C.3       3 GLC5        0.0000 
     42 CA        -35.6550   29.4040   19.9970 C.3       6 GLP5        0.0000 
     43 CA        -31.3240   34.1620   15.6430 C.3       3 GLC5        0.0000 
     44 CA        -32.4500   34.5860   17.5840 C.3       9 GLL5        0.0000 
     45 CA        -30.7620   33.3590   13.8690 C.3       6 GLP5        0.0000 
     46 CA        -31.9650   42.1010   14.9105 C.3       3 GLC5        0.0000 
     47 CA        -32.3380   40.2280   14.2510 C.3       9 GLL5        0.0000 
     48 CA        -32.1380   43.7860   16.0610 C.3       6 GLP5        0.0000 
     49 CA        -30.9635   42.3102   15.3060 C.3       3 GLC5        0.0000 
     50 CA        -29.8870   41.0400   13.8510 C.3       9 GLL5        0.0000 
     51 CA        -28.8460   42.7392   14.8675 C.3       3 GLC5        0.0000 
     52 CA        -29.6910   40.6290   15.2510 C.3       9 GLL5        0.0000 
     53 CA        -27.9030   44.6440   15.1840 C.3       6 GLP5        0.0000 
     54 CA        -34.9117   36.0944   15.4169 C.3       3 GLC5        0.0000 
     55 CA        -32.7520   37.1470   16.4670 C.3       9 GLL5        0.0000 
     56 CA        -36.2910   36.2540   13.8360 C.3       6 GLP5        0.0000 
@<TRIPOS>BOND
@<TRIPOS>SUBSTRUCTURE
     1 SEC2       10 GROUP        1 X    SEC  0     ROOT SEC X 2
     2 LYC4        7 GROUP        1 X    LYC  0     **** LYC X 4
     3 GLC5        1 GROUP        1 X    GLC  0     **** GLC X 6
     4 SEP2       12 GROUP        1 Y    SEP  0     ROOT SEP Y 9
     5 LYP4        9 GROUP        1 Y    LYP  0     **** LYP Y 11
     6 GLP5        3 GROUP        1 Y    GLP  0     **** GLP Y 13
     7 SEL2       11 GROUP        1 Z    SEL  0     ROOT SEL Z 16
     8 LYL4        8 GROUP        1 Z    LYL  0     **** LYL Z 18
     9 GLL5        2 GROUP        1 Z    GLL  0     **** GLL Z 20
@<TRIPOS>SET

