#    Name: 4msl_2ET_1_ligand
#    Modification time : Tue Apr  8 00:31:02 2014

@<TRIPOS>MOLECULE
4msl_2ET_1_ligand
   42    43     1     0     0
SMALL
NO_CHARGES


@<TRIPOS>ATOM
      1 C10       -32.9190   38.5640   15.8490 C.3       1 2ET809      0.0000 
      2 C15       -32.4500   34.5860   17.5840 C.ar      1 2ET809      0.0000 
      3 C17       -33.8860   36.3900   16.8000 C.ar      1 2ET809      0.0000 
      4 C21       -36.2430   34.8880   17.5020 C.2       1 2ET809      0.0000 
      5 C22       -34.9620   34.3210   17.7060 C.2       1 2ET809      0.0000 
      6 O01       -34.3890   39.3790   13.4310 O.co2     1 2ET809      0.0000 
      7 C02       -33.6450   40.3830   13.6010 C.2       1 2ET809      0.0000 
      8 O03       -34.0230   41.5210   13.2100 O.co2     1 2ET809      0.0000 
      9 C04       -32.3380   40.2280   14.2510 C.3       1 2ET809      0.0000 
     10 C05       -31.2460   40.6040   13.2690 C.3       1 2ET809      0.0000 
     11 C06       -29.8870   41.0400   13.8510 C.3       1 2ET809      0.0000 
     12 C07       -28.7120   40.7440   12.9720 C.3       1 2ET809      0.0000 
     13 C08       -29.6910   40.6290   15.2510 C.3       1 2ET809      0.0000 
     14 N09       -32.1740   38.8570   14.6630 N.4       1 2ET809      0.0000 
     15 C11       -32.7520   37.1470   16.4670 C.ar      1 2ET809      0.0000 
     16 C12       -31.4680   36.6270   16.6910 C.ar      1 2ET809      0.0000 
     17 O13       -30.3660   37.3570   16.3690 O.3       1 2ET809      0.0000 
     18 C14       -31.3220   35.3440   17.2500 C.ar      1 2ET809      0.0000 
     19 C16       -33.7460   35.1010   17.3620 C.ar      1 2ET809      0.0000 
     20 O18       -35.2170   36.9530   16.5580 O.3       1 2ET809      0.0000 
     21 C19       -36.3720   36.2430   16.9520 C.2       1 2ET809      0.0000 
     22 O20       -37.4660   36.7510   16.8370 O.2       1 2ET809      0.0000 
     23 C23       -34.8850   32.9250   18.2730 C.3       1 2ET809      0.0000 
     24 H         -34.0235   38.7061   15.6792 H         1 2ET809      0.0000 
     25 H         -32.6784   39.2967   16.6701 H         1 2ET809      0.0000 
     26 H         -32.3408   33.6517   17.9921 H         1 2ET809      0.0000 
     27 H         -37.0870   34.3759   17.7289 H         1 2ET809      0.0000 
     28 H         -32.2738   40.8903   15.0972 H         1 2ET809      0.0000 
     29 H         -31.6183   41.4261   12.6092 H         1 2ET809      0.0000 
     30 H         -31.0655   39.7428   12.5794 H         1 2ET809      0.0000 
     31 H         -29.9567   42.1982   13.8778 H         1 2ET809      0.0000 
     32 H         -30.3820   34.9651   17.4123 H         1 2ET809      0.0000 
     33 H         -27.8526   41.0410   13.3882 H         1 2ET809      0.0000 
     34 H         -28.6246   39.7654   12.7858 H         1 2ET809      0.0000 
     35 H         -28.7842   41.2053   12.0877 H         1 2ET809      0.0000 
     36 H         -28.8048   40.9277   15.6052 H         1 2ET809      0.0000 
     37 H         -30.3916   41.0131   15.8524 H         1 2ET809      0.0000 
     38 H         -29.7283   39.6351   15.3550 H         1 2ET809      0.0000 
     39 H         -33.9390   32.6180   18.3769 H         1 2ET809      0.0000 
     40 H         -35.3129   32.8663   19.1749 H         1 2ET809      0.0000 
     41 H         -35.3463   32.2597   17.6859 H         1 2ET809      0.0000 
     42 H         -29.6106   36.9103   16.8485 H         1 2ET809      0.0000 
@<TRIPOS>BOND
     1   14    1 1    
     2   15    1 1    
     3   24    1 1    
     4   25    1 1    
     5   18    2 ar   
     6   19    2 ar   
     7   26    2 1    
     8   15    3 ar   
     9   19    3 ar   
    10   20    3 1    
    11    5    4 2    
    12   21    4 1    
    13   27    4 1    
    14   19    5 1    
    15   23    5 1    
    16    7    6 ar   
    17    8    7 ar   
    18    9    7 1    
    19   10    9 1    
    20   14    9 1    
    21   28    9 1    
    22   11   10 1    
    23   29   10 1    
    24   30   10 1    
    25   12   11 1    
    26   13   11 1    
    27   31   11 1    
    28   33   12 1    
    29   34   12 1    
    30   35   12 1    
    31   36   13 1    
    32   37   13 1    
    33   38   13 1    
    34   16   15 ar   
    35   17   16 1    
    36   18   16 ar   
    37   42   17 1    
    38   32   18 1    
    39   21   20 1    
    40   22   21 2    
    41   39   23 1    
    42   40   23 1    
    43   41   23 1    
@<TRIPOS>SUBSTRUCTURE
     1 2ET809      1 GROUP   
@<TRIPOS>SET

