#    Name: 1Z89_1_CAVITY_N1_ALL.mol2
#    Modification time : Mon Mar 10 22:17:35 2014

@<TRIPOS>MOLECULE
1Z89_1_CAVITY_N1_ALL.mol2
   92     0     4     0     0
SMALL
NO_CHARGES


@<TRIPOS>ATOM
      1 CA         19.1053  -11.5885   11.0521 C.3       3 GLY6        0.0000 
      2 CA         17.6406  -11.6482   10.7342 C.3       3 GLY6        0.0000 
      3 DU         18.6879  -12.0938   13.0696 H         4 CUB7        0.0000 
      4 CA         18.8029  -10.8119   12.2992 C.3       3 GLY6        0.0000 
      5 CZ         17.3382  -10.8715   11.9813 C.ar      2 PHE5        0.0000 
      6 CZ         19.8503  -11.2574   14.6347 C.ar      2 PHE5        0.0000 
      7 CZ         19.9653   -9.9755   13.8643 C.ar      2 PHE5        0.0000 
      8 DU         18.2706  -12.5990   15.0872 H         4 CUB7        0.0000 
      9 DU         18.3856  -11.3171   14.3168 H         4 CUB7        0.0000 
     10 CA         18.5006  -10.0352   13.5464 C.3       3 GLY6        0.0000 
     11 CZ         16.8059  -12.6587   14.7693 C.ar      2 PHE5        0.0000 
     12 CZ         16.9209  -11.3768   13.9989 C.ar      2 PHE5        0.0000 
     13 CZ         17.0359  -10.0949   13.2285 C.ar      2 PHE5        0.0000 
     14 CA         17.3808   -6.2492   10.9173 C.3       3 GLY6        0.0000 
     15 CA         17.4958   -4.9673   10.1469 C.3       3 GLY6        0.0000 
     16 CZ         17.6108   -3.6854    9.3765 C.ar      2 PHE5        0.0000 
     17 CZ         15.9161   -6.3089   10.5994 C.ar      2 PHE5        0.0000 
     18 CA         16.0311   -5.0270    9.8290 C.3       3 GLY6        0.0000 
     19 CA         16.1461   -3.7451    9.0586 C.3       3 GLY6        0.0000 
     20 CZ         13.8765  -12.7781   14.1335 C.ar      2 PHE5        0.0000 
     21 CA         19.3180  -13.0446   17.4227 C.3       3 GLY6        0.0000 
     22 CZ         19.4330  -11.7627   16.6523 C.ar      2 PHE5        0.0000 
     23 CZ         19.7779   -7.9170   14.3411 C.ar      2 PHE5        0.0000 
     24 N          19.8929   -6.6351   13.5707 N.2       1 ALA2        0.0000 
     25 DU         17.8533  -13.1043   17.1048 H         4 CUB7        0.0000 
     26 DU         17.9683  -11.8224   16.3344 H         4 CUB7        0.0000 
     27 CZ         18.0833  -10.5405   15.5640 C.ar      2 PHE5        0.0000 
     28 CZ         18.1982   -9.2586   14.7936 C.ar      2 PHE5        0.0000 
     29 CA         18.3132   -7.9767   14.0232 C.3       3 GLY6        0.0000 
     30 CA         18.4282   -6.6948   13.2528 C.3       3 GLY6        0.0000 
     31 CA         18.5432   -5.4129   12.4824 C.3       3 GLY6        0.0000 
     32 CZ         18.6582   -4.1310   11.7119 C.ar      2 PHE5        0.0000 
     33 DU         16.3886  -13.1639   16.7869 H         4 CUB7        0.0000 
     34 DU         16.5036  -11.8820   16.0165 H         4 CUB7        0.0000 
     35 CZ         16.6185  -10.6001   15.2460 C.ar      2 PHE5        0.0000 
     36 CZ         16.7335   -9.3182   14.4756 C.ar      2 PHE5        0.0000 
     37 CZ         16.8485   -8.0364   13.7052 C.ar      2 PHE5        0.0000 
     38 CA         16.9635   -6.7545   12.9348 C.3       3 GLY6        0.0000 
     39 CZ         17.0785   -5.4726   12.1644 C.ar      2 PHE5        0.0000 
     40 CZ         17.1934   -4.1907   11.3940 C.ar      2 PHE5        0.0000 
     41 CZ         17.3084   -2.9088   10.6236 C.ar      2 PHE5        0.0000 
     42 DU         14.9239  -13.2236   16.4689 H         4 CUB7        0.0000 
     43 CZ         15.0389  -11.9417   15.6985 C.ar      2 PHE5        0.0000 
     44 CZ         15.1538  -10.6598   14.9281 C.ar      2 PHE5        0.0000 
     45 CZ         15.2688   -9.3779   14.1577 C.ar      2 PHE5        0.0000 
     46 CZ         15.4988   -6.8141   12.6169 C.ar      2 PHE5        0.0000 
     47 CZ         15.6138   -5.5322   11.8465 C.ar      2 PHE5        0.0000 
     48 CZ         15.7287   -4.2503   11.0761 C.ar      2 PHE5        0.0000 
     49 CZ         15.8437   -2.9684   10.3057 C.ar      2 PHE5        0.0000 
     50 N          13.4592  -13.2833   16.1510 N.2       1 ALA2        0.0000 
     51 CA         13.5741  -12.0014   15.3806 C.3       3 GLY6        0.0000 
     52 CZ         13.6891  -10.7195   14.6102 C.ar      2 PHE5        0.0000 
     53 CZ         19.3606   -8.4222   16.3586 C.ar      2 PHE5        0.0000 
     54 CZ         19.4756   -7.1403   15.5882 C.ar      2 PHE5        0.0000 
     55 CA         19.5906   -5.8584   14.8178 C.3       3 GLY6        0.0000 
     56 O          17.6659  -11.0457   17.5815 O.2       1 ALA2        0.0000 
     57 CZ         17.7809   -9.7638   16.8111 C.ar      2 PHE5        0.0000 
     58 CZ         17.8959   -8.4819   16.0407 C.ar      2 PHE5        0.0000 
     59 DU         18.0109   -7.2000   15.2703 H         4 CUB7        0.0000 
     60 CZ         18.1259   -5.9181   14.4999 C.ar      2 PHE5        0.0000 
     61 O          15.9713  -13.6692   18.8044 O.2       1 ALA2        0.0000 
     62 O          16.0862  -12.3873   18.0340 O.2       1 ALA2        0.0000 
     63 O          16.2012  -11.1054   17.2636 O.2       1 ALA2        0.0000 
     64 DU         16.3162   -9.8235   16.4932 H         4 CUB7        0.0000 
     65 DU         16.4312   -8.5416   15.7228 H         4 CUB7        0.0000 
     66 O          16.5462   -7.2597   14.9524 O.2       1 ALA2        0.0000 
     67 CZ         16.6611   -5.9778   14.1820 C.ar      2 PHE5        0.0000 
     68 N          14.5065  -13.7289   18.4865 N.2       1 ALA2        0.0000 
     69 N          14.6215  -12.4470   17.7161 N.2       1 ALA2        0.0000 
     70 CA         14.7365  -11.1651   16.9457 C.3       3 GLY6        0.0000 
     71 CA         14.8515   -9.8832   16.1753 C.3       3 GLY6        0.0000 
     72 CZ         14.9665   -8.6013   15.4049 C.ar      2 PHE5        0.0000 
     73 CZ         15.0815   -7.3194   14.6345 C.ar      2 PHE5        0.0000 
     74 CZ         17.4786   -8.9872   18.0583 C.ar      2 PHE5        0.0000 
     75 CZ         17.5935   -7.7053   17.2879 C.ar      2 PHE5        0.0000 
     76 CA         17.7085   -6.4234   16.5175 C.3       3 GLY6        0.0000 
     77 O          16.0139   -9.0469   17.7404 O.2       1 ALA2        0.0000 
     78 DU         16.1288   -7.7650   16.9700 H         4 CUB7        0.0000 
     79 O          16.2438   -6.4831   16.1996 O.2       1 ALA2        0.0000 
     80 N          14.2042  -12.9522   19.7337 N.2       1 ALA2        0.0000 
     81 N          14.3192  -11.6703   18.9633 N.2       1 ALA2        0.0000 
     82 CA         14.4342  -10.3884   18.1929 C.3       3 GLY6        0.0000 
     83 CA         14.5491   -9.1065   17.4225 C.3       3 GLY6        0.0000 
     84 CZ         14.6641   -7.8246   16.6521 C.ar      2 PHE5        0.0000 
     85 O          14.7791   -6.5427   15.8816 O.2       1 ALA2        0.0000 
     86 CZ         17.2912   -6.9286   18.5350 C.ar      2 PHE5        0.0000 
     87 CZ         17.4062   -5.6467   17.7646 C.ar      2 PHE5        0.0000 
     88 O          15.7115   -8.2702   18.9875 O.2       1 ALA2        0.0000 
     89 CZ         15.8265   -6.9883   18.2171 C.ar      2 PHE5        0.0000 
     90 N          15.9415   -5.7064   17.4467 N.2       1 ALA2        0.0000 
     91 CZ         14.2468   -8.3299   18.6696 C.ar      2 PHE5        0.0000 
     92 N          14.3618   -7.0480   17.8992 N.2       1 ALA2        0.0000 
@<TRIPOS>BOND
@<TRIPOS>SUBSTRUCTURE
     1 ALA2       24 GROUP   
     2 PHE5        5 GROUP   
     3 GLY6        1 GROUP   
     4 CUB7        3 GROUP   
@<TRIPOS>SET

