#    Name: 1z89_62P_1_INTS_M
#    Modification time : Mon Apr  7 16:54:55 2014

@<TRIPOS>MOLECULE
1z89_62P_1_INTS_M
   47     0     6     0     0
SMALL
NO_CHARGES


@<TRIPOS>ATOM
      1 CA         17.8410   -7.6280   11.9390 C.3       2 GLC5        0.0000 
      2 CA         17.2540   -6.7130   13.5480 C.3       6 GLL5        0.0000 
      3 CA         18.4280   -8.5430   10.3300 C.3       4 GLP5        0.0000 
      4 CA         17.1800   -7.1915   11.2300 C.3       2 GLC5        0.0000 
      5 CA         15.9320   -5.8400   12.1300 C.3       6 GLL5        0.0000 
      6 CA         15.9245   -1.9935   10.9550 C.3       2 GLC5        0.0000 
      7 CA         16.0790   -2.5510    9.2130 C.3       6 GLL5        0.0000 
      8 CA         15.7700   -1.4360   12.6970 C.3       4 GLP5        0.0000 
      9 CA         14.7770   -1.9695    8.1770 C.3       2 GLC5        0.0000 
     10 CA         13.4750   -1.3880    7.1410 C.3       4 GLP5        0.0000 
     11 CA         16.5500   -3.8895    7.9365 C.3       2 GLC5        0.0000 
     12 CA         17.0210   -5.2280    6.6600 C.3       4 GLP5        0.0000 
     13 CA         17.3760   -2.0130    8.0445 C.3       2 GLC5        0.0000 
     14 CA         18.6730   -1.4750    6.8760 C.3       4 GLP5        0.0000 
     15 CA         16.5235   -0.7010    9.1100 C.3       2 GLC5        0.0000 
     16 CA         16.9680    1.1490    9.0070 C.3       4 GLP5        0.0000 
     17 CA         18.5090   -3.8235   13.6880 C.3       2 GLC5        0.0000 
     18 CA         19.4300   -5.3450   13.3240 C.3       6 GLL5        0.0000 
     19 CA         17.5880   -2.3020   14.0520 C.3       4 GLP5        0.0000 
     20 CA         20.8435   -4.5600   14.5725 C.3       2 GLC5        0.0000 
     21 CA         22.2570   -3.7750   15.8210 C.3       4 GLP5        0.0000 
     22 CA         21.0310   -4.4965   12.6880 C.3       2 GLC5        0.0000 
     23 CA         22.6320   -3.6480   12.0520 C.3       4 GLP5        0.0000 
     24 N          15.1285   -5.1900   15.4405 N.am      1 SEC2        0.0000 
     25 N          15.8830   -6.4000   16.1140 N.am      5 SEL2        0.0000 
     26 N          14.3740   -3.9800   14.7670 N.am      3 SEP2        0.0000 
     27 N          14.4520   -5.6035   20.5970 N.am      1 SEC2        0.0000 
     28 N          15.0170   -5.5830   19.3620 N.am      5 SEL2        0.0000 
     29 N          13.8870   -5.6240   21.8320 N.am      3 SEP2        0.0000 
     30 N          13.8735   -5.0890   18.8260 N.am      1 SEC2        0.0000 
     31 N          12.7300   -4.5950   18.2900 N.am      3 SEP2        0.0000 
     32 CA         18.8870   -5.7570   18.0058 C.3       2 GLC5        0.0000 
     33 CA         17.5790   -7.2140   17.6100 C.3       6 GLL5        0.0000 
     34 CA         20.5330   -4.5440   17.8760 C.3       4 GLP5        0.0000 
     35 CA         12.7718   -5.0150   11.1285 C.3       2 GLC5        0.0000 
     36 CA         14.7660   -5.6200   11.3780 C.3       6 GLL5        0.0000 
     37 CA         10.7340   -4.9380   11.3390 C.3       4 GLP5        0.0000 
     38 CA         13.9506   -3.2197   11.4630 C.3       2 GLC5        0.0000 
     39 CA         12.4720   -1.9700   12.2850 C.3       4 GLP5        0.0000 
     40 CA         15.7446   -5.5328    9.0040 C.3       2 GLC5        0.0000 
     41 CA         14.8530   -4.5640   10.4580 C.3       6 GLL5        0.0000 
     42 CA         16.0600   -6.5960    7.3670 C.3       4 GLP5        0.0000 
     43 CA         18.6440   -5.6712   10.8030 C.3       2 GLC5        0.0000 
     44 CA         17.2110   -4.0680   11.1070 C.3       6 GLL5        0.0000 
     45 CA         20.1360   -6.7480   10.0450 C.3       4 GLP5        0.0000 
     46 CA         19.4277   -6.1475   11.6098 C.3       2 GLC5        0.0000 
     47 CA         18.0090   -5.7490   13.0250 C.3       6 GLL5        0.0000 
@<TRIPOS>BOND
@<TRIPOS>SUBSTRUCTURE
     1 SEC2       24 GROUP        1 X    SEC  0     ROOT SEC X 2
     2 GLC5        1 GROUP        1 X    GLC  0     **** GLC X 6
     3 SEP2       26 GROUP        1 Y    SEP  0     ROOT SEP Y 9
     4 GLP5        3 GROUP        1 Y    GLP  0     **** GLP Y 13
     5 SEL2       25 GROUP        1 Z    SEL  0     ROOT SEL Z 16
     6 GLL5        2 GROUP        1 Z    GLL  0     **** GLL Z 20
@<TRIPOS>SET

