#    Name: 1z89_62P_1_ligand
#    Modification time : Mon Apr  7 16:54:55 2014

@<TRIPOS>MOLECULE
1z89_62P_1_ligand
   30    32     1     0     0
SMALL
NO_CHARGES


@<TRIPOS>ATOM
      1 C2         17.5790   -7.2140   17.6100 C.2       1 62P600      0.0000 
      2 C3         16.9770   -7.0030   16.2750 C.2       1 62P600      0.0000 
      3 S8         17.7480   -7.7880   14.8880 S.o2      1 62P600      0.0000 
      4 O19        19.1770   -7.5830   15.0680 O.2       1 62P600      0.0000 
      5 O18        17.0810   -9.0420   14.6410 O.2       1 62P600      0.0000 
      6 C9         17.2540   -6.7130   13.5480 C.2       1 62P600      0.0000 
      7 O13        16.0030   -6.8450   13.0790 O.3       1 62P600      0.0000 
      8 C12        15.9320   -5.8400   12.1300 C.ar      1 62P600      0.0000 
      9 C17        14.7660   -5.6200   11.3780 C.ar      1 62P600      0.0000 
     10 C16        14.8530   -4.5640   10.4580 C.ar      1 62P600      0.0000 
     11 C15        16.0490   -3.8470   10.3640 C.ar      1 62P600      0.0000 
     12 CL21       16.0790   -2.5510    9.2130 Cl        1 62P600      0.0000 
     13 C14        17.2110   -4.0680   11.1070 C.ar      1 62P600      0.0000 
     14 C11        17.0930   -5.1210   12.0150 C.ar      1 62P600      0.0000 
     15 C10        18.0090   -5.7490   13.0250 C.2       1 62P600      0.0000 
     16 C20        19.4300   -5.3450   13.3240 C.3       1 62P600      0.0000 
     17 N4         15.8830   -6.4000   16.1140 N.2       1 62P600      0.0000 
     18 N5         15.2130   -5.9060   17.1660 N.am      1 62P600      0.0000 
     19 C6         15.6270   -6.0260   18.3960 C.2       1 62P600      0.0000 
     20 O7         15.0170   -5.5830   19.3620 O.2       1 62P600      0.0000 
     21 C1         16.9030   -6.7260   18.6610 C.2       1 62P600      0.0000 
     22 H          18.4498   -7.7047   17.6570 H         1 62P600      0.0000 
     23 H          13.9511   -6.1651   11.4885 H         1 62P600      0.0000 
     24 H          14.0574   -4.3263    9.8704 H         1 62P600      0.0000 
     25 H          18.0272   -3.5362   11.0007 H         1 62P600      0.0000 
     26 H          14.2937   -5.3899   16.9685 H         1 62P600      0.0000 
     27 H          17.1994   -6.8002   19.6216 H         1 62P600      0.0000 
     28 H          20.0719   -6.0932   13.1563 H         1 62P600      0.0000 
     29 H          19.7239   -4.5744   12.7585 H         1 62P600      0.0000 
     30 H          19.5446   -5.0688   14.2782 H         1 62P600      0.0000 
@<TRIPOS>BOND
     1    2    1 1    
     2   21    1 2    
     3   22    1 1    
     4    3    2 1    
     5   17    2 2    
     6    4    3 2    
     7    5    3 2    
     8    6    3 1    
     9    7    6 1    
    10   15    6 2    
    11    8    7 1    
    12    9    8 ar   
    13   14    8 ar   
    14   10    9 ar   
    15   23    9 1    
    16   11   10 ar   
    17   24   10 1    
    18   12   11 1    
    19   13   11 ar   
    20   14   13 ar   
    21   25   13 1    
    22   15   14 1    
    23   16   15 1    
    24   28   16 1    
    25   29   16 1    
    26   30   16 1    
    27   18   17 1    
    28   19   18 am   
    29   26   18 1    
    30   20   19 2    
    31   21   19 1    
    32   27   21 1    
@<TRIPOS>SUBSTRUCTURE
     1 62P600      1 GROUP   
@<TRIPOS>SET

