#    Name: 2v13_C40_1_INTS_M
#    Modification time : Tue Mar 25 00:41:36 2014

@<TRIPOS>MOLECULE
2v13_C40_1_INTS_M
   84     0    12     0     0
SMALL
NO_CHARGES


@<TRIPOS>ATOM
      1 CA         85.8750   26.5240  -35.1880 C.3       4 GLC5        0.0000 
      2 CA         86.2930   25.6350  -37.1600 C.3      12 GLL5        0.0000 
      3 CA         85.4570   27.4130  -33.2160 C.3       8 GLP5        0.0000 
      4 CA         86.4350   27.6255  -37.1940 C.3       4 GLC5        0.0000 
      5 CA         86.5770   29.6160  -37.2280 C.3       8 GLP5        0.0000 
      6 CA         84.5355   25.1470  -38.2035 C.3       4 GLC5        0.0000 
      7 CA         82.7780   24.6590  -39.2470 C.3       8 GLP5        0.0000 
      8 CA         87.5630   26.6840  -38.5925 C.3       4 GLC5        0.0000 
      9 CA         88.8330   27.7330  -40.0250 C.3       8 GLP5        0.0000 
     10 CA         86.1155   23.8560  -38.3255 C.3       4 GLC5        0.0000 
     11 CA         85.9380   22.0770  -39.4910 C.3       8 GLP5        0.0000 
     12 N          85.5400   27.0350  -35.6580 N.am      2 SEC2        0.0000 
     13 N          85.7010   25.6730  -35.8710 N.am     10 SEL2        0.0000 
     14 N          85.3790   28.3970  -35.4450 N.am      6 SEP2        0.0000 
     15 CA         83.7430   24.6780  -37.6265 C.3       4 GLC5        0.0000 
     16 CA         84.7080   24.6970  -36.0060 C.3      12 GLL5        0.0000 
     17 CA         86.5770   22.1980  -35.8515 C.3       4 GLC5        0.0000 
     18 CA         85.0570   23.5580  -35.0820 C.3      12 GLL5        0.0000 
     19 CA         88.0970   20.8380  -36.6210 C.3       8 GLP5        0.0000 
     20 CA         81.9770   23.6480  -34.5465 C.3       4 GLC5        0.0000 
     21 CA         83.6860   22.9810  -34.8030 C.3      12 GLL5        0.0000 
     22 CA         80.2680   24.3150  -34.2900 C.3       8 GLP5        0.0000 
     23 N          81.5840   17.0385  -34.3625 N.am      2 SEC2        0.0000 
     24 N          81.8310   18.2950  -34.3790 N.am     10 SEL2        0.0000 
     25 N          81.3370   15.7820  -34.3460 N.am      6 SEP2        0.0000 
     26 CA         79.4650   20.7455  -38.6855 C.3       4 GLC5        0.0000 
     27 CA         80.9610   19.8110  -38.0050 C.3      12 GLL5        0.0000 
     28 CA         77.9690   21.6800  -39.3660 C.3       8 GLP5        0.0000 
     29 OD1        84.7130   19.1220  -40.5290 O.co2     3 ASC3        0.0000 
     30 OD1        84.7680   18.2490  -39.2870 O.co2    11 ASL3        0.0000 
     31 OD1        84.6580   19.9950  -41.7710 O.co2     7 ASP3        0.0000 
     32 OD1        83.6900   18.7755  -40.4855 O.co2     3 ASC3        0.0000 
     33 OD1        82.6120   19.3020  -41.6840 O.co2     7 ASP3        0.0000 
     34 OD1        86.4345   18.0025  -39.4455 O.co2     3 ASC3        0.0000 
     35 OD1        88.1010   17.7560  -39.6040 O.co2     7 ASP3        0.0000 
     36 OD1        86.0015   18.7920  -40.0255 O.co2     3 ASC3        0.0000 
     37 OD1        87.2350   19.3350  -40.7640 O.co2     7 ASP3        0.0000 
     38 O          84.7130   19.1220  -40.5290 O.2       1 ALC1        0.0000 
     39 O          84.7680   18.2490  -39.2870 O.2       9 ALL1        0.0000 
     40 O          84.6580   19.9950  -41.7710 O.2       5 ALP1        0.0000 
     41 O          83.6900   18.7755  -40.4855 O.2       1 ALC1        0.0000 
     42 O          82.6120   19.3020  -41.6840 O.2       5 ALP1        0.0000 
     43 O          86.4345   18.0025  -39.4455 O.2       1 ALC1        0.0000 
     44 O          88.1010   17.7560  -39.6040 O.2       5 ALP1        0.0000 
     45 O          85.3630   19.1880  -38.7440 O.2       1 ALC1        0.0000 
     46 O          85.9580   20.1270  -38.2010 O.2       5 ALP1        0.0000 
     47 O          83.2775   18.2035  -41.4205 O.2       1 ALC1        0.0000 
     48 O          83.9430   17.1050  -41.1570 O.2       9 ALL1        0.0000 
     49 CA         84.4755   13.5735  -38.4510 C.3       4 GLC5        0.0000 
     50 CA         84.4860   15.0650  -39.9620 C.3      12 GLL5        0.0000 
     51 CA         84.4650   12.0820  -36.9400 C.3       8 GLP5        0.0000 
     52 CA         87.4225   13.7280  -42.2090 C.3       4 GLC5        0.0000 
     53 CA         85.6480   13.2880  -41.2340 C.3      12 GLL5        0.0000 
     54 CA         89.1970   14.1680  -43.1840 C.3       8 GLP5        0.0000 
     55 CA         86.8410   11.5325  -40.6405 C.3       4 GLC5        0.0000 
     56 CA         88.0340    9.7770  -40.0470 C.3       8 GLP5        0.0000 
     57 CA         85.7825   11.5545  -42.4925 C.3       4 GLC5        0.0000 
     58 CA         85.9170    9.8210  -43.7510 C.3       8 GLP5        0.0000 
     59 N          82.4255   12.5960  -39.0845 N.am      2 SEC2        0.0000 
     60 N          82.6970   12.9220  -40.4510 N.am     10 SEL2        0.0000 
     61 N          82.1540   12.2700  -37.7180 N.am      6 SEP2        0.0000 
     62 O          83.6755   14.2915  -43.3890 O.2       1 ALC1        0.0000 
     63 O          83.0160   13.0480  -42.6590 O.2       9 ALL1        0.0000 
     64 O          84.3350   15.5350  -44.1190 O.2       5 ALP1        0.0000 
     65 CA         80.8525   15.1260  -43.3315 C.3       4 GLC5        0.0000 
     66 CA         80.5630   13.2390  -42.6730 C.3      12 GLL5        0.0000 
     67 CA         81.1420   17.0130  -43.9900 C.3       8 GLP5        0.0000 
     68 CA         80.1905   14.5660  -41.3960 C.3       4 GLC5        0.0000 
     69 CA         79.8180   15.8930  -40.1190 C.3       8 GLP5        0.0000 
     70 CA         78.1190   11.0090  -41.0275 C.3       4 GLC5        0.0000 
     71 CA         78.8740   11.3490  -42.7430 C.3      12 GLL5        0.0000 
     72 CA         77.3640   10.6690  -39.3120 C.3       8 GLP5        0.0000 
     73 CA         85.1697   25.7703  -34.3800 C.3       4 GLC5        0.0000 
     74 CA         79.6535   22.8478  -31.4297 C.3       4 GLC5        0.0000 
     75 CA         81.5840   22.0740  -31.2900 C.3      12 GLL5        0.0000 
     76 CA         78.1950   24.0940  -31.4670 C.3       8 GLP5        0.0000 
     77 CA         80.1188   19.1517  -31.3580 C.3       4 GLC5        0.0000 
     78 CA         80.6400   21.1290  -31.4950 C.3      12 GLL5        0.0000 
     79 CA         79.5600   17.5940  -30.6760 C.3       8 GLP5        0.0000 
     80 CA         81.5706   16.4345  -39.7814 C.3       4 GLC5        0.0000 
     81 CA         82.4300   17.9810  -38.7790 C.3      12 GLL5        0.0000 
     82 CA         77.5182   11.5060  -43.8252 C.3       4 GLC5        0.0000 
     83 CA         79.2890   12.7330  -43.3300 C.3      12 GLL5        0.0000 
     84 CA         75.9550   10.9710  -44.6140 C.3       8 GLP5        0.0000 
@<TRIPOS>BOND
@<TRIPOS>SUBSTRUCTURE
     1 ALC1       38 GROUP        1 X    ALC  0     ROOT ALC X 1
     2 SEC2       12 GROUP        1 X    SEC  0     **** SEC X 2
     3 ASC3       29 GROUP        1 X    ASC  0     **** ASC X 3
     4 GLC5        1 GROUP        1 X    GLC  0     **** GLC X 6
     5 ALP1       40 GROUP        1 Y    ALP  0     ROOT ALP Y 8
     6 SEP2       14 GROUP        1 Y    SEP  0     **** SEP Y 9
     7 ASP3       31 GROUP        1 Y    ASP  0     **** ASP Y 10
     8 GLP5        3 GROUP        1 Y    GLP  0     **** GLP Y 13
     9 ALL1       39 GROUP        1 Z    ALL  0     ROOT ALL Z 15
    10 SEL2       13 GROUP        1 Z    SEL  0     **** SEL Z 16
    11 ASL3       30 GROUP        1 Z    ASL  0     **** ASL Z 17
    12 GLL5        2 GROUP        1 Z    GLL  0     **** GLL Z 20
@<TRIPOS>SET

