#    Name: 2v13_C40_1_ligand
#    Modification time : Tue Mar 25 00:41:36 2014

@<TRIPOS>MOLECULE
2v13_C40_1_ligand
   77    77     1     0     0
SMALL
NO_CHARGES


@<TRIPOS>ATOM
      1 C1         86.2930   25.6350  -37.1600 C.3       1 C401341     0.0000 
      2 O2         85.7010   25.6730  -35.8710 O.3       1 C401341     0.0000 
      3 C3         84.7080   24.6970  -36.0060 C.3       1 C401341     0.0000 
      4 C4         85.0570   23.5580  -35.0820 C.3       1 C401341     0.0000 
      5 C5         83.6860   22.9810  -34.8030 C.3       1 C401341     0.0000 
      6 O6         83.7070   21.7090  -34.1790 O.3       1 C401341     0.0000 
      7 C7         82.7110   21.3470  -33.2880 C.ar      1 C401341     0.0000 
      8 C8         82.6060   22.1810  -32.1870 C.ar      1 C401341     0.0000 
      9 C9         81.5840   22.0740  -31.2900 C.ar      1 C401341     0.0000 
     10 C10        80.6400   21.1290  -31.4950 C.ar      1 C401341     0.0000 
     11 C11        80.7150   20.2900  -32.5850 C.ar      1 C401341     0.0000 
     12 C12        81.7410   20.3720  -33.4870 C.ar      1 C401341     0.0000 
     13 C13        81.8070   19.4940  -34.5830 C.2       1 C401341     0.0000 
     14 O14        81.8310   18.2950  -34.3790 O.2       1 C401341     0.0000 
     15 C16        82.9160   18.9620  -36.6150 C.3       1 C401341     0.0000 
     16 N15        82.2470   19.8980  -35.7450 N.am      1 C401341     0.0000 
     17 C18        80.9610   19.8110  -38.0050 C.3       1 C401341     0.0000 
     18 C17        82.4140   19.2530  -37.9850 C.3       1 C401341     0.0000 
     19 C19        82.4300   17.9810  -38.7790 C.3       1 C401341     0.0000 
     20 N21        84.7680   18.2490  -39.2870 N.4       1 C401341     0.0000 
     21 C20        83.7330   17.3190  -38.9240 C.3       1 C401341     0.0000 
     22 C22        83.5650   16.3020  -40.0360 C.3       1 C401341     0.0000 
     23 O23        83.9430   17.1050  -41.1570 O.3       1 C401341     0.0000 
     24 C24        84.4860   15.0650  -39.9620 C.3       1 C401341     0.0000 
     25 C25        84.5070   14.2200  -41.2130 C.3       1 C401341     0.0000 
     26 C26        85.6480   13.2880  -41.2340 C.3       1 C401341     0.0000 
     27 C27        83.3200   13.3510  -41.4160 C.2       1 C401341     0.0000 
     28 O28        82.6970   12.9220  -40.4510 O.2       1 C401341     0.0000 
     29 C30        81.7740   12.3730  -42.9820 C.3       1 C401341     0.0000 
     30 N29        83.0160   13.0480  -42.6590 N.am      1 C401341     0.0000 
     31 C31        80.5630   13.2390  -42.6730 C.3       1 C401341     0.0000 
     32 C32        79.2890   12.7330  -43.3300 C.3       1 C401341     0.0000 
     33 C33        78.8740   11.3490  -42.7430 C.3       1 C401341     0.0000 
     34 H          84.6491   24.3003  -37.0233 H         1 C401341     0.0000 
     35 H          83.7182   25.0678  -35.7255 H         1 C401341     0.0000 
     36 H          85.4809   23.9278  -34.1909 H         1 C401341     0.0000 
     37 H          85.6513   22.8484  -35.5858 H         1 C401341     0.0000 
     38 H          83.1339   22.9461  -35.7744 H         1 C401341     0.0000 
     39 H          83.1292   23.7265  -34.1834 H         1 C401341     0.0000 
     40 H          83.3408   22.9158  -32.0464 H         1 C401341     0.0000 
     41 H          81.5380   22.7027  -30.4759 H         1 C401341     0.0000 
     42 H          79.8455   21.0249  -30.8309 H         1 C401341     0.0000 
     43 H          79.9662   19.5727  -32.7235 H         1 C401341     0.0000 
     44 H          82.6716   17.9405  -36.3531 H         1 C401341     0.0000 
     45 H          83.9891   19.1017  -36.5892 H         1 C401341     0.0000 
     46 H          82.1474   20.8640  -36.0936 H         1 C401341     0.0000 
     47 H          83.0526   19.9691  -38.4748 H         1 C401341     0.0000 
     48 H          82.0033   18.1947  -39.7951 H         1 C401341     0.0000 
     49 H          81.6969   17.2677  -38.3163 H         1 C401341     0.0000 
     50 H          83.9729   16.7850  -38.0273 H         1 C401341     0.0000 
     51 H          82.5524   16.0215  -40.1074 H         1 C401341     0.0000 
     52 H          84.1643   14.4464  -39.1039 H         1 C401341     0.0000 
     53 H          85.5108   15.4113  -39.7330 H         1 C401341     0.0000 
     54 H          84.6008   14.8732  -42.0893 H         1 C401341     0.0000 
     55 H          81.6772   11.4338  -42.4122 H         1 C401341     0.0000 
     56 H          81.7388   12.1047  -44.0511 H         1 C401341     0.0000 
     57 H          83.6360   13.2706  -43.4639 H         1 C401341     0.0000 
     58 H          80.7595   14.2662  -43.0127 H         1 C401341     0.0000 
     59 H          80.4159   13.2759  -41.5839 H         1 C401341     0.0000 
     60 H          79.4433   12.6191  -44.3992 H         1 C401341     0.0000 
     61 H          78.4785   13.4353  -43.1570 H         1 C401341     0.0000 
     62 H          86.9174   26.4026  -37.3047 H         1 C401341     0.0000 
     63 H          86.8204   24.7973  -37.3019 H         1 C401341     0.0000 
     64 H          85.6060   25.6752  -37.8855 H         1 C401341     0.0000 
     65 H          80.8852   20.6680  -37.4953 H         1 C401341     0.0000 
     66 H          80.6466   19.9951  -38.9363 H         1 C401341     0.0000 
     67 H          80.3111   19.1693  -37.5977 H         1 C401341     0.0000 
     68 H          84.8793   18.9674  -38.6003 H         1 C401341     0.0000 
     69 H          85.6549   17.7977  -39.3855 H         1 C401341     0.0000 
     70 H          84.5716   18.7024  -40.1564 H         1 C401341     0.0000 
     71 H          86.5228   13.7710  -41.1960 H         1 C401341     0.0000 
     72 H          85.6271   12.6578  -40.4578 H         1 C401341     0.0000 
     73 H          85.6569   12.7304  -42.0641 H         1 C401341     0.0000 
     74 H          79.5808   10.6567  -42.8888 H         1 C401341     0.0000 
     75 H          78.7101   11.3975  -41.7577 H         1 C401341     0.0000 
     76 H          78.0347   11.0040  -43.1631 H         1 C401341     0.0000 
     77 H          83.2915   17.8636  -41.1632 H         1 C401341     0.0000 
@<TRIPOS>BOND
     1    2    1 1    
     2   62    1 1    
     3   63    1 1    
     4   64    1 1    
     5    3    2 1    
     6    4    3 1    
     7   34    3 1    
     8   35    3 1    
     9    5    4 1    
    10   36    4 1    
    11   37    4 1    
    12    6    5 1    
    13   38    5 1    
    14   39    5 1    
    15    7    6 1    
    16    8    7 ar   
    17   12    7 ar   
    18    9    8 ar   
    19   40    8 1    
    20   10    9 ar   
    21   41    9 1    
    22   11   10 ar   
    23   42   10 1    
    24   12   11 ar   
    25   43   11 1    
    26   13   12 1    
    27   14   13 2    
    28   16   13 am   
    29   16   15 1    
    30   18   15 1    
    31   44   15 1    
    32   45   15 1    
    33   46   16 1    
    34   18   17 1    
    35   65   17 1    
    36   66   17 1    
    37   67   17 1    
    38   19   18 1    
    39   47   18 1    
    40   21   19 1    
    41   48   19 1    
    42   49   19 1    
    43   21   20 1    
    44   68   20 1    
    45   69   20 1    
    46   70   20 1    
    47   22   21 1    
    48   50   21 1    
    49   23   22 1    
    50   24   22 1    
    51   51   22 1    
    52   77   23 1    
    53   25   24 1    
    54   52   24 1    
    55   53   24 1    
    56   26   25 1    
    57   27   25 1    
    58   54   25 1    
    59   71   26 1    
    60   72   26 1    
    61   73   26 1    
    62   28   27 2    
    63   30   27 am   
    64   30   29 1    
    65   31   29 1    
    66   55   29 1    
    67   56   29 1    
    68   57   30 1    
    69   32   31 1    
    70   58   31 1    
    71   59   31 1    
    72   33   32 1    
    73   60   32 1    
    74   61   32 1    
    75   74   33 1    
    76   75   33 1    
    77   76   33 1    
@<TRIPOS>SUBSTRUCTURE
     1 C401341     1 GROUP   
@<TRIPOS>SET

