#    Name: 3eld_SFG_1_INTS_M
#    Modification time : Tue Mar 25 02:05:59 2014

@<TRIPOS>MOLECULE
3eld_SFG_1_INTS_M
   60     0    12     0     0
SMALL
NO_CHARGES


@<TRIPOS>ATOM
      1 OD1       -22.7295   -3.4500    9.4590 O.co2     3 ASC3        0.0000 
      2 OD1       -23.2470   -3.1500    8.0360 O.co2    11 ASL3        0.0000 
      3 OD1       -22.2120   -3.7500   10.8820 O.co2     7 ASP3        0.0000 
      4 O         -22.7295   -3.4500    9.4590 O.2       1 ALC1        0.0000 
      5 O         -23.2470   -3.1500    8.0360 O.2       9 ALL1        0.0000 
      6 O         -22.2120   -3.7500   10.8820 O.2       5 ALP1        0.0000 
      7 CA        -22.2540   -3.2595    7.1365 C.3       4 GLC5        0.0000 
      8 CA        -23.6560   -1.7440    7.8650 C.3      12 GLL5        0.0000 
      9 CA        -20.8520   -4.7750    6.4080 C.3       8 GLP5        0.0000 
     10 N         -21.6240    0.5030    6.2400 N.am      2 SEC2        0.0000 
     11 N         -22.8860    0.1230    6.5780 N.am     10 SEL2        0.0000 
     12 N         -20.3620    0.8830    5.9020 N.am      6 SEP2        0.0000 
     13 N         -22.9855   -0.2805    4.9865 N.am      2 SEC2        0.0000 
     14 N         -23.0850   -0.6840    3.3950 N.am      6 SEP2        0.0000 
     15 CA        -24.4325   -3.5050   10.3860 C.3       4 GLC5        0.0000 
     16 CA        -24.9810   -1.5800   10.0150 C.3      12 GLL5        0.0000 
     17 CA        -23.8840   -5.4300   10.7570 C.3       8 GLP5        0.0000 
     18 CA        -26.8520   -3.2145   13.2175 C.3       4 GLC5        0.0000 
     19 CA        -26.5040   -1.4240   12.0180 C.3      12 GLL5        0.0000 
     20 CA        -27.2000   -5.0050   14.4170 C.3       8 GLP5        0.0000 
     21 CA        -28.8140   -2.2550   10.4770 C.3       4 GLC5        0.0000 
     22 CA        -27.7940   -0.8050   11.4230 C.3      12 GLL5        0.0000 
     23 CA        -29.8340   -3.7050    9.5310 C.3       8 GLP5        0.0000 
     24 N         -30.7400    2.5025   12.9900 N.am      2 SEC2        0.0000 
     25 N         -30.1890    1.7690   12.0210 N.am     10 SEL2        0.0000 
     26 N         -31.2910    3.2360   13.9590 N.am      6 SEP2        0.0000 
     27 CA        -29.9310   -2.1620   10.7105 C.3       4 GLC5        0.0000 
     28 CA        -30.0280   -0.6190   11.8900 C.3      12 GLL5        0.0000 
     29 CA        -33.6130   -0.7895   13.6165 C.3       4 GLC5        0.0000 
     30 CA        -32.7940   -2.3790   13.4410 C.3      12 GLL5        0.0000 
     31 CA        -34.4320    0.8000   13.7920 C.3       8 GLP5        0.0000 
     32 CA        -34.4885   -1.2825   12.8275 C.3       4 GLC5        0.0000 
     33 CA        -33.9900   -3.0590   13.2490 C.3      12 GLL5        0.0000 
     34 CA        -34.9870    0.4940   12.4060 C.3       8 GLP5        0.0000 
     35 CA        -35.9780   -3.1860   12.3570 C.3       4 GLC5        0.0000 
     36 CA        -37.9660   -3.3130   11.4650 C.3       8 GLP5        0.0000 
     37 CA        -33.8815   -4.8415   12.5575 C.3       4 GLC5        0.0000 
     38 CA        -33.7730   -6.6240   11.8660 C.3       8 GLP5        0.0000 
     39 O         -36.0720   -3.8840   14.1965 O.2       1 ALC1        0.0000 
     40 O         -34.6670   -3.5640   14.2840 O.2       9 ALL1        0.0000 
     41 O         -37.4770   -4.2040   14.1090 O.2       5 ALP1        0.0000 
     42 N         -35.4695   -4.2125   11.6290 N.am      2 SEC2        0.0000 
     43 N         -34.4610   -3.1890   11.9960 N.am     10 SEL2        0.0000 
     44 N         -36.4780   -5.2360   11.2620 N.am      6 SEP2        0.0000 
     45 CA        -31.8160   -3.2000   10.2440 C.3       4 GLC5        0.0000 
     46 CA        -33.7980   -2.6950   10.9570 C.3      12 GLL5        0.0000 
     47 CA        -33.4210   -1.8880    9.3215 C.3       4 GLC5        0.0000 
     48 CA        -33.0440   -1.0810    7.6860 C.3       8 GLP5        0.0000 
     49 CA        -34.3925   -1.1005   11.6815 C.3       4 GLC5        0.0000 
     50 CA        -35.8820   -3.0040   11.2110 C.3       4 GLC5        0.0000 
     51 CA        -34.0140   -4.3710   10.1975 C.3       4 GLC5        0.0000 
     52 CA        -34.2300   -6.0470    9.4380 C.3       8 GLP5        0.0000 
     53 N         -33.3015   -0.8185   10.2490 N.am      2 SEC2        0.0000 
     54 N         -32.6490   -2.0400   11.1150 N.am     10 SEL2        0.0000 
     55 N         -33.9540    0.4030    9.3830 N.am      6 SEP2        0.0000 
     56 CA        -30.9820   -2.7895   10.9310 C.3       4 GLC5        0.0000 
     57 CA        -32.1300   -1.8740   12.3310 C.3      12 GLL5        0.0000 
     58 CA        -33.5585   -0.6900   12.3685 C.3       4 GLC5        0.0000 
     59 CA        -31.7090   -3.9787   12.8020 C.3       4 GLC5        0.0000 
     60 CA        -30.6570   -5.6610   12.7660 C.3       8 GLP5        0.0000 
@<TRIPOS>BOND
@<TRIPOS>SUBSTRUCTURE
     1 ALC1        4 GROUP        1 X    ALC  0     ROOT ALC X 1
     2 SEC2       10 GROUP        1 X    SEC  0     **** SEC X 2
     3 ASC3        1 GROUP        1 X    ASC  0     **** ASC X 3
     4 GLC5        7 GROUP        1 X    GLC  0     **** GLC X 6
     5 ALP1        6 GROUP        1 Y    ALP  0     ROOT ALP Y 8
     6 SEP2       12 GROUP        1 Y    SEP  0     **** SEP Y 9
     7 ASP3        3 GROUP        1 Y    ASP  0     **** ASP Y 10
     8 GLP5        9 GROUP        1 Y    GLP  0     **** GLP Y 13
     9 ALL1        5 GROUP        1 Z    ALL  0     ROOT ALL Z 15
    10 SEL2       11 GROUP        1 Z    SEL  0     **** SEL Z 16
    11 ASL3        2 GROUP        1 Z    ASL  0     **** ASL Z 17
    12 GLL5        8 GROUP        1 Z    GLL  0     **** GLL Z 20
@<TRIPOS>SET

