#    Name: 3eld_SFG_1_ligand
#    Modification time : Tue Mar 25 02:05:59 2014

@<TRIPOS>MOLECULE
3eld_SFG_1_ligand
   48    50     1     0     0
SMALL
NO_CHARGES


@<TRIPOS>ATOM
      1 N         -23.2470   -3.1500    8.0360 N.4       1 SFG293      0.0000 
      2 CA        -23.6560   -1.7440    7.8650 C.3       1 SFG293      0.0000 
      3 C         -22.6320   -1.0390    6.9610 C.2       1 SFG293      0.0000 
      4 O         -21.6190   -1.6950    6.6540 O.co2     1 SFG293      0.0000 
      5 OXT       -22.8860    0.1230    6.5780 O.co2     1 SFG293      0.0000 
      6 CB        -23.7520   -1.0590    9.2370 C.3       1 SFG293      0.0000 
      7 CG        -24.9810   -1.5800   10.0150 C.3       1 SFG293      0.0000 
      8 CD        -25.2060   -0.8920   11.3630 C.3       1 SFG293      0.0000 
      9 NE        -24.0870   -1.2320   12.2650 N.3       1 SFG293      0.0000 
     10 C5'       -26.5040   -1.4240   12.0180 C.3       1 SFG293      0.0000 
     11 C4'       -27.7940   -0.8050   11.4230 C.3       1 SFG293      0.0000 
     12 O4'       -28.9410   -1.5400   11.9140 O.3       1 SFG293      0.0000 
     13 C3'       -28.0310    0.6540   11.8460 C.3       1 SFG293      0.0000 
     14 O3'       -28.0300    1.4550   10.6670 O.3       1 SFG293      0.0000 
     15 C2'       -29.4220    0.6500   12.4710 C.3       1 SFG293      0.0000 
     16 O2'       -30.1890    1.7690   12.0210 O.3       1 SFG293      0.0000 
     17 C1'       -30.0280   -0.6190   11.8900 C.3       1 SFG293      0.0000 
     18 N9        -31.0340   -1.2720   12.7640 N.pl3     1 SFG293      0.0000 
     19 C8        -30.9910   -1.4010   14.0920 C.2       1 SFG293      0.0000 
     20 N7        -32.0640   -2.0770   14.5050 N.2       1 SFG293      0.0000 
     21 C5        -32.7940   -2.3790   13.4410 C.ar      1 SFG293      0.0000 
     22 C6        -33.9900   -3.0590   13.2490 C.ar      1 SFG293      0.0000 
     23 N6        -34.6670   -3.5640   14.2840 N.pl3     1 SFG293      0.0000 
     24 N1        -34.4610   -3.1890   11.9960 N.ar      1 SFG293      0.0000 
     25 C2        -33.7980   -2.6950   10.9570 C.ar      1 SFG293      0.0000 
     26 N3        -32.6490   -2.0400   11.1150 N.ar      1 SFG293      0.0000 
     27 C4        -32.1300   -1.8740   12.3310 C.ar      1 SFG293      0.0000 
     28 H         -24.6193   -1.6969    7.3876 H         1 SFG293      0.0000 
     29 H         -23.8495    0.0119    9.0982 H         1 SFG293      0.0000 
     30 H         -22.8556   -1.2717    9.8086 H         1 SFG293      0.0000 
     31 H         -24.8590   -2.6620   10.1782 H         1 SFG293      0.0000 
     32 H         -25.8755   -1.4450    9.3874 H         1 SFG293      0.0000 
     33 H         -25.2865    0.1497   11.2311 H         1 SFG293      0.0000 
     34 H         -26.4723   -1.2094   13.0919 H         1 SFG293      0.0000 
     35 H         -26.5439   -2.5117   11.8924 H         1 SFG293      0.0000 
     36 H         -27.7512   -0.8519   10.3572 H         1 SFG293      0.0000 
     37 H         -27.3214    0.9226   12.5546 H         1 SFG293      0.0000 
     38 H         -29.3440    0.5516   13.5002 H         1 SFG293      0.0000 
     39 H         -30.3743   -0.4660   10.9289 H         1 SFG293      0.0000 
     40 H         -30.2837   -1.0541   14.6705 H         1 SFG293      0.0000 
     41 H         -35.4923   -4.0821   14.0593 H         1 SFG293      0.0000 
     42 H         -34.2876   -3.3786   15.1905 H         1 SFG293      0.0000 
     43 H         -34.1890   -2.8234    9.9825 H         1 SFG293      0.0000 
     44 H         -23.0865   -3.3759    8.9969 H         1 SFG293      0.0000 
     45 H         -23.9436   -3.7831    7.6984 H         1 SFG293      0.0000 
     46 H         -22.4018   -3.3536    7.5419 H         1 SFG293      0.0000 
     47 H         -27.4658    2.2487   10.8940 H         1 SFG293      0.0000 
     48 H         -29.6470    2.1752   11.2854 H         1 SFG293      0.0000 
@<TRIPOS>BOND
     1    2    1 1    
     2   44    1 1    
     3   45    1 1    
     4   46    1 1    
     5    3    2 1    
     6    6    2 1    
     7   28    2 1    
     8    4    3 ar   
     9    5    3 ar   
    10    7    6 1    
    11   29    6 1    
    12   30    6 1    
    13    8    7 1    
    14   31    7 1    
    15   32    7 1    
    16    9    8 1    
    17   10    8 1    
    18   33    8 1    
    19   11   10 1    
    20   34   10 1    
    21   35   10 1    
    22   12   11 1    
    23   13   11 1    
    24   36   11 1    
    25   17   12 1    
    26   14   13 1    
    27   15   13 1    
    28   37   13 1    
    29   47   14 1    
    30   16   15 1    
    31   17   15 1    
    32   38   15 1    
    33   48   16 1    
    34   18   17 1    
    35   39   17 1    
    36   19   18 1    
    37   27   18 1    
    38   20   19 2    
    39   40   19 1    
    40   21   20 1    
    41   22   21 ar   
    42   27   21 ar   
    43   23   22 1    
    44   24   22 ar   
    45   41   23 1    
    46   42   23 1    
    47   25   24 ar   
    48   26   25 ar   
    49   43   25 1    
    50   27   26 ar   
@<TRIPOS>SUBSTRUCTURE
     1 SFG293      1 GROUP   
@<TRIPOS>SET

