#    Name: 1o9j_NAD_3_INTS_M
#    Modification time : Mon Mar 24 19:51:51 2014

@<TRIPOS>MOLECULE
1o9j_NAD_3_INTS_M
   97     0     9     0     0
SMALL
NO_CHARGES


@<TRIPOS>ATOM
      1 N          33.3005   18.4010   -7.1410 N.am      2 SEC2        0.0000 
      2 N          34.4760   18.2010   -8.1910 N.am      8 SEL2        0.0000 
      3 N          32.1250   18.6010   -6.0910 N.am      5 SEP2        0.0000 
      4 N          33.4620   18.8765   -8.5080 N.am      2 SEC2        0.0000 
      5 N          32.4480   19.5520   -8.8250 N.am      5 SEP2        0.0000 
      6 CA         37.2195   16.2045   -4.2650 C.3       3 GLC5        0.0000 
      7 CA         36.4340   16.2100   -6.1510 C.3       9 GLL5        0.0000 
      8 CA         38.0050   16.1990   -2.3790 C.3       6 GLP5        0.0000 
      9 CA         34.4745   15.3710   -6.6870 C.3       3 GLC5        0.0000 
     10 CA         32.5150   14.5320   -7.2230 C.3       6 GLP5        0.0000 
     11 CA         34.6000   16.5790   -5.3040 C.3       3 GLC5        0.0000 
     12 CA         32.7660   16.9480   -4.4570 C.3       6 GLP5        0.0000 
     13 CA         36.6030   13.7340   -4.4985 C.3       3 GLC5        0.0000 
     14 CA         36.7830   14.7680   -6.4700 C.3       9 GLL5        0.0000 
     15 CA         36.4230   12.7000   -2.5270 C.3       6 GLP5        0.0000 
     16 CA         34.9555   14.0320   -6.9090 C.3       3 GLC5        0.0000 
     17 CA         33.1280   13.2960   -7.3480 C.3       6 GLP5        0.0000 
     18 CA         40.0340   14.4005   -5.7290 C.3       3 GLC5        0.0000 
     19 CA         38.2710   14.5900   -6.7270 C.3       9 GLL5        0.0000 
     20 CA         41.7970   14.2110   -4.7310 C.3       6 GLP5        0.0000 
     21 N          39.5110   12.5635   -6.9495 N.am      2 SEC2        0.0000 
     22 N          38.6820   13.3800   -6.1380 N.am      8 SEL2        0.0000 
     23 N          40.3400   11.7470   -7.7610 N.am      5 SEP2        0.0000 
     24 O          38.5400   13.5360   -4.8230 O.2       1 ALC1        0.0000 
     25 O          38.6820   13.3800   -6.1380 O.2       7 ALL1        0.0000 
     26 O          38.3980   13.6920   -3.5080 O.2       4 ALP1        0.0000 
     27 O          40.6230   14.7355   -8.6860 O.2       1 ALC1        0.0000 
     28 O          39.4510   13.9540   -8.8250 O.2       7 ALL1        0.0000 
     29 O          41.7950   15.5170   -8.5470 O.2       4 ALP1        0.0000 
     30 CA         36.4950   12.3845   -7.5785 C.3       3 GLC5        0.0000 
     31 CA         37.0760   13.8660   -8.6050 C.3       9 GLL5        0.0000 
     32 CA         35.9140   10.9030   -6.5520 C.3       6 GLP5        0.0000 
     33 CA         35.1020   13.5810   -7.9765 C.3       3 GLC5        0.0000 
     34 CA         36.7860   12.7660  -14.3910 C.3       3 GLC5        0.0000 
     35 CA         35.1560   12.9490  -13.0040 C.3       9 GLL5        0.0000 
     36 CA         38.4160   12.5830  -15.7780 C.3       6 GLP5        0.0000 
     37 CA         34.9220    9.7560   -9.7770 C.3       3 GLC5        0.0000 
     38 CA         35.0500   11.1190  -11.4510 C.3       9 GLL5        0.0000 
     39 CA         34.7940    8.3930   -8.1030 C.3       6 GLP5        0.0000 
     40 CA         36.3555    9.9555  -11.3045 C.3       3 GLC5        0.0000 
     41 CA         37.6610    8.7920  -11.1580 C.3       6 GLP5        0.0000 
     42 CA         35.3140    9.6830  -12.8785 C.3       3 GLC5        0.0000 
     43 CA         35.5780    8.2470  -14.3060 C.3       6 GLP5        0.0000 
     44 CA         33.4090   10.6585  -10.9940 C.3       3 GLC5        0.0000 
     45 CA         31.7680   10.1980  -10.5370 C.3       6 GLP5        0.0000 
     46 N          38.5030   21.1105   -4.9430 N.am      2 SEC2        0.0000 
     47 N          37.1140   21.1070   -5.9980 N.am      8 SEL2        0.0000 
     48 N          39.8920   21.1140   -3.8880 N.am      5 SEP2        0.0000 
     49 CA         36.1555   19.2720   -2.9370 C.3       3 GLC5        0.0000 
     50 CA         35.3270   21.1920   -3.6440 C.3       9 GLL5        0.0000 
     51 CA         36.9840   17.3520   -2.2300 C.3       6 GLP5        0.0000 
     52 CA         35.9875   22.4480   -2.0785 C.3       3 GLC5        0.0000 
     53 CA         36.6480   23.7040   -0.5130 C.3       6 GLP5        0.0000 
     54 CA         33.3065   18.8885   -3.9960 C.3       3 GLC5        0.0000 
     55 CA         33.8470   20.8290   -3.5350 C.3       9 GLL5        0.0000 
     56 CA         32.5830   20.2650   -5.0865 C.3       3 GLC5        0.0000 
     57 CA         31.3190   19.7010   -6.6380 C.3       6 GLP5        0.0000 
     58 O          31.2575   23.4325   -3.4165 O.2       1 ALC1        0.0000 
     59 O          31.9260   22.2750   -3.8180 O.2       7 ALL1        0.0000 
     60 O          30.5890   24.5900   -3.0150 O.2       4 ALP1        0.0000 
     61 O          31.0255   23.3240   -1.0040 O.2       1 ALC1        0.0000 
     62 O          31.2860   21.9500   -1.1860 O.2       7 ALL1        0.0000 
     63 O          30.7650   24.6980   -0.8220 O.2       4 ALP1        0.0000 
     64 O          30.9375   23.2700   -2.1005 O.2       1 ALC1        0.0000 
     65 CA         32.6440   18.4630   -3.1565 C.3       3 GLC5        0.0000 
     66 CA         32.5220   19.9780   -1.8560 C.3       9 GLL5        0.0000 
     67 CA         31.2285   20.0100    0.9235 C.3       3 GLC5        0.0000 
     68 CA         31.2750   18.7820   -0.1600 C.3       9 GLL5        0.0000 
     69 CA         31.1820   21.2380    2.0070 C.3       6 GLP5        0.0000 
     70 O          28.6085   18.7390   -0.2930 O.2       1 ALC1        0.0000 
     71 O          28.7230   17.7730    0.8750 O.2       7 ALL1        0.0000 
     72 O          28.4940   19.7050   -1.4610 O.2       4 ALP1        0.0000 
     73 CA         32.4100   20.1475    1.0790 C.3       3 GLC5        0.0000 
     74 CA         33.6380   19.0570    0.1510 C.3       9 GLL5        0.0000 
     75 CA         36.7205   12.7910   -6.5752 C.3       3 GLC5        0.0000 
     76 CA         38.5060   13.6165  -10.2428 C.3       3 GLC5        0.0000 
     77 CA         39.3020   13.0060  -12.0600 C.3       6 GLP5        0.0000 
     78 CA         37.5321   13.1196  -11.8496 C.3       3 GLC5        0.0000 
     79 CA         35.8010   13.7020  -12.0210 C.3       9 GLL5        0.0000 
     80 CA         34.3431   14.1421  -11.1516 C.3       3 GLC5        0.0000 
     81 CA         32.9240   15.0510  -10.6640 C.3       6 GLP5        0.0000 
     82 CA         33.5835   22.8255   -1.0230 C.3       3 GLC5        0.0000 
     83 CA         33.0120   21.9860   -2.9610 C.3       9 GLL5        0.0000 
     84 CA         34.3880   23.9200    0.2390 C.3       6 GLP5        0.0000 
     85 CA         31.8580   20.9825    0.1373 C.3       3 GLC5        0.0000 
     86 CA         32.5460   21.4760   -1.6090 C.3       9 GLL5        0.0000 
     87 CA         31.8607   16.8375    0.0977 C.3       3 GLC5        0.0000 
     88 CA         32.4910   15.2350   -0.2470 C.3       6 GLP5        0.0000 
     89 CA         33.9693   16.3700    2.1692 C.3       3 GLC5        0.0000 
     90 CA         32.3550   17.8820    1.7940 C.3       9 GLL5        0.0000 
     91 CA         34.9680   14.6170    2.7660 C.3       6 GLP5        0.0000 
     92 CA         34.6550   17.7147   -0.5170 C.3       3 GLC5        0.0000 
     93 CA         33.5860   18.3640    1.3510 C.3       9 GLL5        0.0000 
     94 CA         35.6980   16.7190   -1.7850 C.3       6 GLP5        0.0000 
     95 CA         32.0221   19.0230    2.2761 C.3       3 GLC5        0.0000 
     96 CA         31.3660   19.8690    3.1670 C.3       6 GLP5        0.0000 
     97 CA         32.8976   16.9125    0.3074 C.3       3 GLC5        0.0000 
@<TRIPOS>BOND
@<TRIPOS>SUBSTRUCTURE
     1 ALC1       24 GROUP        1 X    ALC  0     ROOT ALC X 1
     2 SEC2        1 GROUP        1 X    SEC  0     **** SEC X 2
     3 GLC5        6 GROUP        1 X    GLC  0     **** GLC X 6
     4 ALP1       26 GROUP        1 Y    ALP  0     ROOT ALP Y 8
     5 SEP2        3 GROUP        1 Y    SEP  0     **** SEP Y 9
     6 GLP5        8 GROUP        1 Y    GLP  0     **** GLP Y 13
     7 ALL1       25 GROUP        1 Z    ALL  0     ROOT ALL Z 15
     8 SEL2        2 GROUP        1 Z    SEL  0     **** SEL Z 16
     9 GLL5        7 GROUP        1 Z    GLL  0     **** GLL Z 20
@<TRIPOS>SET

