#    Name: 1o9j_NAD_3_ligand
#    Modification time : Mon Mar 24 19:51:51 2014

@<TRIPOS>MOLECULE
1o9j_NAD_3_ligand
   70    74     1     0     0
SMALL
NO_CHARGES


@<TRIPOS>ATOM
      1 PA         35.8230   18.3810   -7.6050 P.3       1 NAD1501     0.0000 
      2 O1A        34.4760   18.2010   -8.1910 O.co2     1 NAD1501     0.0000 
      3 O2A        36.7630   19.1640   -8.5500 O.co2     1 NAD1501     0.0000 
      4 O5B        36.5080   16.9400   -7.3500 O.3       1 NAD1501     0.0000 
      5 C5B        36.4340   16.2100   -6.1510 C.3       1 NAD1501     0.0000 
      6 C4B        36.7830   14.7680   -6.4700 C.3       1 NAD1501     0.0000 
      7 O4B        36.1230   14.3430   -7.6630 O.3       1 NAD1501     0.0000 
      8 C3B        38.2710   14.5900   -6.7270 C.3       1 NAD1501     0.0000 
      9 O3B        38.6820   13.3800   -6.1380 O.3       1 NAD1501     0.0000 
     10 C2B        38.3440   14.5880   -8.2460 C.3       1 NAD1501     0.0000 
     11 O2B        39.4510   13.9540   -8.8250 O.3       1 NAD1501     0.0000 
     12 C1B        37.0760   13.8660   -8.6050 C.3       1 NAD1501     0.0000 
     13 N9A        36.6560   14.0900  -10.0020 N.pl3     1 NAD1501     0.0000 
     14 C8A        36.7840   15.2210  -10.7810 C.2       1 NAD1501     0.0000 
     15 N7A        36.2580   14.9650  -12.0040 N.2       1 NAD1501     0.0000 
     16 C5A        35.8010   13.7020  -12.0210 C.ar      1 NAD1501     0.0000 
     17 C6A        35.1560   12.9490  -13.0040 C.ar      1 NAD1501     0.0000 
     18 N6A        34.8980   13.4610  -14.2110 N.pl3     1 NAD1501     0.0000 
     19 N1A        34.7730   11.6480  -12.7040 N.ar      1 NAD1501     0.0000 
     20 C2A        35.0500   11.1190  -11.4510 C.ar      1 NAD1501     0.0000 
     21 N3A        35.6880   11.8650  -10.4790 N.ar      1 NAD1501     0.0000 
     22 C4A        36.0460   13.1410  -10.7660 C.ar      1 NAD1501     0.0000 
     23 O3         35.6200   19.1040   -6.1860 O.3       1 NAD1501     0.0000 
     24 PN         36.8050   19.8090   -5.3680 P.3       1 NAD1501     0.0000 
     25 O1N        37.1140   21.1070   -5.9980 O.co2     1 NAD1501     0.0000 
     26 O2N        37.9070   18.8330   -5.1460 O.co2     1 NAD1501     0.0000 
     27 O5D        36.0860   20.0400   -3.9520 O.3       1 NAD1501     0.0000 
     28 C5D        35.3270   21.1920   -3.6440 C.3       1 NAD1501     0.0000 
     29 C4D        33.8470   20.8290   -3.5350 C.3       1 NAD1501     0.0000 
     30 O4D        33.6620   19.7080   -2.6670 O.3       1 NAD1501     0.0000 
     31 C3D        33.0120   21.9860   -2.9610 C.3       1 NAD1501     0.0000 
     32 O3D        31.9260   22.2750   -3.8180 O.3       1 NAD1501     0.0000 
     33 C2D        32.5460   21.4760   -1.6090 C.3       1 NAD1501     0.0000 
     34 O2D        31.2860   21.9500   -1.1860 O.3       1 NAD1501     0.0000 
     35 C1D        32.5220   19.9780   -1.8560 C.3       1 NAD1501     0.0000 
     36 N1N        32.4920   19.2450   -0.5810 N.pl3     1 NAD1501     0.0000 
     37 C2N        31.2750   18.7820   -0.1600 C.ar      1 NAD1501     0.0000 
     38 C3N        31.1860   18.0980    1.0450 C.ar      1 NAD1501     0.0000 
     39 C7N        29.8640   17.5810    1.5380 C.2       1 NAD1501     0.0000 
     40 O7N        29.8500   16.8920    2.7530 O.2       1 NAD1501     0.0000 
     41 N7N        28.7230   17.7730    0.8750 N.am      1 NAD1501     0.0000 
     42 C4N        32.3550   17.8820    1.7940 C.ar      1 NAD1501     0.0000 
     43 C5N        33.5860   18.3640    1.3510 C.ar      1 NAD1501     0.0000 
     44 C6N        33.6380   19.0570    0.1510 C.ar      1 NAD1501     0.0000 
     45 H          35.4329   16.2236   -5.7169 H         1 NAD1501     0.0000 
     46 H          37.1424   16.5677   -5.4019 H         1 NAD1501     0.0000 
     47 H          36.5096   14.1417   -5.6399 H         1 NAD1501     0.0000 
     48 H          38.7638   15.4509   -6.3608 H         1 NAD1501     0.0000 
     49 H          38.2087   15.6145   -8.5728 H         1 NAD1501     0.0000 
     50 H          37.2536   12.8033   -8.4331 H         1 NAD1501     0.0000 
     51 H          37.1815   16.0456  -10.4926 H         1 NAD1501     0.0000 
     52 H          35.2355   14.3875  -14.3772 H         1 NAD1501     0.0000 
     53 H          34.3906   12.8716  -14.8397 H         1 NAD1501     0.0000 
     54 H          34.7699   10.1392  -11.2421 H         1 NAD1501     0.0000 
     55 H          35.4208   21.9678   -4.4169 H         1 NAD1501     0.0000 
     56 H          35.6281   21.6420   -2.6875 H         1 NAD1501     0.0000 
     57 H          33.4669   20.6119   -4.5233 H         1 NAD1501     0.0000 
     58 H          33.6692   22.8083   -2.8047 H         1 NAD1501     0.0000 
     59 H          33.3422   21.6562   -0.9053 H         1 NAD1501     0.0000 
     60 H          31.6070   19.7786   -2.4207 H         1 NAD1501     0.0000 
     61 H          30.4291   18.9346   -0.7241 H         1 NAD1501     0.0000 
     62 H          28.7876   18.3112    0.0346 H         1 NAD1501     0.0000 
     63 H          27.9054   17.3616    1.2778 H         1 NAD1501     0.0000 
     64 H          32.2969   17.3603    2.6812 H         1 NAD1501     0.0000 
     65 H          34.4299   18.2081    1.9014 H         1 NAD1501     0.0000 
     66 H          34.5393   19.4281   -0.1856 H         1 NAD1501     0.0000 
     67 H          39.0875   13.6430   -5.2626 H         1 NAD1501     0.0000 
     68 H          40.2072   14.5983   -8.7106 H         1 NAD1501     0.0000 
     69 H          31.4961   23.0882   -3.4256 H         1 NAD1501     0.0000 
     70 H          31.3793   22.9453   -1.1604 H         1 NAD1501     0.0000 
@<TRIPOS>BOND
     1    2    1 ar   
     2    3    1 ar   
     3    4    1 1    
     4   23    1 1    
     5    5    4 1    
     6    6    5 1    
     7   45    5 1    
     8   46    5 1    
     9    7    6 1    
    10    8    6 1    
    11   47    6 1    
    12   12    7 1    
    13    9    8 1    
    14   10    8 1    
    15   48    8 1    
    16   67    9 1    
    17   11   10 1    
    18   12   10 1    
    19   49   10 1    
    20   68   11 1    
    21   13   12 1    
    22   50   12 1    
    23   14   13 1    
    24   22   13 1    
    25   15   14 2    
    26   51   14 1    
    27   16   15 1    
    28   17   16 ar   
    29   22   16 ar   
    30   18   17 1    
    31   19   17 ar   
    32   52   18 1    
    33   53   18 1    
    34   20   19 ar   
    35   21   20 ar   
    36   54   20 1    
    37   22   21 ar   
    38   24   23 1    
    39   25   24 ar   
    40   26   24 ar   
    41   27   24 1    
    42   28   27 1    
    43   29   28 1    
    44   55   28 1    
    45   56   28 1    
    46   30   29 1    
    47   31   29 1    
    48   57   29 1    
    49   35   30 1    
    50   32   31 1    
    51   33   31 1    
    52   58   31 1    
    53   69   32 1    
    54   34   33 1    
    55   35   33 1    
    56   59   33 1    
    57   70   34 1    
    58   36   35 1    
    59   60   35 1    
    60   37   36 ar   
    61   44   36 ar   
    62   38   37 ar   
    63   61   37 1    
    64   39   38 1    
    65   42   38 ar   
    66   40   39 2    
    67   41   39 am   
    68   62   41 1    
    69   63   41 1    
    70   43   42 ar   
    71   64   42 1    
    72   44   43 ar   
    73   65   43 1    
    74   66   44 1    
@<TRIPOS>SUBSTRUCTURE
     1 NAD1501     1 GROUP   
@<TRIPOS>SET

