#    Name: 1c41_LMZ_9_INTS_M
#    Modification time : Mon Mar 24 20:18:44 2014

@<TRIPOS>MOLECULE
1c41_LMZ_9_INTS_M
   51     0     9     0     0
SMALL
NO_CHARGES


@<TRIPOS>ATOM
      1 O          62.7225   78.0350    3.9035 O.2       1 ALC1        0.0000 
      2 O          62.2130   78.7340    5.1560 O.2       7 ALL1        0.0000 
      3 O          63.2320   77.3360    2.6510 O.2       4 ALP1        0.0000 
      4 CA         62.3385   81.5520    5.9815 C.3       3 GLC5        0.0000 
      5 CA         62.5020   80.1320    7.1680 C.3       9 GLL5        0.0000 
      6 CA         62.1750   82.9720    4.7950 C.3       6 GLP5        0.0000 
      7 CA         61.2930   82.0555    6.4535 C.3       3 GLC5        0.0000 
      8 CA         61.1050   80.4170    7.1080 C.3       9 GLL5        0.0000 
      9 CA         61.4810   83.6940    5.7990 C.3       6 GLP5        0.0000 
     10 CA         61.5560   80.2720   10.3405 C.3       3 GLC5        0.0000 
     11 CA         59.7550   80.5600    9.0560 C.3       9 GLL5        0.0000 
     12 CA         63.3570   79.9840   11.6250 C.3       6 GLP5        0.0000 
     13 N          56.9050   78.6635    7.5930 N.am      2 SEC2        0.0000 
     14 N          57.8560   79.8900    7.7600 N.am      8 SEL2        0.0000 
     15 N          55.9540   77.4370    7.4260 N.am      5 SEP2        0.0000 
     16 O          55.8375   82.0045    7.5775 O.2       1 ALC1        0.0000 
     17 O          57.3430   82.6870    8.0270 O.2       7 ALL1        0.0000 
     18 O          54.3320   81.3220    7.1280 O.2       4 ALP1        0.0000 
     19 CA         56.2965   81.3105   12.2030 C.3       3 GLC5        0.0000 
     20 CA         56.9680   82.6030   10.5350 C.3       9 GLL5        0.0000 
     21 CA         55.6250   80.0180   13.8710 C.3       6 GLP5        0.0000 
     22 O          57.4190   82.0620   12.8085 O.2       1 ALC1        0.0000 
     23 O          57.8390   81.7820   11.3370 O.2       7 ALL1        0.0000 
     24 O          56.9990   82.3420   14.2800 O.2       4 ALP1        0.0000 
     25 CA         54.5125   83.6770   11.8920 C.3       3 GLC5        0.0000 
     26 CA         55.6680   82.5760   11.4430 C.3       9 GLL5        0.0000 
     27 CA         53.3570   84.7780   12.3410 C.3       6 GLP5        0.0000 
     28 CA         55.2970   81.8840   12.9940 C.3       3 GLC5        0.0000 
     29 CA         54.9260   81.1920   14.5450 C.3       6 GLP5        0.0000 
     30 N          54.2670   81.9435   12.1145 N.am      2 SEC2        0.0000 
     31 N          54.6350   82.1760   10.5650 N.am      8 SEL2        0.0000 
     32 N          53.8990   81.7110   13.6640 N.am      5 SEP2        0.0000 
     33 N          65.3440   77.6070    5.4535 N.am      2 SEC2        0.0000 
     34 N          64.3950   78.8680    5.9080 N.am      8 SEL2        0.0000 
     35 N          66.2930   76.3460    4.9990 N.am      5 SEP2        0.0000 
     36 N          58.6120   78.4490    4.6965 N.am      2 SEC2        0.0000 
     37 N          59.9610   78.4530    4.2030 N.am      8 SEL2        0.0000 
     38 N          57.2630   78.4450    5.1900 N.am      5 SEP2        0.0000 
     39 N          59.4045   77.2925    4.1985 N.am      2 SEC2        0.0000 
     40 N          58.8480   76.1320    4.1940 N.am      5 SEP2        0.0000 
     41 CA         61.8558   78.1628    6.9720 C.3       3 GLC5        0.0000 
     42 CA         61.9080   76.0510    6.8060 C.3       6 GLP5        0.0000 
     43 CA         59.6593   79.4193   10.1180 C.3       3 GLC5        0.0000 
     44 CA         60.3520   78.2880   11.2300 C.3       6 GLP5        0.0000 
     45 CA         57.3195   81.0005    6.9960 C.3       3 GLC5        0.0000 
     46 CA         58.1780   80.5410    8.9560 C.3       9 GLL5        0.0000 
     47 CA         56.9450   80.8340    4.9570 C.3       6 GLP5        0.0000 
     48 CA         56.5295   79.6875    9.3440 C.3       3 GLC5        0.0000 
     49 CA         55.3650   78.2080    9.6530 C.3       6 GLP5        0.0000 
     50 CA         56.8075   84.4937   11.7215 C.3       3 GLC5        0.0000 
     51 CA         57.2970   86.3980   12.4540 C.3       6 GLP5        0.0000 
@<TRIPOS>BOND
@<TRIPOS>SUBSTRUCTURE
     1 ALC1        1 GROUP        1 X    ALC  0     ROOT ALC X 1
     2 SEC2       13 GROUP        1 X    SEC  0     **** SEC X 2
     3 GLC5        4 GROUP        1 X    GLC  0     **** GLC X 6
     4 ALP1        3 GROUP        1 Y    ALP  0     ROOT ALP Y 8
     5 SEP2       15 GROUP        1 Y    SEP  0     **** SEP Y 9
     6 GLP5        6 GROUP        1 Y    GLP  0     **** GLP Y 13
     7 ALL1        2 GROUP        1 Z    ALL  0     ROOT ALL Z 15
     8 SEL2       14 GROUP        1 Z    SEL  0     **** SEL Z 16
     9 GLL5        5 GROUP        1 Z    GLL  0     **** GLL Z 20
@<TRIPOS>SET

