#    Name: 1c41_LMZ_9_ligand
#    Modification time : Mon Mar 24 20:18:44 2014

@<TRIPOS>MOLECULE
1c41_LMZ_9_ligand
   34    34     1     0     0
SMALL
NO_CHARGES


@<TRIPOS>ATOM
      1 N1         60.3630   79.7790    6.1250 N.am      1 LMZ209      0.0000 
      2 C2         60.8710   78.9600    5.1240 C.2       1 LMZ209      0.0000 
      3 N3         62.2130   78.7340    5.1560 N.am      1 LMZ209      0.0000 
      4 C4         63.0840   79.2450    6.0880 C.2       1 LMZ209      0.0000 
      5 C5         62.5020   80.1320    7.1680 C.2       1 LMZ209      0.0000 
      6 C6         61.1050   80.4170    7.1080 C.2       1 LMZ209      0.0000 
      7 N7         60.4260   81.2820    7.9290 N.pl3     1 LMZ209      0.0000 
      8 C8         59.7550   80.5600    9.0560 C.3       1 LMZ209      0.0000 
      9 C9         58.1780   80.5410    8.9560 C.3       1 LMZ209      0.0000 
     10 O9         57.8560   79.8900    7.7600 O.3       1 LMZ209      0.0000 
     11 C10        57.2100   81.7930    9.1140 C.3       1 LMZ209      0.0000 
     12 O10        57.3430   82.6870    8.0270 O.3       1 LMZ209      0.0000 
     13 C11        56.9680   82.6030   10.5350 C.3       1 LMZ209      0.0000 
     14 O11        57.8390   81.7820   11.3370 O.3       1 LMZ209      0.0000 
     15 C12        55.6680   82.5760   11.4430 C.3       1 LMZ209      0.0000 
     16 O12        54.6350   82.1760   10.5650 O.3       1 LMZ209      0.0000 
     17 N5         63.4290   80.6880    8.1220 N.2       1 LMZ209      0.0000 
     18 O52        63.0090   81.4130    9.0310 O.2       1 LMZ209      0.0000 
     19 O4         64.3950   78.8680    5.9080 O.2       1 LMZ209      0.0000 
     20 O2         59.9610   78.4530    4.2030 O.2       1 LMZ209      0.0000 
     21 H          59.3031   79.9307    6.1379 H         1 LMZ209      0.0000 
     22 H          62.6302   78.1054    4.3923 H         1 LMZ209      0.0000 
     23 H          60.3509   82.2316    7.8489 H         1 LMZ209      0.0000 
     24 H          60.0145   81.0241   10.0193 H         1 LMZ209      0.0000 
     25 H          60.0912   79.5131    9.0969 H         1 LMZ209      0.0000 
     26 H          57.8432   79.8073    9.7878 H         1 LMZ209      0.0000 
     27 H          56.1266   81.3056    8.9424 H         1 LMZ209      0.0000 
     28 H          57.3894   83.5497   10.4658 H         1 LMZ209      0.0000 
     29 H          55.5437   83.5689   11.8263 H         1 LMZ209      0.0000 
     30 H          55.8594   81.8721   12.2278 H         1 LMZ209      0.0000 
     31 H          56.9262   80.1887    7.5451 H         1 LMZ209      0.0000 
     32 H          56.5292   82.5351    7.4661 H         1 LMZ209      0.0000 
     33 H          57.5877   81.9857   12.2832 H         1 LMZ209      0.0000 
     34 H          55.0844   81.5995    9.8825 H         1 LMZ209      0.0000 
@<TRIPOS>BOND
     1    2    1 1    
     2    6    1 1    
     3   21    1 1    
     4    3    2 1    
     5   20    2 2    
     6    4    3 1    
     7   22    3 1    
     8    5    4 1    
     9   19    4 2    
    10    6    5 2    
    11   17    5 1    
    12    7    6 1    
    13    8    7 1    
    14   23    7 1    
    15    9    8 1    
    16   24    8 1    
    17   25    8 1    
    18   10    9 1    
    19   11    9 1    
    20   26    9 1    
    21   31   10 1    
    22   12   11 1    
    23   13   11 1    
    24   27   11 1    
    25   32   12 1    
    26   14   13 1    
    27   15   13 1    
    28   28   13 1    
    29   33   14 1    
    30   16   15 1    
    31   29   15 1    
    32   30   15 1    
    33   34   16 1    
    34   18   17 2    
@<TRIPOS>SUBSTRUCTURE
     1 LMZ209      1 GROUP   
@<TRIPOS>SET

