#    Name: 2ako_ADP_1_INTS_M
#    Modification time : Mon Mar 24 19:22:16 2014

@<TRIPOS>MOLECULE
2ako_ADP_1_INTS_M
   60     0    12     0     0
SMALL
NO_CHARGES


@<TRIPOS>ATOM
      1 N         -11.8865  -18.2650    9.7250 N.am      2 SEC2        0.0000 
      2 N         -11.2770  -19.2010   10.1130 N.am     10 SEL2        0.0000 
      3 N         -12.4960  -17.3290    9.3370 N.am      6 SEP2        0.0000 
      4 NZ        -11.0185  -19.1690   13.1875 N.4       3 LYC4        0.0000 
      5 NZ        -10.9810  -20.2250   12.4180 N.4      11 LYL4        0.0000 
      6 NZ        -11.0560  -18.1130   13.9570 N.4       7 LYP4        0.0000 
      7 N         -11.0185  -19.1690   13.1875 N.am      2 SEC2        0.0000 
      8 N         -10.9810  -20.2250   12.4180 N.am     10 SEL2        0.0000 
      9 N         -11.0560  -18.1130   13.9570 N.am      6 SEP2        0.0000 
     10 N         -14.4205  -20.9535   10.3585 N.am      2 SEC2        0.0000 
     11 N         -14.6460  -21.7300   11.6300 N.am     10 SEL2        0.0000 
     12 N         -14.1950  -20.1770    9.0870 N.am      6 SEP2        0.0000 
     13 NZ        -12.1870  -19.5340   13.8505 N.4       3 LYC4        0.0000 
     14 NZ        -13.3180  -20.9550   13.7440 N.4      11 LYL4        0.0000 
     15 N         -12.8955  -22.1115   13.8575 N.am      2 SEC2        0.0000 
     16 N         -13.3180  -20.9550   13.7440 N.am     10 SEL2        0.0000 
     17 N         -12.4730  -23.2680   13.9710 N.am      6 SEP2        0.0000 
     18 N         -13.2325  -20.6885   15.1040 N.am      2 SEC2        0.0000 
     19 N         -13.1470  -20.4220   16.4640 N.am      6 SEP2        0.0000 
     20 N         -13.7055  -19.9155   10.3490 N.am      2 SEC2        0.0000 
     21 N         -13.2160  -19.6540   11.6110 N.am     10 SEL2        0.0000 
     22 CA        -15.4355  -20.0560   14.8575 C.3       4 GLC5        0.0000 
     23 CA        -16.5520  -20.4980   13.5240 C.3      12 GLL5        0.0000 
     24 CA        -14.3190  -19.6140   16.1910 C.3       8 GLP5        0.0000 
     25 N         -21.5760  -18.6485   10.7840 N.am      2 SEC2        0.0000 
     26 N         -20.4360  -18.1090   11.6790 N.am     10 SEL2        0.0000 
     27 N         -22.7160  -19.1880    9.8890 N.am      6 SEP2        0.0000 
     28 CA        -18.5405  -15.0805   16.5290 C.3       4 GLC5        0.0000 
     29 CA        -20.0350  -14.7820   15.2850 C.3      12 GLL5        0.0000 
     30 CA        -17.0460  -15.3790   17.7730 C.3       8 GLP5        0.0000 
     31 CA        -18.0445  -13.5025   15.6400 C.3       4 GLC5        0.0000 
     32 CA        -19.9490  -13.3110   15.1510 C.3      12 GLL5        0.0000 
     33 CA        -16.1400  -13.6940   16.1290 C.3       8 GLP5        0.0000 
     34 O         -20.8480  -11.0600   15.7820 O.2       1 ALC1        0.0000 
     35 O         -20.4380  -12.5090   16.1230 O.2       9 ALL1        0.0000 
     36 O         -21.2580   -9.6110   15.4410 O.2       5 ALP1        0.0000 
     37 N         -19.6015  -11.3205   13.5770 N.am      2 SEC2        0.0000 
     38 N         -19.3650  -12.8120   14.0370 N.am     10 SEL2        0.0000 
     39 N         -19.8380   -9.8290   13.1170 N.am      6 SEP2        0.0000 
     40 CA        -17.5450  -14.1800   11.8670 C.3       4 GLC5        0.0000 
     41 CA        -18.8770  -13.6210   13.0720 C.3      12 GLL5        0.0000 
     42 CA        -16.2130  -14.7390   10.6620 C.3       8 GLP5        0.0000 
     43 CA        -18.1545  -11.7390   12.8625 C.3       4 GLC5        0.0000 
     44 CA        -17.4320   -9.8570   12.6530 C.3       8 GLP5        0.0000 
     45 CA        -20.6660  -14.1515   12.6295 C.3       4 GLC5        0.0000 
     46 CA        -22.4550  -14.6820   12.1870 C.3       8 GLP5        0.0000 
     47 CA        -17.1790  -13.5075   13.9320 C.3       4 GLC5        0.0000 
     48 CA        -15.4810  -13.3940   14.7920 C.3       8 GLP5        0.0000 
     49 CA        -17.8830  -15.3955   15.3255 C.3       4 GLC5        0.0000 
     50 CA        -19.4820  -15.6040   14.1940 C.3      12 GLL5        0.0000 
     51 CA        -16.2840  -15.1870   16.4570 C.3       8 GLP5        0.0000 
     52 CA        -16.1067  -18.5310   12.9120 C.3       4 GLC5        0.0000 
     53 CA        -17.9230  -19.8280   13.4000 C.3      12 GLL5        0.0000 
     54 CA        -14.9760  -16.8990   12.3620 C.3       8 GLP5        0.0000 
     55 CA        -17.1547  -17.8957   11.5735 C.3       4 GLC5        0.0000 
     56 CA        -18.3020  -19.2860   12.0240 C.3      12 GLL5        0.0000 
     57 CA        -15.5760  -17.1150   10.9670 C.3       8 GLP5        0.0000 
     58 CA        -21.9875  -14.5858   14.9505 C.3       4 GLC5        0.0000 
     59 CA        -23.9830  -15.1250   14.6830 C.3       8 GLP5        0.0000 
     60 CA        -21.0960  -14.7536   13.4465 C.3       4 GLC5        0.0000 
@<TRIPOS>BOND
@<TRIPOS>SUBSTRUCTURE
     1 ALC1       34 GROUP        1 X    ALC  0     ROOT ALC X 1
     2 SEC2        1 GROUP        1 X    SEC  0     **** SEC X 2
     3 LYC4        4 GROUP        1 X    LYC  0     **** LYC X 4
     4 GLC5       22 GROUP        1 X    GLC  0     **** GLC X 6
     5 ALP1       36 GROUP        1 Y    ALP  0     ROOT ALP Y 8
     6 SEP2        3 GROUP        1 Y    SEP  0     **** SEP Y 9
     7 LYP4        6 GROUP        1 Y    LYP  0     **** LYP Y 11
     8 GLP5       24 GROUP        1 Y    GLP  0     **** GLP Y 13
     9 ALL1       35 GROUP        1 Z    ALL  0     ROOT ALL Z 15
    10 SEL2        2 GROUP        1 Z    SEL  0     **** SEL Z 16
    11 LYL4        5 GROUP        1 Z    LYL  0     **** LYL Z 18
    12 GLL5       23 GROUP        1 Z    GLL  0     **** GLL Z 20
@<TRIPOS>SET

