#    Name: 2ako_ADP_1_ligand
#    Modification time : Mon Mar 24 19:22:16 2014

@<TRIPOS>MOLECULE
2ako_ADP_1_ligand
   39    41     1     0     0
SMALL
NO_CHARGES


@<TRIPOS>ATOM
      1 PB        -11.7670  -20.1860   11.1340 P.3       1 ADP852      0.0000 
      2 O1B       -12.0190  -21.5440   10.5460 O.co2     1 ADP852      0.0000 
      3 O2B       -11.2770  -19.2010   10.1130 O.co2     1 ADP852      0.0000 
      4 O3B       -10.9810  -20.2250   12.4180 O.co2     1 ADP852      0.0000 
      5 PA        -14.1350  -20.6190   12.5190 P.3       1 ADP852      0.0000 
      6 O1A       -14.6460  -21.7300   11.6300 O.co2     1 ADP852      0.0000 
      7 O2A       -13.3180  -20.9550   13.7440 O.co2     1 ADP852      0.0000 
      8 O3A       -13.2160  -19.6540   11.6110 O.3       1 ADP852      0.0000 
      9 O5'       -15.4440  -19.7780   12.9590 O.3       1 ADP852      0.0000 
     10 C5'       -16.5520  -20.4980   13.5240 C.3       1 ADP852      0.0000 
     11 C4'       -17.9230  -19.8280   13.4000 C.3       1 ADP852      0.0000 
     12 O4'       -18.1070  -18.7190   14.2910 O.3       1 ADP852      0.0000 
     13 C3'       -18.3020  -19.2860   12.0240 C.3       1 ADP852      0.0000 
     14 O3'       -19.0250  -20.2610   11.2630 O.3       1 ADP852      0.0000 
     15 C2'       -19.1650  -18.0670   12.3360 C.3       1 ADP852      0.0000 
     16 O2'       -20.4360  -18.1090   11.6790 O.3       1 ADP852      0.0000 
     17 C1'       -19.3400  -18.1430   13.8490 C.3       1 ADP852      0.0000 
     18 N9        -19.6840  -16.8770   14.5600 N.pl3     1 ADP852      0.0000 
     19 C8        -20.3080  -16.8820   15.7580 C.2       1 ADP852      0.0000 
     20 N7        -20.5240  -15.6250   16.2070 N.2       1 ADP852      0.0000 
     21 C5        -20.0350  -14.7820   15.2850 C.ar      1 ADP852      0.0000 
     22 C6        -19.9490  -13.3110   15.1510 C.ar      1 ADP852      0.0000 
     23 N6        -20.4380  -12.5090   16.1230 N.pl3     1 ADP852      0.0000 
     24 N1        -19.3650  -12.8120   14.0370 N.ar      1 ADP852      0.0000 
     25 C2        -18.8770  -13.6210   13.0720 C.ar      1 ADP852      0.0000 
     26 N3        -18.9240  -14.9680   13.1340 N.ar      1 ADP852      0.0000 
     27 C4        -19.4820  -15.6040   14.1940 C.ar      1 ADP852      0.0000 
     28 H         -16.3810  -20.6996   14.6143 H         1 ADP852      0.0000 
     29 H         -16.6403  -21.5173   13.0637 H         1 ADP852      0.0000 
     30 H         -18.7010  -20.5911   13.6485 H         1 ADP852      0.0000 
     31 H         -17.4127  -18.9491   11.5458 H         1 ADP852      0.0000 
     32 H         -18.5992  -17.1928   12.1177 H         1 ADP852      0.0000 
     33 H         -20.1398  -18.8929   14.0236 H         1 ADP852      0.0000 
     34 H         -20.5721  -17.6965   16.2430 H         1 ADP852      0.0000 
     35 H         -20.8311  -12.9708   16.9181 H         1 ADP852      0.0000 
     36 H         -20.3633  -11.5251   15.9607 H         1 ADP852      0.0000 
     37 H         -18.4306  -13.1704   12.2150 H         1 ADP852      0.0000 
     38 H         -19.9629  -19.9163   11.2256 H         1 ADP852      0.0000 
     39 H         -20.4107  -17.3585   11.0185 H         1 ADP852      0.0000 
@<TRIPOS>BOND
     1    2    1 ar   
     2    3    1 ar   
     3    4    1 ar   
     4    8    1 1    
     5    6    5 ar   
     6    7    5 ar   
     7    8    5 1    
     8    9    5 1    
     9   10    9 1    
    10   11   10 1    
    11   28   10 1    
    12   29   10 1    
    13   12   11 1    
    14   13   11 1    
    15   30   11 1    
    16   17   12 1    
    17   14   13 1    
    18   15   13 1    
    19   31   13 1    
    20   38   14 1    
    21   16   15 1    
    22   17   15 1    
    23   32   15 1    
    24   39   16 1    
    25   18   17 1    
    26   33   17 1    
    27   19   18 1    
    28   27   18 1    
    29   20   19 2    
    30   34   19 1    
    31   21   20 1    
    32   22   21 ar   
    33   27   21 ar   
    34   23   22 1    
    35   24   22 ar   
    36   35   23 1    
    37   36   23 1    
    38   25   24 ar   
    39   26   25 ar   
    40   37   25 1    
    41   27   26 ar   
@<TRIPOS>SUBSTRUCTURE
     1 ADP852      1 GROUP   
@<TRIPOS>SET

