#    Name: 3osw_XDI_1_INTS_M
#    Modification time : Tue Mar 25 05:16:28 2014

@<TRIPOS>MOLECULE
3osw_XDI_1_INTS_M
   67     0     6     0     0
SMALL
NO_CHARGES


@<TRIPOS>ATOM
      1 CA         16.1855   15.3260    8.7140 C.3       2 GLC5        0.0000 
      2 CA         15.9390   16.5120    9.9090 C.3       6 GLL5        0.0000 
      3 CA         16.4320   14.1400    7.5190 C.3       4 GLP5        0.0000 
      4 N          10.5510   20.6885    7.9735 N.am      1 SEC2        0.0000 
      5 N          11.6980   21.1340    9.1540 N.am      5 SEL2        0.0000 
      6 N           9.4040   20.2430    6.7930 N.am      3 SEP2        0.0000 
      7 CA         21.5865   17.7740   13.9765 C.3       2 GLC5        0.0000 
      8 CA         19.6530   17.1920   14.6440 C.3       6 GLL5        0.0000 
      9 CA         23.5200   18.3560   13.3090 C.3       4 GLP5        0.0000 
     10 CA         20.8405   15.4615   14.9520 C.3       2 GLC5        0.0000 
     11 CA         22.0280   13.7310   15.2600 C.3       4 GLP5        0.0000 
     12 CA         13.9975   18.9135   16.6390 C.3       2 GLC5        0.0000 
     13 CA         13.9940   17.7720   15.3430 C.3       6 GLL5        0.0000 
     14 CA         14.0010   20.0550   17.9350 C.3       4 GLP5        0.0000 
     15 CA         12.3600   17.5580   16.5330 C.3       2 GLC5        0.0000 
     16 CA         10.7260   17.3440   17.7230 C.3       4 GLP5        0.0000 
     17 CA         14.5000   16.1060   16.4105 C.3       2 GLC5        0.0000 
     18 CA         15.0060   14.4400   17.4780 C.3       4 GLP5        0.0000 
     19 CA         13.8140   22.0810   11.5600 C.3       2 GLC5        0.0000 
     20 CA         14.2170   22.7850    9.5690 C.3       6 GLL5        0.0000 
     21 CA         13.4110   21.3770   13.5510 C.3       4 GLP5        0.0000 
     22 CA          9.4445   17.0485    8.1775 C.3       2 GLC5        0.0000 
     23 CA         10.8320   18.1990    9.1840 C.3       6 GLL5        0.0000 
     24 CA          8.0570   15.8980    7.1710 C.3       4 GLP5        0.0000 
     25 CA         11.0435   19.1665   11.1350 C.3       2 GLC5        0.0000 
     26 CA         11.2550   20.1340   13.0860 C.3       4 GLP5        0.0000 
     27 CA          9.5010   18.8390    7.9230 C.3       2 GLC5        0.0000 
     28 CA          8.1700   19.4790    6.6620 C.3       4 GLP5        0.0000 
     29 CA         18.4125   19.1620   12.8455 C.3       2 GLC5        0.0000 
     30 CA         17.7210   17.5750   12.4340 C.3       6 GLL5        0.0000 
     31 CA         19.1040   20.7490   13.2570 C.3       4 GLP5        0.0000 
     32 CA         17.6245   15.3515   12.5035 C.3       2 GLC5        0.0000 
     33 CA         17.5280   13.1280   12.5730 C.3       4 GLP5        0.0000 
     34 CA         19.5720   16.7250   12.1715 C.3       2 GLC5        0.0000 
     35 CA         21.4230   15.8750   11.9090 C.3       4 GLP5        0.0000 
     36 CA         14.0540   18.9245   12.9945 C.3       2 GLC5        0.0000 
     37 CA         15.3340   17.8140   12.7500 C.3       6 GLL5        0.0000 
     38 CA         12.7740   20.0350   13.2390 C.3       4 GLP5        0.0000 
     39 CA         12.7315   16.3115    9.6425 C.3       2 GLC5        0.0000 
     40 CA         13.7160   18.1140    9.8380 C.3       6 GLL5        0.0000 
     41 CA         11.7470   14.5090    9.4470 C.3       4 GLP5        0.0000 
     42 CA         13.6150   18.5780    7.9100 C.3       2 GLC5        0.0000 
     43 CA         13.5140   19.0420    5.9820 C.3       4 GLP5        0.0000 
     44 CA         14.3770   20.4105    7.7865 C.3       2 GLC5        0.0000 
     45 CA         14.0110   20.8690    9.6800 C.3       6 GLL5        0.0000 
     46 CA         14.7430   19.9520    5.8930 C.3       4 GLP5        0.0000 
     47 CA         15.7628   15.4818   10.7340 C.3       2 GLC5        0.0000 
     48 CA         16.1940   17.8850   10.4110 C.3       6 GLL5        0.0000 
     49 CA         15.4590   13.7650   11.3080 C.3       4 GLP5        0.0000 
     50 CA         16.3681   18.5224    8.1713 C.3       2 GLC5        0.0000 
     51 CA         17.4180   18.4230    9.7330 C.3       6 GLL5        0.0000 
     52 CA         15.9940   19.2340    6.3960 C.3       4 GLP5        0.0000 
     53 CA         18.9387   19.0348   13.7452 C.3       2 GLC5        0.0000 
     54 CA         17.8940   17.4490   13.8230 C.3       6 GLL5        0.0000 
     55 CA         20.0982   16.5977   13.0712 C.3       2 GLC5        0.0000 
     56 CA         13.7615   18.8840   13.9865 C.3       2 GLC5        0.0000 
     57 CA         15.5040   17.6940   14.1250 C.3       6 GLL5        0.0000 
     58 CA         11.7348   16.5352    9.4023 C.3       2 GLC5        0.0000 
     59 CA         12.6130   18.9240    9.5310 C.3       6 GLL5        0.0000 
     60 CA         12.6182   18.8017    7.6698 C.3       2 GLC5        0.0000 
     61 CA         15.6717   15.7775   11.8155 C.3       2 GLC5        0.0000 
     62 CA         16.4350   17.7660   11.8960 C.3       6 GLL5        0.0000 
     63 CA         15.5150   19.3115    8.2135 C.3       2 GLC5        0.0000 
     64 CA         15.1030   20.0780    9.9870 C.3       6 GLL5        0.0000 
     65 CA         18.1073   19.2120   11.2490 C.3       2 GLC5        0.0000 
     66 CA         19.5940   20.4640   11.5140 C.3       4 GLP5        0.0000 
     67 CA         13.3689   19.5439   11.5292 C.3       2 GLC5        0.0000 
@<TRIPOS>BOND
@<TRIPOS>SUBSTRUCTURE
     1 SEC2        4 GROUP        1 X    SEC  0     ROOT SEC X 2
     2 GLC5        1 GROUP        1 X    GLC  0     **** GLC X 6
     3 SEP2        6 GROUP        1 Y    SEP  0     ROOT SEP Y 9
     4 GLP5        3 GROUP        1 Y    GLP  0     **** GLP Y 13
     5 SEL2        5 GROUP        1 Z    SEL  0     ROOT SEL Z 16
     6 GLL5        2 GROUP        1 Z    GLL  0     **** GLL Z 20
@<TRIPOS>SET

