#    Name: 3osw_XDI_1_ligand
#    Modification time : Tue Mar 25 05:16:28 2014

@<TRIPOS>MOLECULE
3osw_XDI_1_ligand
   31    32     1     0     0
SMALL
NO_CHARGES


@<TRIPOS>ATOM
      1 CAA        15.9390   16.5120    9.9090 C.3       1 XDI1        0.0000 
      2 CAB        17.4180   18.4230    9.7330 C.3       1 XDI1        0.0000 
      3 OAC        16.8920   17.3990   16.0080 O.co2     1 XDI1        0.0000 
      4 OAD        11.6980   21.1340    9.1540 O.co2     1 XDI1        0.0000 
      5 BRAE       19.6530   17.1920   14.6440 Br        1 XDI1        0.0000 
      6 BRAF       13.9940   17.7720   15.3430 Br        1 XDI1        0.0000 
      7 BRAG       14.2170   22.7850    9.5690 Br        1 XDI1        0.0000 
      8 BRAH       10.8320   18.1990    9.1840 Br        1 XDI1        0.0000 
      9 CAI        17.7210   17.5750   12.4340 C.ar      1 XDI1        0.0000 
     10 CAJ        15.3340   17.8140   12.7500 C.ar      1 XDI1        0.0000 
     11 CAK        15.1030   20.0780    9.9870 C.ar      1 XDI1        0.0000 
     12 CAL        13.7160   18.1140    9.8380 C.ar      1 XDI1        0.0000 
     13 CAM        16.7710   17.5130   14.6490 C.ar      1 XDI1        0.0000 
     14 CAN        12.7690   20.3070    9.4530 C.ar      1 XDI1        0.0000 
     15 CAO        17.8940   17.4490   13.8230 C.ar      1 XDI1        0.0000 
     16 CAP        15.5040   17.6940   14.1250 C.ar      1 XDI1        0.0000 
     17 CAQ        14.0110   20.8690    9.6800 C.ar      1 XDI1        0.0000 
     18 CAR        12.6130   18.9240    9.5310 C.ar      1 XDI1        0.0000 
     19 CAS        16.4350   17.7660   11.8960 C.ar      1 XDI1        0.0000 
     20 CAT        14.9690   18.7000   10.0750 C.ar      1 XDI1        0.0000 
     21 CAU        16.1940   17.8850   10.4110 C.3       1 XDI1        0.0000 
     22 H          18.5327   17.5278   11.8111 H         1 XDI1        0.0000 
     23 H          14.3891   17.9392   12.3583 H         1 XDI1        0.0000 
     24 H          16.0247   20.5139   10.1521 H         1 XDI1        0.0000 
     25 H          13.6078   17.0978    9.8892 H         1 XDI1        0.0000 
     26 H          16.7069   15.8994   10.0964 H         1 XDI1        0.0000 
     27 H          15.1297   16.1058   10.3333 H         1 XDI1        0.0000 
     28 H          15.7890   16.4999    8.9204 H         1 XDI1        0.0000 
     29 H          18.2231   17.8595    9.9181 H         1 XDI1        0.0000 
     30 H          17.3071   18.4585    8.7398 H         1 XDI1        0.0000 
     31 H          17.6335   19.3509   10.0372 H         1 XDI1        0.0000 
@<TRIPOS>BOND
     1   21    1 1    
     2   26    1 1    
     3   27    1 1    
     4   28    1 1    
     5   21    2 1    
     6   29    2 1    
     7   30    2 1    
     8   31    2 1    
     9   13    3 ar   
    10   14    4 ar   
    11   15    5 1    
    12   16    6 1    
    13   17    7 1    
    14   18    8 1    
    15   15    9 ar   
    16   19    9 ar   
    17   22    9 1    
    18   16   10 ar   
    19   19   10 ar   
    20   23   10 1    
    21   17   11 ar   
    22   20   11 ar   
    23   24   11 1    
    24   18   12 ar   
    25   20   12 ar   
    26   25   12 1    
    27   15   13 ar   
    28   16   13 ar   
    29   17   14 ar   
    30   18   14 ar   
    31   21   19 1    
    32   21   20 1    
@<TRIPOS>SUBSTRUCTURE
     1 XDI1        1 GROUP   
@<TRIPOS>SET

