#    Name: 1zrb_062_1_INTS_M
#    Modification time : Mon Mar 24 17:47:49 2014

@<TRIPOS>MOLECULE
1zrb_062_1_INTS_M
   71     0     9     0     0
SMALL
NO_CHARGES


@<TRIPOS>ATOM
      1 CA         18.3895  -13.0100   24.5890 C.3       3 GLC5        0.0000 
      2 CA         19.3940  -14.5580   24.7020 C.3       9 GLL5        0.0000 
      3 CA         17.3850  -11.4620   24.4760 C.3       6 GLP5        0.0000 
      4 CA         22.3205  -13.3790   26.3505 C.3       3 GLC5        0.0000 
      5 CA         20.7300  -14.4290   25.2220 C.3       9 GLL5        0.0000 
      6 CA         23.9110  -12.3290   27.4790 C.3       6 GLP5        0.0000 
      7 O          15.5820  -15.6470   24.1460 O.2       1 ALC1        0.0000 
      8 O          16.9680  -16.0540   24.0210 O.2       7 ALL1        0.0000 
      9 O          14.1960  -15.2400   24.2710 O.2       4 ALP1        0.0000 
     10 CA         19.0490  -11.8780   21.6325 C.3       3 GLC5        0.0000 
     11 CA         17.5730  -12.8150   20.4560 C.3       9 GLL5        0.0000 
     12 CA         20.5250  -10.9410   22.8090 C.3       6 GLP5        0.0000 
     13 CA         17.4790  -12.1385   22.4660 C.3       3 GLC5        0.0000 
     14 O          16.2015  -10.4890   21.2375 O.2       1 ALC1        0.0000 
     15 O          15.4550  -11.5900   20.4940 O.2       7 ALL1        0.0000 
     16 O          16.9480   -9.3880   21.9810 O.2       4 ALP1        0.0000 
     17 CA         12.7720  -12.1170   18.4730 C.3       3 GLC5        0.0000 
     18 CA         14.0110  -11.4660   20.2230 C.3       9 GLL5        0.0000 
     19 CA         11.5330  -12.7680   16.7230 C.3       6 GLP5        0.0000 
     20 CA         14.7510   -9.7285   19.0455 C.3       3 GLC5        0.0000 
     21 CA         15.4910   -7.9910   17.8680 C.3       6 GLP5        0.0000 
     22 CA         10.8000   -8.4700   23.0980 C.3       3 GLC5        0.0000 
     23 CA         12.2830   -8.6500   24.3060 C.3       9 GLL5        0.0000 
     24 CA          9.3170   -8.2900   21.8900 C.3       6 GLP5        0.0000 
     25 CA         12.3440   -7.7150   22.7725 C.3       3 GLC5        0.0000 
     26 CA         12.4050   -6.7800   21.2390 C.3       6 GLP5        0.0000 
     27 CA         14.1570   -9.7475   24.1955 C.3       3 GLC5        0.0000 
     28 CA         16.0310  -10.8450   24.0850 C.3       6 GLP5        0.0000 
     29 CA         11.7290   -9.2035   25.9500 C.3       3 GLC5        0.0000 
     30 CA         11.1750   -9.7570   27.5940 C.3       6 GLP5        0.0000 
     31 CA         13.3945   -8.3495   26.2355 C.3       3 GLC5        0.0000 
     32 CA         14.5060   -8.0490   28.1650 C.3       6 GLP5        0.0000 
     33 CA         11.3280   -7.0825   25.1405 C.3       3 GLC5        0.0000 
     34 CA         10.3730   -5.5150   25.9750 C.3       6 GLP5        0.0000 
     35 CA         10.7075  -12.8780   20.2975 C.3       3 GLC5        0.0000 
     36 CA         12.2760  -13.7690   21.0110 C.3       9 GLL5        0.0000 
     37 CA          9.1390  -11.9870   19.5840 C.3       6 GLP5        0.0000 
     38 CA         11.9045  -13.2685   18.8670 C.3       3 GLC5        0.0000 
     39 O          13.7105  -15.0065   22.8805 O.2       1 ALC1        0.0000 
     40 O          13.2250  -14.7730   21.4900 O.2       7 ALL1        0.0000 
     41 O          11.9025  -15.2060   22.5020 O.2       1 ALC1        0.0000 
     42 O          10.5800  -15.6390   23.5140 O.2       4 ALP1        0.0000 
     43 N          15.5720  -13.2870   23.7100 N.am      2 SEC2        0.0000 
     44 N          16.4620  -13.8900   22.5940 N.am      8 SEL2        0.0000 
     45 N          14.6820  -12.6840   24.8260 N.am      5 SEP2        0.0000 
     46 CA         20.2935  -12.7172   23.8855 C.3       3 GLC5        0.0000 
     47 CA         19.1295  -11.3751   18.7864 C.3       3 GLC5        0.0000 
     48 CA         19.6400  -13.1260   19.6530 C.3       9 GLL5        0.0000 
     49 CA         19.4770   -9.7880   17.8590 C.3       6 GLP5        0.0000 
     50 CA         21.3345  -14.2175   19.7960 C.3       3 GLC5        0.0000 
     51 CA         23.1110  -14.7010   19.4950 C.3       6 GLP5        0.0000 
     52 CA         20.0415  -12.3375   21.4530 C.3       3 GLC5        0.0000 
     53 CA         14.8092  -11.1427   22.4640 C.3       3 GLC5        0.0000 
     54 CA         12.5635   -8.4633   21.9943 C.3       3 GLC5        0.0000 
     55 CA         12.2680  -10.1070   23.3100 C.3       9 GLL5        0.0000 
     56 CA         14.3765  -10.4957   23.4172 C.3       3 GLC5        0.0000 
     57 CA         13.1760  -10.1860   22.1890 C.3       9 GLL5        0.0000 
     58 CA         12.7673  -12.0047   24.5782 C.3       3 GLC5        0.0000 
     59 CA         13.7140  -13.3660   25.6590 C.3       6 GLP5        0.0000 
     60 CA         11.4977  -10.2002   25.5457 C.3       3 GLC5        0.0000 
     61 CA         11.3730  -11.1800   23.6850 C.3       9 GLL5        0.0000 
     62 CA         10.6822   -9.4766   22.5536 C.3       3 GLC5        0.0000 
     63 CA         10.5994  -12.0898   20.9445 C.3       3 GLC5        0.0000 
     64 CA         11.3860  -12.4270   22.9550 C.3       9 GLL5        0.0000 
     65 CA         12.7793  -12.9150   24.0300 C.3       3 GLC5        0.0000 
     66 CA         12.3030  -12.5010   21.8470 C.3       9 GLL5        0.0000 
     67 CA         10.4381  -14.1028   21.1870 C.3       3 GLC5        0.0000 
     68 CA          8.8160  -15.0890   20.6680 C.3       6 GLP5        0.0000 
     69 CA         18.4420  -14.4276   18.5409 C.3       3 GLC5        0.0000 
     70 CA         18.2750  -12.7820   19.0930 C.3       9 GLL5        0.0000 
     71 CA         18.1430  -15.5890   17.1460 C.3       6 GLP5        0.0000 
@<TRIPOS>BOND
@<TRIPOS>SUBSTRUCTURE
     1 ALC1        7 GROUP        1 X    ALC  0     ROOT ALC X 1
     2 SEC2       43 GROUP        1 X    SEC  0     **** SEC X 2
     3 GLC5        1 GROUP        1 X    GLC  0     **** GLC X 6
     4 ALP1        9 GROUP        1 Y    ALP  0     ROOT ALP Y 8
     5 SEP2       45 GROUP        1 Y    SEP  0     **** SEP Y 9
     6 GLP5        3 GROUP        1 Y    GLP  0     **** GLP Y 13
     7 ALL1        8 GROUP        1 Z    ALL  0     ROOT ALL Z 15
     8 SEL2       44 GROUP        1 Z    SEL  0     **** SEL Z 16
     9 GLL5        2 GROUP        1 Z    GLL  0     **** GLL Z 20
@<TRIPOS>SET

