#    Name: 1zrb_062_1_ligand
#    Modification time : Mon Mar 24 17:47:49 2014

@<TRIPOS>MOLECULE
1zrb_062_1_ligand
   61    65     1     0     0
SMALL
NO_CHARGES


@<TRIPOS>ATOM
      1 N1         21.6970  -15.2840   24.6500 N.pl3     1 0621001     0.0000 
      2 C2         21.5320  -16.3180   23.6910 C.ar      1 0621001     0.0000 
      3 C3         20.1950  -16.4780   23.1920 C.ar      1 0621001     0.0000 
      4 C4         19.2090  -15.5800   23.6910 C.ar      1 0621001     0.0000 
      5 C5         19.3940  -14.5580   24.7020 C.ar      1 0621001     0.0000 
      6 C6         20.7300  -14.4290   25.2220 C.ar      1 0621001     0.0000 
      7 C10        19.5440  -17.3740   22.2240 C.ar      1 0621001     0.0000 
      8 C11        18.1410  -17.0040   22.1730 C.ar      1 0621001     0.0000 
      9 C12        17.8850  -15.7790   23.0080 C.3       1 0621001     0.0000 
     10 C13        20.0050  -18.4700   21.3070 C.ar      1 0621001     0.0000 
     11 C14        19.0030  -19.0760   20.4070 C.ar      1 0621001     0.0000 
     12 C15        17.5780  -18.6660   20.3520 C.ar      1 0621001     0.0000 
     13 C16        17.1550  -17.6030   21.2720 C.ar      1 0621001     0.0000 
     14 O21        16.9680  -16.0540   24.0210 O.3       1 0621001     0.0000 
     15 C22        17.4680  -14.4880   22.2190 C.2       1 0621001     0.0000 
     16 N23        18.1650  -14.0000   21.1530 N.am      1 0621001     0.0000 
     17 C24        17.5730  -12.8150   20.4560 C.3       1 0621001     0.0000 
     18 C25        18.2750  -12.7820   19.0930 C.3       1 0621001     0.0000 
     19 C26        19.6400  -13.1260   19.6530 C.3       1 0621001     0.0000 
     20 C27        19.4760  -14.3420   20.5410 C.3       1 0621001     0.0000 
     21 C34        16.0520  -12.7820   20.2950 C.2       1 0621001     0.0000 
     22 N36        15.4550  -11.5900   20.4940 N.am      1 0621001     0.0000 
     23 C37        14.0110  -11.4660   20.2230 C.3       1 0621001     0.0000 
     24 C38        13.1640  -11.4150   21.4630 C.ar      1 0621001     0.0000 
     25 C41        13.1760  -10.1860   22.1890 C.ar      1 0621001     0.0000 
     26 C42        12.2680  -10.1070   23.3100 C.ar      1 0621001     0.0000 
     27 C43        11.3730  -11.1800   23.6850 C.ar      1 0621001     0.0000 
     28 C44        11.3860  -12.4270   22.9550 C.ar      1 0621001     0.0000 
     29 C45        12.3030  -12.5010   21.8470 C.ar      1 0621001     0.0000 
     30 CL1        12.2830   -8.6500   24.3060 Cl        1 0621001     0.0000 
     31 C53        12.2760  -13.7690   21.0110 C.3       1 0621001     0.0000 
     32 N54        13.2250  -14.7730   21.4900 N.4       1 0621001     0.0000 
     33 O60        22.8830  -14.9350   24.9980 O.2       1 0621001     0.0000 
     34 O63        16.4620  -13.8900   22.5940 O.2       1 0621001     0.0000 
     35 O64        15.4320  -13.8010   20.0020 O.2       1 0621001     0.0000 
     36 H          22.2718  -16.8857   23.3865 H         1 0621001     0.0000 
     37 H          18.6544  -13.9939   25.0084 H         1 0621001     0.0000 
     38 H          20.9430  -13.7796   25.9338 H         1 0621001     0.0000 
     39 H          20.9374  -18.7638   21.3140 H         1 0621001     0.0000 
     40 H          19.3097  -19.8303   19.7773 H         1 0621001     0.0000 
     41 H          16.9549  -19.0890   19.7288 H         1 0621001     0.0000 
     42 H          16.2068  -17.2940   21.2815 H         1 0621001     0.0000 
     43 H          17.9004  -11.9072   20.9801 H         1 0621001     0.0000 
     44 H          18.2689  -11.8231   18.7223 H         1 0621001     0.0000 
     45 H          17.9243  -13.5474   18.5031 H         1 0621001     0.0000 
     46 H          20.0122  -12.2987   20.2354 H         1 0621001     0.0000 
     47 H          20.3163  -13.3548   18.8454 H         1 0621001     0.0000 
     48 H          19.3998  -15.2043   19.9504 H         1 0621001     0.0000 
     49 H          20.2341  -14.3573   21.2644 H         1 0621001     0.0000 
     50 H          15.9382  -10.7609   20.8221 H         1 0621001     0.0000 
     51 H          13.6721  -12.3173   19.5961 H         1 0621001     0.0000 
     52 H          13.8186  -10.5516   19.6236 H         1 0621001     0.0000 
     53 H          13.7630   -9.4345   21.9477 H         1 0621001     0.0000 
     54 H          10.7361  -11.0562   24.4611 H         1 0621001     0.0000 
     55 H          10.8031  -13.1782   23.2017 H         1 0621001     0.0000 
     56 H          12.4963  -13.4972   19.9639 H         1 0621001     0.0000 
     57 H          11.2478  -14.1708   21.0258 H         1 0621001     0.0000 
     58 H          13.7309  -14.4534   22.2912 H         1 0621001     0.0000 
     59 H          12.7665  -15.6221   21.7524 H         1 0621001     0.0000 
     60 H          13.9007  -15.0085   20.7914 H         1 0621001     0.0000 
     61 H          16.0748  -16.0431   23.5714 H         1 0621001     0.0000 
@<TRIPOS>BOND
     1    2    1 1    
     2    6    1 1    
     3   33    1 2    
     4    3    2 ar   
     5   36    2 1    
     6    4    3 ar   
     7    7    3 1    
     8    5    4 ar   
     9    9    4 1    
    10    6    5 ar   
    11   37    5 1    
    12   38    6 1    
    13    8    7 ar   
    14   10    7 ar   
    15    9    8 1    
    16   13    8 ar   
    17   14    9 1    
    18   15    9 1    
    19   11   10 ar   
    20   39   10 1    
    21   12   11 ar   
    22   40   11 1    
    23   13   12 ar   
    24   41   12 1    
    25   42   13 1    
    26   61   14 1    
    27   16   15 am   
    28   34   15 2    
    29   17   16 1    
    30   20   16 1    
    31   18   17 1    
    32   21   17 1    
    33   43   17 1    
    34   19   18 1    
    35   44   18 1    
    36   45   18 1    
    37   20   19 1    
    38   46   19 1    
    39   47   19 1    
    40   48   20 1    
    41   49   20 1    
    42   22   21 am   
    43   35   21 2    
    44   23   22 1    
    45   50   22 1    
    46   24   23 1    
    47   51   23 1    
    48   52   23 1    
    49   25   24 ar   
    50   29   24 ar   
    51   26   25 ar   
    52   53   25 1    
    53   27   26 ar   
    54   30   26 1    
    55   28   27 ar   
    56   54   27 1    
    57   29   28 ar   
    58   55   28 1    
    59   31   29 1    
    60   32   31 1    
    61   56   31 1    
    62   57   31 1    
    63   58   32 1    
    64   59   32 1    
    65   60   32 1    
@<TRIPOS>SUBSTRUCTURE
     1 0621001     1 GROUP   
@<TRIPOS>SET

