#    Name: 2ezt_TDM_2_INTS_M
#    Modification time : Mon Apr  7 18:01:00 2014

@<TRIPOS>MOLECULE
2ezt_TDM_2_INTS_M
   83     0    12     0     0
SMALL
NO_CHARGES


@<TRIPOS>ATOM
      1 Zn         23.5580   87.4240   10.4360 Zn        3 ZIC7        0.0000 
      2 Zn         24.3420   86.7910   10.1680 Zn       11 ZIL7        0.0000 
      3 Zn         22.7740   88.0570   10.7040 Zn        7 ZIP7        0.0000 
      4 N          23.9590   85.8630    9.1680 N.am      2 SEC2        0.0000 
      5 N          24.3420   86.7910   10.1680 N.am     10 SEL2        0.0000 
      6 N          23.5760   84.9350    8.1680 N.am      6 SEP2        0.0000 
      7 N          25.8600   83.9915    9.5545 N.am      2 SEC2        0.0000 
      8 N          25.9790   84.8960   10.6410 N.am     10 SEL2        0.0000 
      9 N          25.7410   83.0870    8.4680 N.am      6 SEP2        0.0000 
     10 N          23.0460   87.0070   13.2885 N.am      2 SEC2        0.0000 
     11 N          23.9570   87.2520   14.2180 N.am     10 SEL2        0.0000 
     12 N          22.1350   86.7620   12.3590 N.am      6 SEP2        0.0000 
     13 Zn         23.4665   88.4070   11.4725 Zn        3 ZIC7        0.0000 
     14 Zn         24.1590   88.7570   12.2410 Zn       11 ZIL7        0.0000 
     15 N          22.9150   89.3415   12.7795 N.am      2 SEC2        0.0000 
     16 N          24.1590   88.7570   12.2410 N.am     10 SEL2        0.0000 
     17 N          21.6710   89.9260   13.3180 N.am      6 SEP2        0.0000 
     18 N          24.7645   89.9970   11.9450 N.am      2 SEC2        0.0000 
     19 N          25.3700   91.2370   11.6490 N.am      6 SEP2        0.0000 
     20 N          26.5745   87.9575   15.0005 N.am      2 SEC2        0.0000 
     21 N          26.1180   88.5790   13.8300 N.am     10 SEL2        0.0000 
     22 N          27.0310   87.3360   16.1710 N.am      6 SEP2        0.0000 
     23 N          26.7360   89.9265   13.7785 N.am      2 SEC2        0.0000 
     24 N          27.3540   91.2740   13.7270 N.am      6 SEP2        0.0000 
     25 CA         28.4350   86.5355   12.8450 C.3       4 GLC5        0.0000 
     26 CA         28.1660   86.9010   10.8550 C.3      12 GLL5        0.0000 
     27 CA         28.7040   86.1700   14.8350 C.3       8 GLP5        0.0000 
     28 CA         28.4200   85.8485    9.3590 C.3       4 GLC5        0.0000 
     29 CA         28.6740   84.7960    7.8630 C.3       8 GLP5        0.0000 
     30 CA         27.5675   87.7200    9.0840 C.3       4 GLC5        0.0000 
     31 CA         26.9690   88.5390    7.3130 C.3       8 GLP5        0.0000 
     32 CA         28.2075   89.3940    9.5445 C.3       4 GLC5        0.0000 
     33 CA         29.0270   88.1000   10.5170 C.3      12 GLL5        0.0000 
     34 CA         27.3880   90.6880    8.5720 C.3       8 GLP5        0.0000 
     35 CA         29.9755   86.8210   13.4380 C.3       4 GLC5        0.0000 
     36 CA         31.2470   87.4720   12.0410 C.3      12 GLL5        0.0000 
     37 CA         31.6145   86.1640    9.8360 C.3       4 GLC5        0.0000 
     38 CA         32.8270   87.3840   11.2800 C.3      12 GLL5        0.0000 
     39 CA         30.4020   84.9440    8.3920 C.3       8 GLP5        0.0000 
     40 CA         34.9655   84.9875   13.8355 C.3       4 GLC5        0.0000 
     41 CA         33.7600   86.8700   13.6480 C.3      12 GLL5        0.0000 
     42 CA         36.1710   83.1050   14.0230 C.3       8 GLP5        0.0000 
     43 CA         33.5120   86.0965   15.2615 C.3       4 GLC5        0.0000 
     44 CA         33.2640   85.3230   16.8750 C.3       8 GLP5        0.0000 
     45 CA         29.0620   88.3695    7.6735 C.3       4 GLC5        0.0000 
     46 CA         31.1550   88.2000    8.0340 C.3      12 GLL5        0.0000 
     47 CA         33.1040   89.3525   10.0450 C.3       4 GLC5        0.0000 
     48 CA         33.9530   87.6030    9.0210 C.3      12 GLL5        0.0000 
     49 CA         32.2550   91.1020   11.0690 C.3       8 GLP5        0.0000 
     50 O          34.5790   83.7765   10.8890 O.2       1 ALC1        0.0000 
     51 O          34.2450   84.8490   10.1750 O.2       9 ALL1        0.0000 
     52 O          34.9130   82.7040   11.6030 O.2       5 ALP1        0.0000 
     53 N          33.2100   82.5465    8.8890 N.am      2 SEC2        0.0000 
     54 N          33.8900   83.8940    8.1020 N.am     10 SEL2        0.0000 
     55 N          32.5300   81.1990    9.6760 N.am      6 SEP2        0.0000 
     56 CA         32.0340   84.4615    7.5840 C.3       4 GLC5        0.0000 
     57 CA         33.6660   83.9790    6.7760 C.3      12 GLL5        0.0000 
     58 CA         31.8735   83.9510    5.6735 C.3       4 GLC5        0.0000 
     59 CA         30.0810   83.9230    4.5710 C.3       8 GLP5        0.0000 
     60 CA         32.0300   82.5015    7.3940 C.3       4 GLC5        0.0000 
     61 CA         33.5490   82.7120    5.9770 C.3      12 GLL5        0.0000 
     62 CA         30.5110   82.2910    8.8110 C.3       8 GLP5        0.0000 
     63 CA         31.7665   82.4440    5.5155 C.3       4 GLC5        0.0000 
     64 CA         29.9840   82.1760    5.0540 C.3       8 GLP5        0.0000 
     65 CA         30.0873   86.4605    9.4527 C.3       4 GLC5        0.0000 
     66 CA         30.5180   87.8540   10.5100 C.3      12 GLL5        0.0000 
     67 CA         29.5822   88.9750   12.3887 C.3       4 GLC5        0.0000 
     68 CA         29.3920   89.9730   14.2640 C.3       8 GLP5        0.0000 
     69 CA         30.4542   89.6675   10.2737 C.3       4 GLC5        0.0000 
     70 CA         31.1360   91.3580   10.0340 C.3       8 GLP5        0.0000 
     71 CA         32.0875   85.5670   12.5578 C.3       4 GLC5        0.0000 
     72 CA         32.1380   83.7060   13.4550 C.3       8 GLP5        0.0000 
     73 CA         31.9840   88.5570   13.2378 C.3       4 GLC5        0.0000 
     74 CA         31.9310   89.6860   14.8150 C.3       8 GLP5        0.0000 
     75 CA         32.1460   89.2650   11.3648 C.3       4 GLC5        0.0000 
     76 CA         33.0090   85.3428   13.1860 C.3       4 GLC5        0.0000 
     77 CA         34.0000   87.0890   12.1860 C.3      12 GLL5        0.0000 
     78 CA         32.9055   88.3328   13.8660 C.3       4 GLC5        0.0000 
     79 CA         30.8630   86.4963    8.5750 C.3       4 GLC5        0.0000 
     80 CA         31.4930   87.8970    9.4820 C.3      12 GLL5        0.0000 
     81 CA         31.2300   89.7032    9.3960 C.3       4 GLC5        0.0000 
     82 CA         32.0970   85.5501    8.1003 C.3       4 GLC5        0.0000 
     83 CA         34.0020   85.0200    8.8500 C.3      12 GLL5        0.0000 
@<TRIPOS>BOND
@<TRIPOS>SUBSTRUCTURE
     1 ALC1       50 GROUP        1 X    ALC  0     ROOT ALC X 1
     2 SEC2        4 GROUP        1 X    SEC  0     **** SEC X 2
     3 ZIC7        1 GROUP        1 X    ZIC  0     **** ZIC X 5
     4 GLC5       25 GROUP        1 X    GLC  0     **** GLC X 6
     5 ALP1       52 GROUP        1 Y    ALP  0     ROOT ALP Y 8
     6 SEP2        6 GROUP        1 Y    SEP  0     **** SEP Y 9
     7 ZIP7        3 GROUP        1 Y    ZIP  0     **** ZIP Y 12
     8 GLP5       27 GROUP        1 Y    GLP  0     **** GLP Y 13
     9 ALL1       51 GROUP        1 Z    ALL  0     ROOT ALL Z 15
    10 SEL2        5 GROUP        1 Z    SEL  0     **** SEL Z 16
    11 ZIL7        2 GROUP        1 Z    ZIL  0     **** ZIL Z 19
    12 GLL5       26 GROUP        1 Z    GLL  0     **** GLL Z 20
@<TRIPOS>SET

