#    Name: 2ezt_TDM_2_ligand
#    Modification time : Mon Apr  7 18:01:00 2014

@<TRIPOS>MOLECULE
2ezt_TDM_2_ligand
   48    49     1     0     0
SMALL
NO_CHARGES


@<TRIPOS>ATOM
      1 O1A        24.3420   86.7910   10.1680 O.co2     1 TDM1614     0.0000 
      2 PA         25.6190   86.3470   10.8410 P.3       1 TDM1614     0.0000 
      3 O2A        25.9790   84.8960   10.6410 O.co2     1 TDM1614     0.0000 
      4 O3A        25.5540   86.6750   12.4260 O.3       1 TDM1614     0.0000 
      5 PB         24.9020   87.9240   13.2500 P.3       1 TDM1614     0.0000 
      6 O2B        23.9570   87.2520   14.2180 O.co2     1 TDM1614     0.0000 
      7 O3B        24.1590   88.7570   12.2410 O.co2     1 TDM1614     0.0000 
      8 O1B        26.1180   88.5790   13.8300 O.co2     1 TDM1614     0.0000 
      9 O7         26.8580   87.2040   10.3590 O.3       1 TDM1614     0.0000 
     10 C7         28.1660   86.9010   10.8550 C.3       1 TDM1614     0.0000 
     11 C6         29.0270   88.1000   10.5170 C.3       1 TDM1614     0.0000 
     12 C5         30.5180   87.8540   10.5100 C.2       1 TDM1614     0.0000 
     13 S1         31.2470   87.4720   12.0410 S.3       1 TDM1614     0.0000 
     14 C2         32.8270   87.3840   11.2800 C.2       1 TDM1614     0.0000 
     15 C27        34.0000   87.0890   12.1860 C.2       1 TDM1614     0.0000 
     16 C29        33.7600   86.8700   13.6480 C.3       1 TDM1614     0.0000 
     17 O28        35.2470   86.9720   11.7180 O.3       1 TDM1614     0.0000 
     18 N3         32.7690   87.6310    9.9260 N.pl3     1 TDM1614     0.0000 
     19 C4         31.4930   87.8970    9.4820 C.2       1 TDM1614     0.0000 
     20 CM4        31.1550   88.2000    8.0340 C.3       1 TDM1614     0.0000 
     21 C7'        33.9530   87.6030    9.0210 C.3       1 TDM1614     0.0000 
     22 C5'        33.8830   86.2910    8.2440 C.ar      1 TDM1614     0.0000 
     23 C4'        34.0020   85.0200    8.8500 C.ar      1 TDM1614     0.0000 
     24 N4'        34.2450   84.8490   10.1750 N.pl3     1 TDM1614     0.0000 
     25 N3'        33.8900   83.8940    8.1020 N.ar      1 TDM1614     0.0000 
     26 C2'        33.6660   83.9790    6.7760 C.ar      1 TDM1614     0.0000 
     27 CM2        33.5490   82.7120    5.9770 C.3       1 TDM1614     0.0000 
     28 N1'        33.5240   85.1830    6.1810 N.ar      1 TDM1614     0.0000 
     29 C6'        33.6240   86.3290    6.8760 C.ar      1 TDM1614     0.0000 
     30 H          28.5879   86.0291   10.3733 H         1 TDM1614     0.0000 
     31 H          28.1693   86.7681   11.9285 H         1 TDM1614     0.0000 
     32 H          28.8005   88.9176   11.2377 H         1 TDM1614     0.0000 
     33 H          28.7218   88.4899    9.5199 H         1 TDM1614     0.0000 
     34 H          34.8652   87.6251    9.5922 H         1 TDM1614     0.0000 
     35 H          33.9170   88.4250    8.3269 H         1 TDM1614     0.0000 
     36 H          34.7655   85.5751   10.6242 H         1 TDM1614     0.0000 
     37 H          33.8820   84.0120   10.5845 H         1 TDM1614     0.0000 
     38 H          33.5122   87.2494    6.4156 H         1 TDM1614     0.0000 
     39 H          34.6103   86.6832   14.1400 H         1 TDM1614     0.0000 
     40 H          33.3412   87.6691   14.0794 H         1 TDM1614     0.0000 
     41 H          33.1499   86.0948   13.8122 H         1 TDM1614     0.0000 
     42 H          31.9687   88.1900    7.4528 H         1 TDM1614     0.0000 
     43 H          30.5153   87.5317    7.6543 H         1 TDM1614     0.0000 
     44 H          30.7328   89.1007    7.9318 H         1 TDM1614     0.0000 
     45 H          34.3800   82.1587    6.0344 H         1 TDM1614     0.0000 
     46 H          32.7934   82.1401    6.2962 H         1 TDM1614     0.0000 
     47 H          33.3869   82.8977    5.0079 H         1 TDM1614     0.0000 
     48 H          35.8314   87.0000   12.5290 H         1 TDM1614     0.0000 
@<TRIPOS>BOND
     1    2    1 ar   
     2    3    2 ar   
     3    4    2 1    
     4    9    2 1    
     5    5    4 1    
     6    6    5 ar   
     7    7    5 ar   
     8    8    5 ar   
     9   10    9 1    
    10   11   10 1    
    11   30   10 1    
    12   31   10 1    
    13   12   11 1    
    14   32   11 1    
    15   33   11 1    
    16   13   12 1    
    17   19   12 2    
    18   14   13 1    
    19   15   14 2    
    20   18   14 1    
    21   16   15 1    
    22   17   15 1    
    23   39   16 1    
    24   40   16 1    
    25   41   16 1    
    26   48   17 1    
    27   19   18 1    
    28   21   18 1    
    29   20   19 1    
    30   42   20 1    
    31   43   20 1    
    32   44   20 1    
    33   22   21 1    
    34   34   21 1    
    35   35   21 1    
    36   23   22 ar   
    37   29   22 ar   
    38   24   23 1    
    39   25   23 ar   
    40   36   24 1    
    41   37   24 1    
    42   26   25 ar   
    43   27   26 1    
    44   28   26 ar   
    45   45   27 1    
    46   46   27 1    
    47   47   27 1    
    48   29   28 ar   
    49   38   29 1    
@<TRIPOS>SUBSTRUCTURE
     1 TDM1614     1 GROUP   
@<TRIPOS>SET

