#    Name: 2xk6_EQH_1_INTS_M
#    Modification time : Tue Mar 25 06:08:14 2014

@<TRIPOS>MOLECULE
2xk6_EQH_1_INTS_M
   72     0    12     0     0
SMALL
NO_CHARGES


@<TRIPOS>ATOM
      1 O          24.7185    3.8635  -18.7900 O.2       1 ALC1        0.0000 
      2 O          24.7280    5.1080  -18.3040 O.2       9 ALL1        0.0000 
      3 O          24.7090    2.6190  -19.2760 O.2       5 ALP1        0.0000 
      4 CA         26.6550    5.1280  -17.9850 C.3       4 GLC5        0.0000 
      5 CA         25.3080    6.2410  -18.9590 C.3      12 GLL5        0.0000 
      6 CA         28.0020    4.0150  -17.0110 C.3       8 GLP5        0.0000 
      7 CA         23.6365    5.7355  -20.3110 C.3       4 GLC5        0.0000 
      8 CA         21.9650    5.2300  -21.6630 C.3       8 GLP5        0.0000 
      9 N          25.3160    5.3285  -21.4675 N.am      2 SEC2        0.0000 
     10 N          25.7650    6.1030  -20.2730 N.am     10 SEL2        0.0000 
     11 N          24.8670    4.5540  -22.6620 N.am      6 SEP2        0.0000 
     12 CA         27.3870    5.4100  -20.1770 C.3       4 GLC5        0.0000 
     13 CA         26.3020    7.1490  -20.9090 C.3      12 GLL5        0.0000 
     14 CA         28.4720    3.6710  -19.4450 C.3       8 GLP5        0.0000 
     15 CA         24.6705    6.6670  -21.8385 C.3       4 GLC5        0.0000 
     16 CA         23.0390    6.1850  -22.7680 C.3       8 GLP5        0.0000 
     17 CA         27.3990    7.5545  -25.6455 C.3       4 GLC5        0.0000 
     18 CA         28.6160    8.7530  -24.7610 C.3      12 GLL5        0.0000 
     19 CA         26.1820    6.3560  -26.5300 C.3       8 GLP5        0.0000 
     20 CA         26.7880    9.8855  -24.3855 C.3       4 GLC5        0.0000 
     21 CA         24.9600   11.0180  -24.0100 C.3       8 GLP5        0.0000 
     22 CA         30.4000    9.8540  -22.1525 C.3       4 GLC5        0.0000 
     23 CA         29.9480    9.3340  -24.2720 C.3      12 GLL5        0.0000 
     24 CA         30.8520   10.3740  -20.0330 C.3       8 GLP5        0.0000 
     25 CA         23.9225    9.2775  -17.7230 C.3       4 GLC5        0.0000 
     26 CA         24.8660    7.6850  -16.8730 C.3      12 GLL5        0.0000 
     27 CA         22.9790   10.8700  -18.5730 C.3       8 GLP5        0.0000 
     28 CA         22.8910    9.4690  -15.8220 C.3       4 GLC5        0.0000 
     29 CA         23.5820    8.1160  -14.2040 C.3      12 GLL5        0.0000 
     30 CA         22.2000   10.8220  -17.4400 C.3       8 GLP5        0.0000 
     31 NZ         23.4120    7.0315  -11.1465 N.4       3 LYC4        0.0000 
     32 NZ         22.5020    7.0790  -12.3660 N.4      11 LYL4        0.0000 
     33 NZ         24.3220    6.9840   -9.9270 N.4       7 LYP4        0.0000 
     34 N          23.4120    7.0315  -11.1465 N.am      2 SEC2        0.0000 
     35 N          22.5020    7.0790  -12.3660 N.am     10 SEL2        0.0000 
     36 N          24.3220    6.9840   -9.9270 N.am      6 SEP2        0.0000 
     37 N          21.4140    6.2095  -12.6035 N.am      2 SEC2        0.0000 
     38 N          20.3260    5.3400  -12.8410 N.am      6 SEP2        0.0000 
     39 NZ         23.6170    8.1320  -11.0120 N.4       3 LYC4        0.0000 
     40 NZ         22.9120    9.2800  -12.0970 N.4      11 LYL4        0.0000 
     41 CA         21.8445    9.1035  -16.4620 C.3       4 GLC5        0.0000 
     42 CA         22.6970    8.0600  -15.4620 C.3      12 GLL5        0.0000 
     43 CA         20.9920   10.1470  -17.4620 C.3       8 GLP5        0.0000 
     44 CA         20.5485    8.1275  -15.3650 C.3       4 GLC5        0.0000 
     45 CA         18.4000    8.1950  -15.2680 C.3       8 GLP5        0.0000 
     46 CA         22.2200    5.5250  -16.8105 C.3       4 GLC5        0.0000 
     47 CA         23.3980    7.2430  -16.5630 C.3      12 GLL5        0.0000 
     48 CA         21.0420    3.8070  -17.0580 C.3       8 GLP5        0.0000 
     49 CA         22.7990    9.0325  -17.0015 C.3       4 GLC5        0.0000 
     50 CA         28.8025   10.3543  -20.3422 C.3       4 GLC5        0.0000 
     51 CA         26.4610   11.1080  -20.2860 C.3      12 GLL5        0.0000 
     52 CA         25.8565   10.6762  -22.3308 C.3       4 GLC5        0.0000 
     53 CA         27.0450    9.5610  -21.0170 C.3      12 GLL5        0.0000 
     54 CA         24.9315   12.8365  -20.7628 C.3       4 GLC5        0.0000 
     55 CA         23.0550   13.9770  -20.7570 C.3       8 GLP5        0.0000 
     56 CA         29.2893   11.1478  -20.8495 C.3       4 GLC5        0.0000 
     57 CA         27.1550   12.2840  -21.2510 C.3      12 GLL5        0.0000 
     58 CA         26.3432   11.4697  -22.8380 C.3       4 GLC5        0.0000 
     59 CA         28.2980   11.5590  -22.0810 C.3      12 GLL5        0.0000 
     60 CA         29.5675   10.0330  -21.4235 C.3       4 GLC5        0.0000 
     61 CA         27.8550   10.0120  -22.2790 C.3      12 GLL5        0.0000 
     62 CA         26.6215   10.3550  -23.4120 C.3       4 GLC5        0.0000 
     63 CA         29.2289    7.1671  -23.8833 C.3       4 GLC5        0.0000 
     64 CA         28.7110    9.3720  -23.3490 C.3      12 GLL5        0.0000 
     65 CA         29.1520    5.1360  -23.6030 C.3       8 GLP5        0.0000 
     66 CA         24.3430    5.8440  -15.7615 C.3       4 GLC5        0.0000 
     67 CA         24.5540    4.2240  -14.8050 C.3       8 GLP5        0.0000 
     68 CA         26.9997    8.4275  -14.7170 C.3       4 GLC5        0.0000 
     69 CA         25.6110    8.5470  -15.7970 C.3      12 GLL5        0.0000 
     70 CA         28.7480    8.1380  -14.3020 C.3       8 GLP5        0.0000 
     71 CA         23.7257    9.7695  -16.2860 C.3       4 GLC5        0.0000 
     72 CA         23.8468    6.1560  -14.8190 C.3       4 GLC5        0.0000 
@<TRIPOS>BOND
@<TRIPOS>SUBSTRUCTURE
     1 ALC1        1 GROUP        1 X    ALC  0     ROOT ALC X 1
     2 SEC2        9 GROUP        1 X    SEC  0     **** SEC X 2
     3 LYC4       31 GROUP        1 X    LYC  0     **** LYC X 4
     4 GLC5        4 GROUP        1 X    GLC  0     **** GLC X 6
     5 ALP1        3 GROUP        1 Y    ALP  0     ROOT ALP Y 8
     6 SEP2       11 GROUP        1 Y    SEP  0     **** SEP Y 9
     7 LYP4       33 GROUP        1 Y    LYP  0     **** LYP Y 11
     8 GLP5        6 GROUP        1 Y    GLP  0     **** GLP Y 13
     9 ALL1        2 GROUP        1 Z    ALL  0     ROOT ALL Z 15
    10 SEL2       10 GROUP        1 Z    SEL  0     **** SEL Z 16
    11 LYL4       32 GROUP        1 Z    LYL  0     **** LYL Z 18
    12 GLL5        5 GROUP        1 Z    GLL  0     **** GLL Z 20
@<TRIPOS>SET

