#    Name: 2xk6_EQH_1_ligand
#    Modification time : Tue Mar 25 06:08:14 2014

@<TRIPOS>MOLECULE
2xk6_EQH_1_ligand
   44    47     1     0     0
SMALL
NO_CHARGES


@<TRIPOS>ATOM
      1 N01        24.7280    5.1080  -18.3040 N.pl3     1 EQH1280     0.0000 
      2 C02        25.3080    6.2410  -18.9590 C.ar      1 EQH1280     0.0000 
      3 N03        25.7650    6.1030  -20.2730 N.ar      1 EQH1280     0.0000 
      4 C04        26.3020    7.1490  -20.9090 C.ar      1 EQH1280     0.0000 
      5 C05        26.4130    8.4550  -20.2300 C.ar      1 EQH1280     0.0000 
      6 C06        27.0450    9.5610  -21.0170 C.2       1 EQH1280     0.0000 
      7 S07        26.4610   11.1080  -20.2860 S.3       1 EQH1280     0.0000 
      8 C08        27.1550   12.2840  -21.2510 C.2       1 EQH1280     0.0000 
      9 C09        28.2980   11.5590  -22.0810 C.2       1 EQH1280     0.0000 
     10 C10        27.8550   10.0120  -22.2790 C.2       1 EQH1280     0.0000 
     11 C11        28.7110    9.3720  -23.3490 C.3       1 EQH1280     0.0000 
     12 C12        28.6160    8.7530  -24.7610 C.3       1 EQH1280     0.0000 
     13 C13        29.9480    9.3340  -24.2720 C.3       1 EQH1280     0.0000 
     14 N14        25.9660    8.6020  -18.9260 N.ar      1 EQH1280     0.0000 
     15 C15        25.4150    7.5310  -18.2810 C.ar      1 EQH1280     0.0000 
     16 C16        24.8660    7.6850  -16.8730 C.3       1 EQH1280     0.0000 
     17 C17        25.6110    8.5470  -15.7970 C.3       1 EQH1280     0.0000 
     18 C18        24.8920    8.8870  -14.4670 C.3       1 EQH1280     0.0000 
     19 C19        23.5820    8.1160  -14.2040 C.3       1 EQH1280     0.0000 
     20 C20        22.9590    8.1150  -12.8320 C.2       1 EQH1280     0.0000 
     21 O21        22.5020    7.0790  -12.3660 O.co2     1 EQH1280     0.0000 
     22 O22        22.9120    9.2800  -12.0970 O.co2     1 EQH1280     0.0000 
     23 C23        22.6970    8.0600  -15.4620 C.3       1 EQH1280     0.0000 
     24 C24        23.3980    7.2430  -16.5630 C.3       1 EQH1280     0.0000 
     25 H          24.4609    5.2406  -17.3495 H         1 EQH1280     0.0000 
     26 H          24.6385    4.2788  -18.8558 H         1 EQH1280     0.0000 
     27 H          26.6558    7.1070  -21.8718 H         1 EQH1280     0.0000 
     28 H          26.9126   13.0886  -21.2606 H         1 EQH1280     0.0000 
     29 H          29.0260   11.9071  -22.3794 H         1 EQH1280     0.0000 
     30 H          29.0520    8.1620  -22.9132 H         1 EQH1280     0.0000 
     31 H          28.2136    9.3982  -25.3190 H         1 EQH1280     0.0000 
     32 H          28.6599    7.8167  -24.6558 H         1 EQH1280     0.0000 
     33 H          30.4842    8.6121  -23.9868 H         1 EQH1280     0.0000 
     34 H          30.0379   10.1936  -24.6501 H         1 EQH1280     0.0000 
     35 H          25.3979    6.5068  -16.4184 H         1 EQH1280     0.0000 
     36 H          25.9220    9.5064  -16.2852 H         1 EQH1280     0.0000 
     37 H          26.5752    8.0301  -15.5547 H         1 EQH1280     0.0000 
     38 H          24.6751    9.9708  -14.4533 H         1 EQH1280     0.0000 
     39 H          25.5907    8.6951  -13.6322 H         1 EQH1280     0.0000 
     40 H          24.0485    6.9434  -14.2570 H         1 EQH1280     0.0000 
     41 H          22.5226    9.0664  -15.8211 H         1 EQH1280     0.0000 
     42 H          21.7539    7.5895  -15.2145 H         1 EQH1280     0.0000 
     43 H          23.4134    6.1819  -16.2703 H         1 EQH1280     0.0000 
     44 H          22.8138    7.3155  -17.4932 H         1 EQH1280     0.0000 
@<TRIPOS>BOND
     1    2    1 1    
     2   25    1 1    
     3   26    1 1    
     4    3    2 ar   
     5   15    2 ar   
     6    4    3 ar   
     7    5    4 ar   
     8   27    4 1    
     9    6    5 1    
    10   14    5 ar   
    11    7    6 1    
    12   10    6 2    
    13    8    7 1    
    14    9    8 2    
    15   28    8 1    
    16   10    9 1    
    17   29    9 1    
    18   11   10 1    
    19   12   11 1    
    20   13   11 1    
    21   30   11 1    
    22   13   12 1    
    23   31   12 1    
    24   32   12 1    
    25   33   13 1    
    26   34   13 1    
    27   15   14 ar   
    28   16   15 1    
    29   17   16 1    
    30   24   16 1    
    31   35   16 1    
    32   18   17 1    
    33   36   17 1    
    34   37   17 1    
    35   19   18 1    
    36   38   18 1    
    37   39   18 1    
    38   20   19 1    
    39   23   19 1    
    40   40   19 1    
    41   21   20 ar   
    42   22   20 ar   
    43   24   23 1    
    44   41   23 1    
    45   42   23 1    
    46   43   24 1    
    47   44   24 1    
@<TRIPOS>SUBSTRUCTURE
     1 EQH1280     1 GROUP   
@<TRIPOS>SET

