#    Name: 3go6_ADP_1_INTS_M
#    Modification time : Tue Mar 25 12:47:13 2014

@<TRIPOS>MOLECULE
3go6_ADP_1_INTS_M
   49     0     9     0     0
SMALL
NO_CHARGES


@<TRIPOS>ATOM
      1 N          -8.8560   -3.7455   26.7680 N.am      2 SEC2        0.0000 
      2 N          -9.8220   -2.8300   26.2300 N.am      8 SEL2        0.0000 
      3 N          -7.8900   -4.6610   27.3060 N.am      5 SEP2        0.0000 
      4 CA        -10.0330   -5.5475   32.3380 C.3       3 GLC5        0.0000 
      5 CA         -8.8830   -4.3040   31.2450 C.3       9 GLL5        0.0000 
      6 CA        -11.1830   -6.7910   33.4310 C.3       6 GLP5        0.0000 
      7 CA         -8.7320   -5.1065   29.4550 C.3       3 GLC5        0.0000 
      8 CA         -8.5810   -5.9090   27.6650 C.3       6 GLP5        0.0000 
      9 CA         -5.4860   -4.1435   31.5765 C.3       3 GLC5        0.0000 
     10 CA         -7.6300   -4.2470   32.1030 C.3       9 GLL5        0.0000 
     11 CA         -3.3420   -4.0400   31.0500 C.3       6 GLP5        0.0000 
     12 CA         -9.5530   -5.3610   33.4970 C.3       3 GLC5        0.0000 
     13 CA         -7.9230   -3.9310   33.5630 C.3       9 GLL5        0.0000 
     14 CA         -9.3915   -2.4500   33.8500 C.3       3 GLC5        0.0000 
     15 CA        -10.8600   -0.9690   34.1370 C.3       6 GLP5        0.0000 
     16 O          -8.6960   -5.0105   35.4855 O.2       1 ALC1        0.0000 
     17 O          -8.1220   -5.1250   34.3100 O.2       7 ALL1        0.0000 
     18 O          -9.2700   -4.8960   36.6610 O.2       4 ALP1        0.0000 
     19 CA         -5.5925   -2.5435   35.8085 C.3       3 GLC5        0.0000 
     20 CA         -6.7080   -3.1340   34.0220 C.3       9 GLL5        0.0000 
     21 CA         -4.4770   -1.9530   37.5950 C.3       6 GLP5        0.0000 
     22 CA         -4.7955   -3.2365   31.9045 C.3       3 GLC5        0.0000 
     23 CA         -6.2490   -2.4330   32.7590 C.3       9 GLL5        0.0000 
     24 CA         -4.3035   -1.6055   32.7725 C.3       3 GLC5        0.0000 
     25 CA         -2.3580   -0.7780   32.7860 C.3       6 GLP5        0.0000 
     26 CA         -7.8795    3.0735   34.6045 C.3       3 GLC5        0.0000 
     27 CA         -6.4640    2.4590   33.8090 C.3       9 GLL5        0.0000 
     28 CA         -9.2950    3.6880   35.4000 C.3       6 GLP5        0.0000 
     29 CA         -4.3765    3.0220   33.8565 C.3       3 GLC5        0.0000 
     30 CA         -2.2890    3.5850   33.9040 C.3       6 GLP5        0.0000 
     31 CA         -6.0595    4.2395   32.8850 C.3       3 GLC5        0.0000 
     32 CA         -5.6550    6.0200   31.9610 C.3       6 GLP5        0.0000 
     33 CA         -6.8025    1.3055   35.6470 C.3       3 GLC5        0.0000 
     34 CA         -4.8330    1.2160   34.9940 C.3       9 GLL5        0.0000 
     35 CA         -8.7720    1.3950   36.3000 C.3       6 GLP5        0.0000 
     36 CA         -4.6550   -0.3685   36.2945 C.3       3 GLC5        0.0000 
     37 CA         -3.5610    2.4005   34.4490 C.3       3 GLC5        0.0000 
     38 CA         -3.3380    0.2880   34.6140 C.3       3 GLC5        0.0000 
     39 CA         -1.8430   -0.6400   34.2340 C.3       6 GLP5        0.0000 
     40 CA         -4.2535   -0.4005   33.1285 C.3       3 GLC5        0.0000 
     41 CA         -6.1490   -0.0230   33.4710 C.3       9 GLL5        0.0000 
     42 CA         -6.9413   -6.0085   33.0250 C.3       3 GLC5        0.0000 
     43 CA         -6.1060   -7.9280   33.2170 C.3       6 GLP5        0.0000 
     44 CA         -7.4532   -3.6573   35.8738 C.3       3 GLC5        0.0000 
     45 CA         -7.5910   -3.7820   37.9550 C.3       6 GLP5        0.0000 
     46 CA         -7.6440    0.9943   34.7967 C.3       3 GLC5        0.0000 
     47 CA         -5.7421    1.0879   31.7124 C.3       3 GLC5        0.0000 
     48 CA         -6.8830    1.2100   33.1160 C.3       9 GLL5        0.0000 
     49 CA         -5.0730    1.2700   29.9580 C.3       6 GLP5        0.0000 
@<TRIPOS>BOND
@<TRIPOS>SUBSTRUCTURE
     1 ALC1       16 GROUP        1 X    ALC  0     ROOT ALC X 1
     2 SEC2        1 GROUP        1 X    SEC  0     **** SEC X 2
     3 GLC5        4 GROUP        1 X    GLC  0     **** GLC X 6
     4 ALP1       18 GROUP        1 Y    ALP  0     ROOT ALP Y 8
     5 SEP2        3 GROUP        1 Y    SEP  0     **** SEP Y 9
     6 GLP5        6 GROUP        1 Y    GLP  0     **** GLP Y 13
     7 ALL1       17 GROUP        1 Z    ALL  0     ROOT ALL Z 15
     8 SEL2        2 GROUP        1 Z    SEL  0     **** SEL Z 16
     9 GLL5        5 GROUP        1 Z    GLL  0     **** GLL Z 20
@<TRIPOS>SET

