#    Name: 3go6_ADP_1_ligand
#    Modification time : Tue Mar 25 12:47:13 2014

@<TRIPOS>MOLECULE
3go6_ADP_1_ligand
   39    41     1     0     0
SMALL
NO_CHARGES


@<TRIPOS>ATOM
      1 PB        -10.6540   -2.1870   27.3120 P.3       1 ADP305      0.0000 
      2 O1B       -10.6370   -0.6690   27.2590 O.co2     1 ADP305      0.0000 
      3 O2B       -12.0450   -2.7610   27.4750 O.co2     1 ADP305      0.0000 
      4 O3B        -9.8220   -2.8300   26.2300 O.co2     1 ADP305      0.0000 
      5 PA        -10.5660   -2.5080   30.2050 P.3       1 ADP305      0.0000 
      6 O1A       -10.8980   -1.0620   30.5450 O.co2     1 ADP305      0.0000 
      7 O2A       -11.6450   -3.5630   30.3120 O.co2     1 ADP305      0.0000 
      8 O3A        -9.9040   -2.5540   28.7100 O.3       1 ADP305      0.0000 
      9 O5'        -9.3630   -2.9640   31.1640 O.3       1 ADP305      0.0000 
     10 C5'        -8.8830   -4.3040   31.2450 C.3       1 ADP305      0.0000 
     11 C4'        -7.6300   -4.2470   32.1030 C.3       1 ADP305      0.0000 
     12 O4'        -6.7920   -3.1780   31.6560 O.3       1 ADP305      0.0000 
     13 C3'        -7.9230   -3.9310   33.5630 C.3       1 ADP305      0.0000 
     14 O3'        -8.1220   -5.1250   34.3100 O.3       1 ADP305      0.0000 
     15 C2'        -6.7080   -3.1340   34.0220 C.3       1 ADP305      0.0000 
     16 O2'        -5.6250   -3.9590   34.4560 O.3       1 ADP305      0.0000 
     17 C1'        -6.2490   -2.4330   32.7590 C.3       1 ADP305      0.0000 
     18 N9         -6.6840   -1.0070   32.7300 N.pl3     1 ADP305      0.0000 
     19 C8         -7.6700   -0.4740   31.9680 C.2       1 ADP305      0.0000 
     20 N7         -7.8020    0.8630   32.1910 N.2       1 ADP305      0.0000 
     21 C5         -6.8830    1.2100   33.1160 C.ar      1 ADP305      0.0000 
     22 C6         -6.4640    2.4590   33.8090 C.ar      1 ADP305      0.0000 
     23 N6         -7.0830    3.6360   33.5520 N.pl3     1 ADP305      0.0000 
     24 N1         -5.4560    2.3800   34.7130 N.ar      1 ADP305      0.0000 
     25 C2         -4.8330    1.2160   34.9940 C.ar      1 ADP305      0.0000 
     26 N3         -5.1600    0.0500   34.4010 N.ar      1 ADP305      0.0000 
     27 C4         -6.1490   -0.0230   33.4710 C.ar      1 ADP305      0.0000 
     28 H          -8.6119   -4.6987   30.2748 H         1 ADP305      0.0000 
     29 H          -9.5937   -4.9627   31.7262 H         1 ADP305      0.0000 
     30 H          -7.1104   -5.1795   32.0530 H         1 ADP305      0.0000 
     31 H          -8.7734   -3.2737   33.5828 H         1 ADP305      0.0000 
     32 H          -7.0015   -2.4066   34.7169 H         1 ADP305      0.0000 
     33 H          -5.1635   -2.4816   32.7371 H         1 ADP305      0.0000 
     34 H          -8.2205   -0.9834   31.3353 H         1 ADP305      0.0000 
     35 H          -6.7396    4.4318   34.0508 H         1 ADP305      0.0000 
     36 H          -7.8285    3.6049   32.8863 H         1 ADP305      0.0000 
     37 H          -4.0520    1.2193   35.7129 H         1 ADP305      0.0000 
     38 H          -8.9536   -4.9623   34.8411 H         1 ADP305      0.0000 
     39 H          -6.0391   -4.8482   34.6507 H         1 ADP305      0.0000 
@<TRIPOS>BOND
     1    2    1 ar   
     2    3    1 ar   
     3    4    1 ar   
     4    8    1 1    
     5    6    5 ar   
     6    7    5 ar   
     7    8    5 1    
     8    9    5 1    
     9   10    9 1    
    10   11   10 1    
    11   28   10 1    
    12   29   10 1    
    13   12   11 1    
    14   13   11 1    
    15   30   11 1    
    16   17   12 1    
    17   14   13 1    
    18   15   13 1    
    19   31   13 1    
    20   38   14 1    
    21   16   15 1    
    22   17   15 1    
    23   32   15 1    
    24   39   16 1    
    25   18   17 1    
    26   33   17 1    
    27   19   18 1    
    28   27   18 1    
    29   20   19 2    
    30   34   19 1    
    31   21   20 1    
    32   22   21 ar   
    33   27   21 ar   
    34   23   22 1    
    35   24   22 ar   
    36   35   23 1    
    37   36   23 1    
    38   25   24 ar   
    39   26   25 ar   
    40   37   25 1    
    41   27   26 ar   
@<TRIPOS>SUBSTRUCTURE
     1 ADP305      1 GROUP   
@<TRIPOS>SET

