#    Name: 4a99_MIY_6_INTS_M
#    Modification time : Tue Mar 25 05:17:52 2014

@<TRIPOS>MOLECULE
4a99_MIY_6_INTS_M
   44     0     6     0     0
SMALL
NO_CHARGES


@<TRIPOS>ATOM
      1 CA        -15.1945   -2.0175   32.3280 C.3       2 GLC5        0.0000 
      2 CA        -15.4670   -1.3540   34.1810 C.3       6 GLL5        0.0000 
      3 CA        -14.9220   -2.6810   30.4750 C.3       4 GLP5        0.0000 
      4 CA        -13.9840   -2.1880   33.5345 C.3       2 GLC5        0.0000 
      5 CA        -12.5010   -3.0220   32.8880 C.3       4 GLP5        0.0000 
      6 CA        -15.6885    1.7915   33.9060 C.3       2 GLC5        0.0000 
      7 CA        -17.1430    0.3800   34.8580 C.3       6 GLL5        0.0000 
      8 CA        -14.2340    3.2030   32.9540 C.3       4 GLP5        0.0000 
      9 O         -17.1960    0.7725   39.0665 O.2       1 ALC1        0.0000 
     10 O         -16.6570    0.4670   37.8390 O.2       5 ALL1        0.0000 
     11 O         -17.7350    1.0780   40.2940 O.2       3 ALP1        0.0000 
     12 O         -18.1740    0.6760   38.5670 O.2       1 ALC1        0.0000 
     13 O         -19.6910    0.8850   39.2950 O.2       3 ALP1        0.0000 
     14 CA        -11.9640   -0.5630   43.2975 C.3       2 GLC5        0.0000 
     15 CA        -10.8780   -1.5460   41.6600 C.3       6 GLL5        0.0000 
     16 CA        -13.0500    0.4200   44.9350 C.3       4 GLP5        0.0000 
     17 CA        -12.2540   -7.5945   40.6200 C.3       2 GLC5        0.0000 
     18 CA        -11.1410   -6.0730   39.9640 C.3       6 GLL5        0.0000 
     19 CA        -13.3670   -9.1160   41.2760 C.3       4 GLP5        0.0000 
     20 CA        -10.6495   -6.9835   41.1485 C.3       2 GLC5        0.0000 
     21 CA        -10.1580   -7.8940   42.3330 C.3       4 GLP5        0.0000 
     22 CA        -12.1910   -5.5110   41.5005 C.3       2 GLC5        0.0000 
     23 CA        -13.2410   -4.9490   43.0370 C.3       4 GLP5        0.0000 
     24 CA         -7.5430   -4.0910   39.7465 C.3       2 GLC5        0.0000 
     25 CA         -9.1180   -5.2410   38.8900 C.3       6 GLL5        0.0000 
     26 CA         -5.9680   -2.9410   40.6030 C.3       4 GLP5        0.0000 
     27 CA        -10.1155   -4.4330   37.0560 C.3       2 GLC5        0.0000 
     28 CA        -11.1130   -3.6250   35.2220 C.3       4 GLP5        0.0000 
     29 CA         -9.6380   -6.5675   40.6115 C.3       2 GLC5        0.0000 
     30 CA        -12.1645   -3.2643   36.9420 C.3       2 GLC5        0.0000 
     31 CA        -13.6210   -2.3200   38.3900 C.3       6 GLL5        0.0000 
     32 CA         -9.9890   -0.6105   40.4022 C.3       2 GLC5        0.0000 
     33 CA        -11.8820   -1.9120   40.7470 C.3       6 GLL5        0.0000 
     34 CA         -8.5980    0.5080   39.6010 C.3       4 GLP5        0.0000 
     35 CA        -13.5228   -3.0202   41.3775 C.3       2 GLC5        0.0000 
     36 CA        -15.2300   -3.5610   42.4050 C.3       4 GLP5        0.0000 
     37 CA        -14.2706   -3.1115   40.6709 C.3       2 GLC5        0.0000 
     38 CA        -12.8110   -3.4870   38.9340 C.3       6 GLL5        0.0000 
     39 CA         -7.8190   -2.9152   40.9933 C.3       2 GLC5        0.0000 
     40 CA         -9.6040   -3.4590   40.9820 C.3       6 GLL5        0.0000 
     41 CA         -9.1340   -1.1907   40.4922 C.3       2 GLC5        0.0000 
     42 CA         -9.3135   -3.5833   43.0493 C.3       2 GLC5        0.0000 
     43 CA         -9.7360   -2.3200   41.7850 C.3       6 GLL5        0.0000 
     44 CA         -8.9570   -4.2770   44.7150 C.3       4 GLP5        0.0000 
@<TRIPOS>BOND
@<TRIPOS>SUBSTRUCTURE
     1 ALC1        9 GROUP        1 X    ALC  0     ROOT ALC X 1
     2 GLC5        1 GROUP        1 X    GLC  0     **** GLC X 6
     3 ALP1       11 GROUP        1 Y    ALP  0     ROOT ALP Y 8
     4 GLP5        3 GROUP        1 Y    GLP  0     **** GLP Y 13
     5 ALL1       10 GROUP        1 Z    ALL  0     ROOT ALL Z 15
     6 GLL5        2 GROUP        1 Z    GLL  0     **** GLL Z 20
@<TRIPOS>SET

