#    Name: 4a99_MIY_6_ligand
#    Modification time : Tue Mar 25 05:17:52 2014

@<TRIPOS>MOLECULE
4a99_MIY_6_ligand
   59    62     1     0     0
SMALL
NO_CHARGES


@<TRIPOS>ATOM
      1 O8        -20.7330   -2.1430   37.7690 O.2       1 MIY392      0.0000 
      2 C21       -19.7360   -2.2220   38.5030 C.2       1 MIY392      0.0000 
      3 N2        -19.9620   -2.5600   39.7990 N.am      1 MIY392      0.0000 
      4 C2        -18.3840   -1.9390   37.9320 C.2       1 MIY392      0.0000 
      5 C1        -17.2910   -1.5890   38.8490 C.2       1 MIY392      0.0000 
      6 O1        -17.3230   -1.9080   40.0530 O.2       1 MIY392      0.0000 
      7 C3        -18.1150   -1.9090   36.5940 C.2       1 MIY392      0.0000 
      8 O2        -19.1470   -1.7180   35.7540 O.co2     1 MIY392      0.0000 
      9 C4        -16.6800   -1.9900   35.9940 C.3       1 MIY392      0.0000 
     10 N1        -16.8050   -1.1120   34.7800 N.4       1 MIY392      0.0000 
     11 C20       -15.4670   -1.3540   34.1810 C.3       1 MIY392      0.0000 
     12 C19       -17.1430    0.3800   34.8580 C.3       1 MIY392      0.0000 
     13 C5        -15.5650   -1.6380   37.0380 C.3       1 MIY392      0.0000 
     14 C18       -16.1200   -0.8170   38.2440 C.3       1 MIY392      0.0000 
     15 O7        -16.6570    0.4670   37.8390 O.3       1 MIY392      0.0000 
     16 C17       -15.1080   -0.6600   39.3920 C.2       1 MIY392      0.0000 
     17 O6        -15.3310    0.1700   40.4040 O.co2     1 MIY392      0.0000 
     18 C16       -14.0020   -1.3540   39.4890 C.2       1 MIY392      0.0000 
     19 C7        -13.6210   -2.3200   38.3900 C.3       1 MIY392      0.0000 
     20 C6        -14.9340   -2.8160   37.7530 C.3       1 MIY392      0.0000 
     21 C15       -13.1340   -1.0910   40.6140 C.2       1 MIY392      0.0000 
     22 O5        -13.4460   -0.2510   41.5330 O.2       1 MIY392      0.0000 
     23 C14       -11.8820   -1.9120   40.7470 C.ar      1 MIY392      0.0000 
     24 C9        -11.7490   -3.0470   39.9530 C.ar      1 MIY392      0.0000 
     25 C8        -12.8110   -3.4870   38.9340 C.3       1 MIY392      0.0000 
     26 C13       -10.8780   -1.5460   41.6600 C.ar      1 MIY392      0.0000 
     27 O4        -10.9920   -0.4470   42.4090 O.3       1 MIY392      0.0000 
     28 C12        -9.7360   -2.3200   41.7850 C.ar      1 MIY392      0.0000 
     29 C11        -9.6040   -3.4590   40.9820 C.ar      1 MIY392      0.0000 
     30 C10       -10.6090   -3.8180   40.0790 C.ar      1 MIY392      0.0000 
     31 N7        -10.5140   -4.9500   39.2680 N.3       1 MIY392      0.0000 
     32 CN7       -11.1410   -6.0730   39.9640 C.3       1 MIY392      0.0000 
     33 C71        -9.1180   -5.2410   38.8900 C.3       1 MIY392      0.0000 
     34 H         -20.9201   -2.6645   40.0658 H         1 MIY392      0.0000 
     35 H         -19.1504   -2.6745   40.3718 H         1 MIY392      0.0000 
     36 H         -16.5593   -3.0208   35.6628 H         1 MIY392      0.0000 
     37 H         -17.5168   -1.6191   34.0896 H         1 MIY392      0.0000 
     38 H         -14.7967   -1.0478   36.5892 H         1 MIY392      0.0000 
     39 H         -13.0610   -1.8007   37.6410 H         1 MIY392      0.0000 
     40 H         -14.7094   -3.5970   37.0501 H         1 MIY392      0.0000 
     41 H         -15.5879   -3.1702   38.5286 H         1 MIY392      0.0000 
     42 H         -12.3118   -4.0012   38.1040 H         1 MIY392      0.0000 
     43 H         -13.4859   -4.2047   39.4156 H         1 MIY392      0.0000 
     44 H          -9.0025   -2.0708   42.4466 H         1 MIY392      0.0000 
     45 H          -8.7553   -4.0394   41.0580 H         1 MIY392      0.0000 
     46 H         -14.7378   -0.9281   34.7166 H         1 MIY392      0.0000 
     47 H         -15.2568   -2.3300   34.1236 H         1 MIY392      0.0000 
     48 H         -15.4031   -0.9854   33.2536 H         1 MIY392      0.0000 
     49 H         -16.4629    0.8877   35.3869 H         1 MIY392      0.0000 
     50 H         -17.1822    0.7998   33.9512 H         1 MIY392      0.0000 
     51 H         -18.0297    0.5377   35.2926 H         1 MIY392      0.0000 
     52 H         -11.1008   -6.9137   39.4240 H         1 MIY392      0.0000 
     53 H         -10.6943   -6.2644   40.8380 H         1 MIY392      0.0000 
     54 H         -12.1055   -5.8965   40.1603 H         1 MIY392      0.0000 
     55 H          -8.7040   -4.4830   38.3860 H         1 MIY392      0.0000 
     56 H          -8.5436   -5.4088   39.6912 H         1 MIY392      0.0000 
     57 H          -9.0522   -6.0510   38.3073 H         1 MIY392      0.0000 
     58 H         -17.0883    0.8380   38.6614 H         1 MIY392      0.0000 
     59 H         -11.9299   -0.1317   42.2646 H         1 MIY392      0.0000 
@<TRIPOS>BOND
     1    2    1 2    
     2    3    2 am   
     3    4    2 1    
     4   34    3 1    
     5   35    3 1    
     6    5    4 1    
     7    7    4 2    
     8    6    5 2    
     9   14    5 1    
    10    8    7 ar   
    11    9    7 1    
    12   10    9 1    
    13   13    9 1    
    14   36    9 1    
    15   11   10 1    
    16   12   10 1    
    17   37   10 1    
    18   46   11 1    
    19   47   11 1    
    20   48   11 1    
    21   49   12 1    
    22   50   12 1    
    23   51   12 1    
    24   14   13 1    
    25   20   13 1    
    26   38   13 1    
    27   15   14 1    
    28   16   14 1    
    29   58   15 1    
    30   17   16 ar   
    31   18   16 2    
    32   19   18 1    
    33   21   18 1    
    34   20   19 1    
    35   25   19 1    
    36   39   19 1    
    37   40   20 1    
    38   41   20 1    
    39   22   21 2    
    40   23   21 1    
    41   24   23 ar   
    42   26   23 ar   
    43   25   24 1    
    44   30   24 ar   
    45   42   25 1    
    46   43   25 1    
    47   27   26 1    
    48   28   26 ar   
    49   59   27 1    
    50   29   28 ar   
    51   44   28 1    
    52   30   29 ar   
    53   45   29 1    
    54   31   30 1    
    55   32   31 1    
    56   33   31 1    
    57   52   32 1    
    58   53   32 1    
    59   54   32 1    
    60   55   33 1    
    61   56   33 1    
    62   57   33 1    
@<TRIPOS>SUBSTRUCTURE
     1 MIY392      1 GROUP   
@<TRIPOS>SET

