#    Name: 3liq_E14_1_INTS_M
#    Modification time : Mon Mar 24 21:42:46 2014

@<TRIPOS>MOLECULE
3liq_E14_1_INTS_M
   98     0    12     0     0
SMALL
NO_CHARGES


@<TRIPOS>ATOM
      1 OD1        26.1540   28.0340   26.0820 O.co2     3 ASC3        0.0000 
      2 OD1        25.4900   28.1870   27.3270 O.co2    11 ASL3        0.0000 
      3 OD1        26.8180   27.8810   24.8370 O.co2     7 ASP3        0.0000 
      4 O          26.1540   28.0340   26.0820 O.2       1 ALC1        0.0000 
      5 O          25.4900   28.1870   27.3270 O.2       9 ALL1        0.0000 
      6 O          26.8180   27.8810   24.8370 O.2       5 ALP1        0.0000 
      7 N          23.5440   28.5275   23.8525 N.am      2 SEC2        0.0000 
      8 N          23.6470   29.2060   25.2490 N.am     10 SEL2        0.0000 
      9 N          23.4410   27.8490   22.4560 N.am      6 SEP2        0.0000 
     10 O          22.4660   30.2910   28.3145 O.2       1 ALC1        0.0000 
     11 O          22.2110   29.8850   26.9340 O.2       9 ALL1        0.0000 
     12 O          22.7210   30.6970   29.6950 O.2       5 ALP1        0.0000 
     13 CA         21.2875   29.6180   23.9510 C.3       4 GLC5        0.0000 
     14 CA         21.0890   30.0070   26.0110 C.3      12 GLL5        0.0000 
     15 CA         21.4860   29.2290   21.8910 C.3       8 GLP5        0.0000 
     16 CA         20.4135   25.8360   26.5690 C.3       4 GLC5        0.0000 
     17 CA         20.6920   27.5510   25.6410 C.3      12 GLL5        0.0000 
     18 CA         20.1350   24.1210   27.4970 C.3       8 GLP5        0.0000 
     19 CA         18.5585   29.7680   28.5550 C.3       4 GLC5        0.0000 
     20 CA         19.6400   28.6980   27.6650 C.3      12 GLL5        0.0000 
     21 CA         17.4770   30.8380   29.4450 C.3       8 GLP5        0.0000 
     22 CA         20.3480   27.9385   29.0460 C.3       4 GLC5        0.0000 
     23 CA         21.0560   27.1790   30.4270 C.3       8 GLP5        0.0000 
     24 CA         17.7390   27.2975   25.4425 C.3       4 GLC5        0.0000 
     25 CA         18.7820   29.1740   25.3320 C.3      12 GLL5        0.0000 
     26 CA         16.6960   25.4210   25.5530 C.3       8 GLP5        0.0000 
     27 CA         16.7180   29.0925   24.8140 C.3       4 GLC5        0.0000 
     28 CA         14.6540   29.0110   24.2960 C.3       8 GLP5        0.0000 
     29 O          21.7475   31.8705   23.7270 O.2       1 ALC1        0.0000 
     30 O          20.8040   32.1780   24.8330 O.2       9 ALL1        0.0000 
     31 O          22.6910   31.5630   22.6210 O.2       5 ALP1        0.0000 
     32 N          19.5565   35.8495   22.4775 N.am      2 SEC2        0.0000 
     33 N          18.4110   35.5370   23.2190 N.am     10 SEL2        0.0000 
     34 N          20.7020   36.1620   21.7360 N.am      6 SEP2        0.0000 
     35 CA         20.8525   33.0200   22.0020 C.3       4 GLC5        0.0000 
     36 CA         19.2810   33.3680   23.5130 C.3      12 GLL5        0.0000 
     37 CA         22.4240   32.6720   20.4910 C.3       8 GLP5        0.0000 
     38 CA         23.1745   34.9890   23.2475 C.3       4 GLC5        0.0000 
     39 CA         21.4320   34.5080   24.4900 C.3      12 GLL5        0.0000 
     40 CA         24.9170   35.4700   22.0050 C.3       8 GLP5        0.0000 
     41 N          20.2690   34.8095   21.9915 N.am      2 SEC2        0.0000 
     42 N          19.8360   33.4570   22.2470 N.am     10 SEL2        0.0000 
     43 O          19.3570   32.9635   21.1130 O.2       1 ALC1        0.0000 
     44 O          19.8360   33.4570   22.2470 O.2       9 ALL1        0.0000 
     45 O          18.8780   32.4700   19.9790 O.2       5 ALP1        0.0000 
     46 O          18.7530   32.4920   21.9030 O.2       1 ALC1        0.0000 
     47 O          17.6700   31.5270   21.5590 O.2       5 ALP1        0.0000 
     48 CA         20.4475   36.4705   28.0285 C.3       4 GLC5        0.0000 
     49 CA         21.8170   35.8570   26.7300 C.3      12 GLL5        0.0000 
     50 CA         19.0780   37.0840   29.3270 C.3       8 GLP5        0.0000 
     51 CA         22.7665   37.4220   26.4740 C.3       4 GLC5        0.0000 
     52 CA         22.5010   36.0050   28.0980 C.3      12 GLL5        0.0000 
     53 CA         23.0320   38.8390   24.8500 C.3       8 GLP5        0.0000 
     54 CA         22.3350   33.1970   29.0255 C.3       4 GLC5        0.0000 
     55 CA         23.7820   33.6740   27.6980 C.3      12 GLL5        0.0000 
     56 CA         20.8880   32.7200   30.3530 C.3       8 GLP5        0.0000 
     57 CA         14.5805   35.2265   27.9275 C.3       4 GLC5        0.0000 
     58 CA         13.7430   35.1940   25.9910 C.3      12 GLL5        0.0000 
     59 CA         15.4180   35.2590   29.8640 C.3       8 GLP5        0.0000 
     60 CA         13.8025   33.0940   22.3065 C.3       4 GLC5        0.0000 
     61 CA         13.8840   33.8920   23.8360 C.3      12 GLL5        0.0000 
     62 CA         13.7210   32.2960   20.7770 C.3       8 GLP5        0.0000 
     63 CA         14.3025   32.0160   27.3435 C.3       4 GLC5        0.0000 
     64 CA         15.3460   32.9660   25.9360 C.3      12 GLL5        0.0000 
     65 CA         13.2590   31.0660   28.7510 C.3       8 GLP5        0.0000 
     66 CA         17.1075   40.1840   28.3620 C.3       4 GLC5        0.0000 
     67 CA         18.7340   39.8990   27.0880 C.3      12 GLL5        0.0000 
     68 CA         15.4810   40.4690   29.6360 C.3       8 GLP5        0.0000 
     69 CA         19.5735   40.3750   28.7015 C.3       4 GLC5        0.0000 
     70 CA         20.4130   40.8510   30.3150 C.3       8 GLP5        0.0000 
     71 CA         18.5620   38.7970   23.1320 C.3       4 GLC5        0.0000 
     72 CA         18.8390   38.5460   25.0510 C.3      12 GLL5        0.0000 
     73 CA         18.2850   39.0480   21.2130 C.3       8 GLP5        0.0000 
     74 CA         20.9355   38.6925   24.9505 C.3       4 GLC5        0.0000 
     75 CA         16.0620   39.5745   28.0060 C.3       4 GLC5        0.0000 
     76 CA         16.6430   38.6800   26.3760 C.3      12 GLL5        0.0000 
     77 CA         28.1662   32.3533   24.4860 C.3       4 GLC5        0.0000 
     78 CA         26.7220   32.4520   25.5610 C.3      12 GLL5        0.0000 
     79 CA         29.2380   31.9470   22.8050 C.3       8 GLP5        0.0000 
     80 CA         26.6867   32.2415   29.9920 C.3       4 GLC5        0.0000 
     81 CA         27.2770   32.4650   28.1920 C.3      12 GLL5        0.0000 
     82 CA         26.5580   32.6290   31.6820 C.3       8 GLP5        0.0000 
     83 CA         19.8174   28.6844   23.7126 C.3       4 GLC5        0.0000 
     84 CA         20.0580   28.6800   21.8040 C.3       8 GLP5        0.0000 
     85 CA         22.4992   37.0435   25.5718 C.3       4 GLC5        0.0000 
     86 CA         22.1160   34.6390   25.8570 C.3      12 GLL5        0.0000 
     87 CA         21.9408   34.0890   29.3453 C.3       4 GLC5        0.0000 
     88 CA         21.4163   35.9245   29.3948 C.3       4 GLC5        0.0000 
     89 CA         23.4860   34.9110   28.5770 C.3      12 GLL5        0.0000 
     90 CA         19.8390   36.3910   30.4520 C.3       8 GLP5        0.0000 
     91 CA         15.3350   30.9367   24.8672 C.3       4 GLC5        0.0000 
     92 CA         16.6860   32.7590   24.9410 C.3      12 GLL5        0.0000 
     93 CA         17.7112   41.6748   26.4620 C.3       4 GLC5        0.0000 
     94 CA         17.1050   43.6730   26.4480 C.3       8 GLP5        0.0000 
     95 CA         19.7441   40.7941   25.5312 C.3       4 GLC5        0.0000 
     96 CA         17.9010   39.4540   25.8640 C.3      12 GLL5        0.0000 
     97 CA         20.9100   42.4770   25.2990 C.3       8 GLP5        0.0000 
     98 CA         18.2791   38.1311   27.8765 C.3       4 GLC5        0.0000 
@<TRIPOS>BOND
@<TRIPOS>SUBSTRUCTURE
     1 ALC1        4 GROUP        1 X    ALC  0     ROOT ALC X 1
     2 SEC2        7 GROUP        1 X    SEC  0     **** SEC X 2
     3 ASC3        1 GROUP        1 X    ASC  0     **** ASC X 3
     4 GLC5       13 GROUP        1 X    GLC  0     **** GLC X 6
     5 ALP1        6 GROUP        1 Y    ALP  0     ROOT ALP Y 8
     6 SEP2        9 GROUP        1 Y    SEP  0     **** SEP Y 9
     7 ASP3        3 GROUP        1 Y    ASP  0     **** ASP Y 10
     8 GLP5       15 GROUP        1 Y    GLP  0     **** GLP Y 13
     9 ALL1        5 GROUP        1 Z    ALL  0     ROOT ALL Z 15
    10 SEL2        8 GROUP        1 Z    SEL  0     **** SEL Z 16
    11 ASL3        2 GROUP        1 Z    ASL  0     **** ASL Z 17
    12 GLL5       14 GROUP        1 Z    GLL  0     **** GLL Z 20
@<TRIPOS>SET

