#    Name: 3liq_E14_1_ligand
#    Modification time : Mon Mar 24 21:42:46 2014

@<TRIPOS>MOLECULE
3liq_E14_1_ligand
   95    97     1     0     0
SMALL
NO_CHARGES


@<TRIPOS>ATOM
      1 CBF        23.5110   29.4760   26.4110 C.2       1 E14117      0.0000 
      2 NAJ        25.4900   28.1870   27.3270 N.4       1 E14117      0.0000 
      3 OAK        23.6470   29.2060   25.2490 O.2       1 E14117      0.0000 
      4 CBM        24.6770   29.4130   27.4360 C.3       1 E14117      0.0000 
      5 CBK        25.6080   30.6270   27.2070 C.ar      1 E14117      0.0000 
      6 CAQ        27.4670   33.0670   26.7730 C.ar      1 E14117      0.0000 
      7 CAT        27.2770   32.4650   28.1920 C.ar      1 E14117      0.0000 
      8 CAU        26.7220   32.4520   25.5610 C.ar      1 E14117      0.0000 
      9 CAX        26.3540   31.2430   28.4120 C.ar      1 E14117      0.0000 
     10 CAY        25.7980   31.2390   25.7860 C.ar      1 E14117      0.0000 
     11 N          22.2110   29.8850   26.9340 N.am      1 E14117      0.0000 
     12 CA         21.0890   30.0070   26.0110 C.3       1 E14117      0.0000 
     13 CB         20.0510   28.8560   26.1800 C.3       1 E14117      0.0000 
     14 CAG        20.6920   27.5510   25.6410 C.3       1 E14117      0.0000 
     15 CG1        19.6400   28.6980   27.6650 C.3       1 E14117      0.0000 
     16 CG2        18.7820   29.1740   25.3320 C.3       1 E14117      0.0000 
     17 C          20.5180   31.4260   26.0320 C.2       1 E14117      0.0000 
     18 O          19.9000   31.8750   26.9500 O.2       1 E14117      0.0000 
     19 CBI        18.2410   34.4640   23.6490 C.2       1 E14117      0.0000 
     20 NBC        20.8040   32.1780   24.8330 N.am      1 E14117      0.0000 
     21 OAN        18.4110   35.5370   23.2190 O.2       1 E14117      0.0000 
     22 CBN        19.2810   33.3680   23.5130 C.3       1 E14117      0.0000 
     23 CBJ        22.1160   34.6390   25.8570 C.ar      1 E14117      0.0000 
     24 CBA        21.4320   34.5080   24.4900 C.3       1 E14117      0.0000 
     25 CAP        23.4860   34.9110   28.5770 C.ar      1 E14117      0.0000 
     26 CBO        20.2830   33.5160   24.6830 C.3       1 E14117      0.0000 
     27 OAO        19.8360   33.4570   22.2470 O.3       1 E14117      0.0000 
     28 CAV        21.8170   35.8570   26.7300 C.ar      1 E14117      0.0000 
     29 CAW        23.0960   33.5610   26.3280 C.ar      1 E14117      0.0000 
     30 CAR        22.5010   36.0050   28.0980 C.ar      1 E14117      0.0000 
     31 CAS        23.7820   33.6740   27.6980 C.ar      1 E14117      0.0000 
     32 CBH        16.4720   36.3120   25.4870 C.2       1 E14117      0.0000 
     33 NBR        17.0180   34.1390   24.3330 N.am      1 E14117      0.0000 
     34 OAM        17.2660   36.0110   26.3260 O.2       1 E14117      0.0000 
     35 CBQ        15.8930   35.2190   24.5330 C.3       1 E14117      0.0000 
     36 CBU        14.6670   34.3790   25.0660 C.3       1 E14117      0.0000 
     37 CAZ        16.6860   32.7590   24.9410 C.3       1 E14117      0.0000 
     38 CAH        13.7430   35.1940   25.9910 C.3       1 E14117      0.0000 
     39 CAI        13.8840   33.8920   23.8360 C.3       1 E14117      0.0000 
     40 SBE        15.3460   32.9660   25.9360 S.3       1 E14117      0.0000 
     41 CAB        18.7340   39.8990   27.0880 C.3       1 E14117      0.0000 
     42 CBS        17.9010   39.4540   25.8640 C.3       1 E14117      0.0000 
     43 CAC        18.8390   38.5460   25.0510 C.3       1 E14117      0.0000 
     44 CBL        16.6430   38.6800   26.3760 C.3       1 E14117      0.0000 
     45 NBB        16.0560   37.7200   25.4100 N.am      1 E14117      0.0000 
     46 H          24.2646   29.5107   28.4274 H         1 E14117      0.0000 
     47 H          28.0567   33.8337   26.6457 H         1 E14117      0.0000 
     48 H          27.7471   32.8645   28.9532 H         1 E14117      0.0000 
     49 H          26.8381   32.8279   24.6748 H         1 E14117      0.0000 
     50 H          26.2447   30.8662   29.3016 H         1 E14117      0.0000 
     51 H          25.3180   30.8400   25.0266 H         1 E14117      0.0000 
     52 H          22.0933   30.0773   27.9050 H         1 E14117      0.0000 
     53 H          21.5156   29.8678   24.9624 H         1 E14117      0.0000 
     54 H          21.3668   31.7692   24.1016 H         1 E14117      0.0000 
     55 H          18.7487   32.4231   23.6666 H         1 E14117      0.0000 
     56 H          22.1275   34.1195   23.7781 H         1 E14117      0.0000 
     57 H          21.0422   35.4574   24.1930 H         1 E14117      0.0000 
     58 H          23.9274   35.0045   29.4492 H         1 E14117      0.0000 
     59 H          19.7165   33.7718   25.5673 H         1 E14117      0.0000 
     60 H          21.1906   36.5447   26.4212 H         1 E14117      0.0000 
     61 H          23.2897   32.7879   25.7495 H         1 E14117      0.0000 
     62 H          22.3200   36.7772   28.6615 H         1 E14117      0.0000 
     63 H          24.3885   32.9864   28.0087 H         1 E14117      0.0000 
     64 H          15.6695   35.6137   23.5848 H         1 E14117      0.0000 
     65 H          17.4635   32.4137   25.5671 H         1 E14117      0.0000 
     66 H          16.3933   32.0679   24.1978 H         1 E14117      0.0000 
     67 H          17.6239   40.2898   25.3095 H         1 E14117      0.0000 
     68 H          15.8895   39.4380   26.6733 H         1 E14117      0.0000 
     69 H          16.9363   38.1576   27.3097 H         1 E14117      0.0000 
     70 H          15.4034   38.0242   24.7351 H         1 E14117      0.0000 
     71 H          24.9429   27.3638   27.4786 H         1 E14117      0.0000 
     72 H          25.9089   28.0982   26.4233 H         1 E14117      0.0000 
     73 H          26.2324   28.1729   27.9968 H         1 E14117      0.0000 
     74 H          20.9383   27.6297   24.6750 H         1 E14117      0.0000 
     75 H          21.5269   27.3145   26.1381 H         1 E14117      0.0000 
     76 H          20.0714   26.7711   25.7226 H         1 E14117      0.0000 
     77 H          20.4251   28.4866   28.2472 H         1 E14117      0.0000 
     78 H          19.2238   29.5325   28.0260 H         1 E14117      0.0000 
     79 H          18.9755   27.9612   27.7901 H         1 E14117      0.0000 
     80 H          18.9982   29.2653   24.3599 H         1 E14117      0.0000 
     81 H          18.0917   28.4549   25.4125 H         1 E14117      0.0000 
     82 H          18.3492   30.0291   25.6175 H         1 E14117      0.0000 
     83 H          14.2276   35.5279   26.7995 H         1 E14117      0.0000 
     84 H          13.3633   35.9936   25.5258 H         1 E14117      0.0000 
     85 H          12.9698   34.6498   26.3167 H         1 E14117      0.0000 
     86 H          14.4483   33.3229   23.2379 H         1 E14117      0.0000 
     87 H          13.0879   33.3452   24.0951 H         1 E14117      0.0000 
     88 H          13.5483   34.6549   23.2835 H         1 E14117      0.0000 
     89 H          19.0355   39.1185   27.6357 H         1 E14117      0.0000 
     90 H          19.5551   40.4008   26.8159 H         1 E14117      0.0000 
     91 H          18.2117   40.4984   27.6946 H         1 E14117      0.0000 
     92 H          19.6640   39.0302   24.7596 H         1 E14117      0.0000 
     93 H          19.1369   37.7512   25.5798 H         1 E14117      0.0000 
     94 H          18.3956   38.1988   24.2247 H         1 E14117      0.0000 
     95 H          19.2154   32.9419   21.6557 H         1 E14117      0.0000 
@<TRIPOS>BOND
     1    3    1 2    
     2    4    1 1    
     3   11    1 am   
     4    4    2 1    
     5   71    2 1    
     6   72    2 1    
     7   73    2 1    
     8    5    4 1    
     9   46    4 1    
    10    9    5 ar   
    11   10    5 ar   
    12    7    6 ar   
    13    8    6 ar   
    14   47    6 1    
    15    9    7 ar   
    16   48    7 1    
    17   10    8 ar   
    18   49    8 1    
    19   50    9 1    
    20   51   10 1    
    21   12   11 1    
    22   52   11 1    
    23   13   12 1    
    24   17   12 1    
    25   53   12 1    
    26   14   13 1    
    27   15   13 1    
    28   16   13 1    
    29   74   14 1    
    30   75   14 1    
    31   76   14 1    
    32   77   15 1    
    33   78   15 1    
    34   79   15 1    
    35   80   16 1    
    36   81   16 1    
    37   82   16 1    
    38   18   17 2    
    39   20   17 am   
    40   21   19 2    
    41   22   19 1    
    42   33   19 am   
    43   26   20 1    
    44   54   20 1    
    45   26   22 1    
    46   27   22 1    
    47   55   22 1    
    48   24   23 1    
    49   28   23 ar   
    50   29   23 ar   
    51   26   24 1    
    52   56   24 1    
    53   57   24 1    
    54   30   25 ar   
    55   31   25 ar   
    56   58   25 1    
    57   59   26 1    
    58   95   27 1    
    59   30   28 ar   
    60   60   28 1    
    61   31   29 ar   
    62   61   29 1    
    63   62   30 1    
    64   63   31 1    
    65   34   32 2    
    66   35   32 1    
    67   45   32 am   
    68   35   33 1    
    69   37   33 1    
    70   36   35 1    
    71   64   35 1    
    72   38   36 1    
    73   39   36 1    
    74   40   36 1    
    75   40   37 1    
    76   65   37 1    
    77   66   37 1    
    78   83   38 1    
    79   84   38 1    
    80   85   38 1    
    81   86   39 1    
    82   87   39 1    
    83   88   39 1    
    84   42   41 1    
    85   89   41 1    
    86   90   41 1    
    87   91   41 1    
    88   43   42 1    
    89   44   42 1    
    90   67   42 1    
    91   92   43 1    
    92   93   43 1    
    93   94   43 1    
    94   45   44 1    
    95   68   44 1    
    96   69   44 1    
    97   70   45 1    
@<TRIPOS>SUBSTRUCTURE
     1 E14117      1 GROUP   
@<TRIPOS>SET

