#    Name: 2AZN_2_CAVITY_N1_6.mol2
#    Modification time : Tue Mar 11 02:47:14 2014

@<TRIPOS>MOLECULE
2AZN_2_CAVITY_N1_6.mol2
   88     0     5     0     0
SMALL
NO_CHARGES


@<TRIPOS>ATOM
      1 CA          9.8426  -41.9655   -6.2330 C.3       4 GLY6        0.0000 
      2 CA         10.3669  -41.2947   -7.4680 C.3       4 GLY6        0.0000 
      3 CA          8.0171  -42.9024   -5.6950 C.3       4 GLY6        0.0000 
      4 CA          8.5413  -42.2316   -6.9300 C.3       4 GLY6        0.0000 
      5 OG          9.0656  -41.5608   -8.1650 O.2       1 SER1        0.0000 
      6 N           6.7157  -43.1685   -6.3919 N.2       2 ALA2        0.0000 
      7 NZ          7.2400  -42.4977   -7.6269 N.2       3 LYS4        0.0000 
      8 CA          7.7261  -38.6912   -3.5312 C.3       4 GLY6        0.0000 
      9 N           8.2504  -38.0205   -4.7662 N.2       2 ALA2        0.0000 
     10 O           6.4248  -38.9573   -4.2282 O.2       2 ALA2        0.0000 
     11 N           6.9491  -38.2866   -5.4632 N.2       2 ALA2        0.0000 
     12 N           7.4733  -37.6158   -6.6982 N.2       2 ALA2        0.0000 
     13 CA          7.9976  -36.9450   -7.9332 C.3       4 GLY6        0.0000 
     14 CA          8.5218  -36.2742   -9.1682 C.3       4 GLY6        0.0000 
     15 CA          4.5992  -39.8942   -3.6901 C.3       4 GLY6        0.0000 
     16 DU          5.1235  -39.2234   -4.9251 H         5 CUB7        0.0000 
     17 DU          5.6477  -38.5527   -6.1601 H         5 CUB7        0.0000 
     18 NZ          6.1720  -37.8819   -7.3951 N.2       3 LYS4        0.0000 
     19 NZ          6.6962  -37.2111   -8.6301 N.2       3 LYS4        0.0000 
     20 CA          7.2205  -36.5403   -9.8651 C.3       4 GLY6        0.0000 
     21 OG          3.2979  -40.1603   -4.3870 O.2       1 SER1        0.0000 
     22 DU          3.8221  -39.4896   -5.6220 H         5 CUB7        0.0000 
     23 DU          4.8706  -38.1480   -8.0920 H         5 CUB7        0.0000 
     24 DU          5.3949  -37.4772   -9.3270 H         5 CUB7        0.0000 
     25 CA          5.9191  -36.8064  -10.5620 C.3       4 GLY6        0.0000 
     26 O           1.4723  -41.0972   -3.8490 O.2       2 ALA2        0.0000 
     27 N           1.9966  -40.4264   -5.0840 N.2       2 ALA2        0.0000 
     28 DU          2.5208  -39.7557   -6.3190 H         5 CUB7        0.0000 
     29 DU          3.5693  -38.4141   -8.7890 H         5 CUB7        0.0000 
     30 CA          4.0936  -37.7433  -10.0240 C.3       4 GLY6        0.0000 
     31 O           5.8941  -37.6423   -3.7392 O.2       2 ALA2        0.0000 
     32 NZ          6.4183  -36.9716   -4.9742 N.2       3 LYS4        0.0000 
     33 OG          4.0685  -38.5792   -3.2012 O.2       1 SER1        0.0000 
     34 DU          4.5927  -37.9084   -4.4362 H         5 CUB7        0.0000 
     35 NZ          5.1170  -37.2377   -5.6712 N.2       3 LYS4        0.0000 
     36 NZ          5.6412  -36.5669   -6.9062 N.2       3 LYS4        0.0000 
     37 NZ          6.1655  -35.8961   -8.1412 N.2       3 LYS4        0.0000 
     38 OG          2.7671  -38.8453   -3.8981 O.2       1 SER1        0.0000 
     39 DU          3.2914  -38.1745   -5.1331 H         5 CUB7        0.0000 
     40 DU          3.8156  -37.5038   -6.3681 H         5 CUB7        0.0000 
     41 O           4.3399  -36.8330   -7.6031 O.2       2 ALA2        0.0000 
     42 O           4.8641  -36.1622   -8.8381 O.2       2 ALA2        0.0000 
     43 CA          1.4658  -39.1114   -4.5951 C.3       4 GLY6        0.0000 
     44 CA          1.9901  -38.4406   -5.8300 C.3       4 GLY6        0.0000 
     45 DU          2.5143  -37.7699   -7.0650 H         5 CUB7        0.0000 
     46 CA          8.7876  -41.3213   -4.5091 C.3       4 GLY6        0.0000 
     47 CA          9.3119  -40.6505   -5.7441 C.3       4 GLY6        0.0000 
     48 N           9.8361  -39.9797   -6.9791 N.2       2 ALA2        0.0000 
     49 N          10.3604  -39.3089   -8.2141 N.2       2 ALA2        0.0000 
     50 CA          7.4863  -41.5874   -5.2060 C.3       4 GLY6        0.0000 
     51 DU          8.0106  -40.9166   -6.4410 H         5 CUB7        0.0000 
     52 N           8.5348  -40.2458   -7.6760 N.2       2 ALA2        0.0000 
     53 CA          9.0591  -39.5750   -8.9110 C.3       4 GLY6        0.0000 
     54 N           5.6607  -42.5242   -4.6680 N.2       2 ALA2        0.0000 
     55 N           6.1850  -41.8535   -5.9030 N.2       2 ALA2        0.0000 
     56 NZ          6.7092  -41.1827   -7.1380 N.2       3 LYS4        0.0000 
     57 NZ          7.2335  -40.5119   -8.3730 N.2       3 LYS4        0.0000 
     58 N           4.3594  -42.7903   -5.3649 N.2       2 ALA2        0.0000 
     59 OG          4.8836  -42.1196   -6.5999 O.2       1 SER1        0.0000 
     60 NZ          5.4079  -41.4488   -7.8349 N.2       3 LYS4        0.0000 
     61 OG          4.1066  -41.7149   -8.5318 O.2       1 SER1        0.0000 
     62 CA          4.0620  -36.5934   -3.9472 C.3       4 GLY6        0.0000 
     63 NZ          4.5862  -35.9227   -5.1822 N.2       3 LYS4        0.0000 
     64 CA          2.7606  -36.8595   -4.6442 C.3       4 GLY6        0.0000 
     65 NZ          3.2849  -36.1888   -5.8792 N.2       3 LYS4        0.0000 
     66 O           3.8091  -35.5180   -7.1142 O.2       2 ALA2        0.0000 
     67 N           8.7811  -39.3355   -5.2552 N.2       2 ALA2        0.0000 
     68 N           6.9556  -40.2724   -4.7171 N.2       2 ALA2        0.0000 
     69 N           7.4798  -39.6016   -5.9521 N.2       2 ALA2        0.0000 
     70 N           8.0041  -38.9308   -7.1871 N.2       2 ALA2        0.0000 
     71 N           8.5283  -38.2600   -8.4221 N.2       2 ALA2        0.0000 
     72 CA          9.0526  -37.5892   -9.6571 C.3       4 GLY6        0.0000 
     73 N           5.1300  -41.2092   -4.1790 N.2       2 ALA2        0.0000 
     74 DU          5.6542  -40.5385   -5.4140 H         5 CUB7        0.0000 
     75 DU          6.1785  -39.8677   -6.6490 H         5 CUB7        0.0000 
     76 DU          6.7027  -39.1969   -7.8840 H         5 CUB7        0.0000 
     77 CA          7.2270  -38.5261   -9.1190 C.3       4 GLY6        0.0000 
     78 CA          7.7512  -37.8553  -10.3540 C.3       4 GLY6        0.0000 
     79 N           3.8286  -41.4753   -4.8760 N.2       2 ALA2        0.0000 
     80 DU          4.3529  -40.8046   -6.1110 H         5 CUB7        0.0000 
     81 DU          4.8771  -40.1338   -7.3460 H         5 CUB7        0.0000 
     82 NZ          5.4014  -39.4630   -8.5810 N.2       3 LYS4        0.0000 
     83 NZ          5.9256  -38.7922   -9.8160 N.2       3 LYS4        0.0000 
     84 CA          6.4499  -38.1214  -11.0510 C.3       4 GLY6        0.0000 
     85 N           3.0516  -41.0707   -6.8079 N.2       2 ALA2        0.0000 
     86 DU          3.5758  -40.3999   -8.0429 H         5 CUB7        0.0000 
     87 NZ          4.1001  -39.7291   -9.2779 N.2       3 LYS4        0.0000 
     88 CA          4.6243  -39.0583  -10.5129 C.3       4 GLY6        0.0000 
@<TRIPOS>BOND
@<TRIPOS>SUBSTRUCTURE
     1 SER1        5 GROUP   
     2 ALA2        6 GROUP   
     3 LYS4        7 GROUP   
     4 GLY6        1 GROUP   
     5 CUB7       16 GROUP   
@<TRIPOS>SET

