#    Name: 2azn_NAP_2_INTS_M
#    Modification time : Mon Mar 24 19:44:11 2014

@<TRIPOS>MOLECULE
2azn_NAP_2_INTS_M
  105     0    12     0     0
SMALL
NO_CHARGES


@<TRIPOS>ATOM
      1 N          13.1020  -41.0310  -12.0270 N.am      2 SEC2        0.0000 
      2 N          14.0700  -40.4950  -10.8280 N.am     10 SEL2        0.0000 
      3 N          12.1340  -41.5670  -13.2260 N.am      6 SEP2        0.0000 
      4 N          12.6200  -40.6215  -10.6890 N.am      2 SEC2        0.0000 
      5 N          11.1700  -40.7480  -10.5500 N.am      6 SEP2        0.0000 
      6 N          13.6525  -39.9930   -9.6945 N.am      2 SEC2        0.0000 
      7 N          13.2350  -39.4910   -8.5610 N.am      6 SEP2        0.0000 
      8 N          17.0055  -40.8875   -8.9205 N.am      2 SEC2        0.0000 
      9 N          15.9160  -41.6160   -9.5010 N.am     10 SEL2        0.0000 
     10 N          18.0950  -40.1590   -8.3400 N.am      6 SEP2        0.0000 
     11 N          15.3560  -41.3705  -13.3445 N.am      2 SEC2        0.0000 
     12 N          16.1930  -41.1960  -11.9780 N.am     10 SEL2        0.0000 
     13 N          14.5190  -41.5450  -14.7110 N.am      6 SEP2        0.0000 
     14 CA         15.6935  -42.3320  -13.1440 C.3       4 GLC5        0.0000 
     15 CA         17.4540  -41.8680  -12.0100 C.3      12 GLL5        0.0000 
     16 CA         13.9330  -42.7960  -14.2780 C.3       8 GLP5        0.0000 
     17 CA         18.0175  -42.4915  -10.6525 C.3       4 GLC5        0.0000 
     18 CA         18.5810  -43.1150   -9.2950 C.3       8 GLP5        0.0000 
     19 CA         17.5610  -41.1095  -14.8535 C.3       4 GLC5        0.0000 
     20 CA         18.3060  -41.4730  -13.2180 C.3      12 GLL5        0.0000 
     21 CA         16.8160  -40.7460  -16.4890 C.3       8 GLP5        0.0000 
     22 N          23.9085  -37.1560  -14.5740 N.am      2 SEC2        0.0000 
     23 N          22.6940  -37.8770  -13.7560 N.am     10 SEL2        0.0000 
     24 N          25.1230  -36.4350  -15.3920 N.am      6 SEP2        0.0000 
     25 CA         24.5500  -38.7035  -13.4600 C.3       4 GLC5        0.0000 
     26 CA         22.5690  -38.3000  -12.5020 C.3      12 GLL5        0.0000 
     27 CA         26.5310  -39.1070  -14.4180 C.3       8 GLP5        0.0000 
     28 CA         25.2330  -38.4095  -11.6500 C.3       4 GLC5        0.0000 
     29 CA         23.2650  -38.0620  -11.3190 C.3      12 GLL5        0.0000 
     30 CA         27.2010  -38.7570  -11.9810 C.3       8 GLP5        0.0000 
     31 CA         22.9985  -36.3425  -10.0915 C.3       4 GLC5        0.0000 
     32 CA         22.7320  -34.6230   -8.8640 C.3       8 GLP5        0.0000 
     33 O          24.9555  -36.1475  -12.1335 O.2       1 ALC1        0.0000 
     34 O          24.3150  -37.2510  -11.3020 O.2       9 ALL1        0.0000 
     35 O          25.5960  -35.0440  -12.9650 O.2       5 ALP1        0.0000 
     36 CA         20.9060  -41.2335  -10.0110 C.3       4 GLC5        0.0000 
     37 CA         21.8250  -39.4930  -10.1860 C.3      12 GLL5        0.0000 
     38 CA         19.9870  -42.9740   -9.8360 C.3       8 GLP5        0.0000 
     39 CA         20.1280  -39.1215   -9.2995 C.3       4 GLC5        0.0000 
     40 CA         18.4310  -38.7500   -8.4130 C.3       8 GLP5        0.0000 
     41 CA         22.3900  -38.7170   -8.3555 C.3       4 GLC5        0.0000 
     42 CA         22.9550  -37.9410   -6.5250 C.3       8 GLP5        0.0000 
     43 N          16.4865  -43.4065   -8.3495 N.am      2 SEC2        0.0000 
     44 N          15.8150  -44.1670   -9.3740 N.am     10 SEL2        0.0000 
     45 N          17.1580  -42.6460   -7.3250 N.am      6 SEP2        0.0000 
     46 N          17.0185  -44.3375   -9.3035 N.am      2 SEC2        0.0000 
     47 N          18.2220  -44.5080   -9.2330 N.am      6 SEP2        0.0000 
     48 NZ         13.5595  -46.8680  -11.6045 N.4       3 LYC4        0.0000 
     49 NZ         14.5410  -45.4310  -11.1710 N.4      11 LYL4        0.0000 
     50 NZ         12.5780  -48.3050  -12.0380 N.4       7 LYP4        0.0000 
     51 CA         11.2880  -45.7990  -11.4055 C.3       4 GLC5        0.0000 
     52 CA         12.0520  -44.5260   -9.9000 C.3      12 GLL5        0.0000 
     53 CA         10.5240  -47.0720  -12.9110 C.3       8 GLP5        0.0000 
     54 CA         11.4610  -45.8790   -7.4715 C.3       4 GLC5        0.0000 
     55 CA         10.9430  -44.3070   -8.8680 C.3      12 GLL5        0.0000 
     56 CA         11.9790  -47.4510   -6.0750 C.3       8 GLP5        0.0000 
     57 CA         10.0360  -45.8180  -11.1765 C.3       4 GLC5        0.0000 
     58 CA          9.5480  -44.5640   -9.4420 C.3      12 GLL5        0.0000 
     59 O           8.0455  -46.6120   -9.8360 O.2       1 ALC1        0.0000 
     60 O           9.1110  -45.8880   -9.1230 O.2       9 ALL1        0.0000 
     61 O           6.9800  -47.3360  -10.5490 O.2       5 ALP1        0.0000 
     62 CA         10.4455  -42.7810   -5.9700 C.3       4 GLC5        0.0000 
     63 CA          9.6310  -42.9260   -7.7050 C.3      12 GLL5        0.0000 
     64 CA         11.2600  -42.6360   -4.2350 C.3       8 GLP5        0.0000 
     65 CA         11.3805  -41.6105   -7.5405 C.3       4 GLC5        0.0000 
     66 CA         13.1300  -40.2950   -7.3760 C.3       8 GLP5        0.0000 
     67 N           6.8290  -40.0375   -2.3710 N.am      2 SEC2        0.0000 
     68 N           6.8800  -40.8870   -3.7540 N.am     10 SEL2        0.0000 
     69 N           6.7780  -39.1880   -0.9880 N.am      6 SEP2        0.0000 
     70 CA         11.2890  -38.3610   -7.3465 C.3       4 GLC5        0.0000 
     71 CA          9.2670  -39.1770   -7.5820 C.3      12 GLL5        0.0000 
     72 CA         13.3110  -37.5450   -7.1110 C.3       8 GLP5        0.0000 
     73 N          20.6635  -39.2855  -18.0430 N.am      2 SEC2        0.0000 
     74 N          20.5000  -40.5530  -17.5970 N.am     10 SEL2        0.0000 
     75 N          20.8270  -38.0180  -18.4890 N.am      6 SEP2        0.0000 
     76 NZ         22.9620  -42.6135  -17.7615 N.4       3 LYC4        0.0000 
     77 NZ         22.4100  -41.6260  -16.2280 N.4      11 LYL4        0.0000 
     78 NZ         23.5140  -43.6010  -19.2950 N.4       7 LYP4        0.0000 
     79 N          22.7820  -40.2155  -16.5910 N.am      2 SEC2        0.0000 
     80 N          22.4100  -41.6260  -16.2280 N.am     10 SEL2        0.0000 
     81 N          23.1540  -38.8050  -16.9540 N.am      6 SEP2        0.0000 
     82 NZ         22.2200  -43.3450  -18.5065 N.4       3 LYC4        0.0000 
     83 NZ         20.9260  -43.0890  -17.7180 N.4      11 LYL4        0.0000 
     84 N          22.2200  -43.3450  -18.5065 N.am      2 SEC2        0.0000 
     85 N          20.9260  -43.0890  -17.7180 N.am     10 SEL2        0.0000 
     86 N          23.5140  -43.6010  -19.2950 N.am      6 SEP2        0.0000 
     87 CA         19.4737  -42.4205  -11.5175 C.3       4 GLC5        0.0000 
     88 CA         19.6150  -42.2610  -13.1800 C.3      12 GLL5        0.0000 
     89 CA         18.4637  -40.7785  -15.3550 C.3       4 GLC5        0.0000 
     90 CA         20.3560  -41.5330  -14.3000 C.3      12 GLL5        0.0000 
     91 CA         21.0437  -37.1568  -13.2858 C.3       4 GLC5        0.0000 
     92 CA         21.4860  -39.1650  -12.4570 C.3      12 GLL5        0.0000 
     93 CA         20.0600  -35.5810  -14.0920 C.3       8 GLP5        0.0000 
     94 CA          9.8033  -41.7007   -5.0430 C.3       4 GLC5        0.0000 
     95 CA          8.5200  -41.4050   -6.0640 C.3      12 GLL5        0.0000 
     96 CA          9.1082  -39.4988   -4.1102 C.3       4 GLC5        0.0000 
     97 CA          8.1730  -40.1260   -5.6380 C.3      12 GLL5        0.0000 
     98 CA          9.8560  -39.4230   -2.2020 C.3       8 GLP5        0.0000 
     99 CA          9.1702  -36.9270   -7.0672 C.3       4 GLC5        0.0000 
    100 CA          8.5480  -39.0230   -6.3990 C.3      12 GLL5        0.0000 
    101 CA          9.4330  -34.7540   -7.1440 C.3       8 GLP5        0.0000 
    102 CA          9.3285  -39.8025   -9.7000 C.3       4 GLC5        0.0000 
    103 CA          9.2140  -39.7910  -11.6020 C.3       8 GLP5        0.0000 
    104 CA         11.2865  -40.0545   -7.5870 C.3       4 GLC5        0.0000 
    105 CA          9.6190  -40.4510   -8.0140 C.3      12 GLL5        0.0000 
@<TRIPOS>BOND
@<TRIPOS>SUBSTRUCTURE
     1 ALC1       33 GROUP        1 X    ALC  0     ROOT ALC X 1
     2 SEC2        1 GROUP        1 X    SEC  0     **** SEC X 2
     3 LYC4       48 GROUP        1 X    LYC  0     **** LYC X 4
     4 GLC5       14 GROUP        1 X    GLC  0     **** GLC X 6
     5 ALP1       35 GROUP        1 Y    ALP  0     ROOT ALP Y 8
     6 SEP2        3 GROUP        1 Y    SEP  0     **** SEP Y 9
     7 LYP4       50 GROUP        1 Y    LYP  0     **** LYP Y 11
     8 GLP5       16 GROUP        1 Y    GLP  0     **** GLP Y 13
     9 ALL1       34 GROUP        1 Z    ALL  0     ROOT ALL Z 15
    10 SEL2        2 GROUP        1 Z    SEL  0     **** SEL Z 16
    11 LYL4       49 GROUP        1 Z    LYL  0     **** LYL Z 18
    12 GLL5       15 GROUP        1 Z    GLL  0     **** GLL Z 20
@<TRIPOS>SET

