#    Name: 2azn_NAP_2_ligand
#    Modification time : Mon Mar 24 19:44:11 2014

@<TRIPOS>MOLECULE
2azn_NAP_2_ligand
   73    77     1     0     0
SMALL
NO_CHARGES


@<TRIPOS>ATOM
      1 PA         15.1660  -41.4870  -10.7700 P.3       1 NAP2002     0.0000 
      2 O1A        14.0700  -40.4950  -10.8280 O.co2     1 NAP2002     0.0000 
      3 O2A        15.9160  -41.6160   -9.5010 O.co2     1 NAP2002     0.0000 
      4 O5B        16.1930  -41.1960  -11.9780 O.3       1 NAP2002     0.0000 
      5 C5B        17.4540  -41.8680  -12.0100 C.3       1 NAP2002     0.0000 
      6 C4B        18.3060  -41.4730  -13.2180 C.3       1 NAP2002     0.0000 
      7 O4B        18.8020  -40.1250  -13.1720 O.3       1 NAP2002     0.0000 
      8 C3B        19.6150  -42.2610  -13.1800 C.3       1 NAP2002     0.0000 
      9 O3B        19.3730  -43.6180  -13.5620 O.3       1 NAP2002     0.0000 
     10 C2B        20.3560  -41.5330  -14.3000 C.3       1 NAP2002     0.0000 
     11 O2B        19.9590  -42.0470  -15.5730 O.3       1 NAP2002     0.0000 
     12 C1B        19.8670  -40.0890  -14.1420 C.3       1 NAP2002     0.0000 
     13 N9A        20.9940  -39.2390  -13.6900 N.pl3     1 NAP2002     0.0000 
     14 C8A        21.7300  -38.4500  -14.4720 C.2       1 NAP2002     0.0000 
     15 N7A        22.6940  -37.8770  -13.7560 N.2       1 NAP2002     0.0000 
     16 C5A        22.5690  -38.3000  -12.5020 C.ar      1 NAP2002     0.0000 
     17 C6A        23.2650  -38.0620  -11.3190 C.ar      1 NAP2002     0.0000 
     18 N6A        24.3150  -37.2510  -11.3020 N.pl3     1 NAP2002     0.0000 
     19 N1A        22.8610  -38.6750  -10.1920 N.ar      1 NAP2002     0.0000 
     20 C2A        21.8250  -39.4930  -10.1860 C.ar      1 NAP2002     0.0000 
     21 N3A        21.1430  -39.7420  -11.2930 N.ar      1 NAP2002     0.0000 
     22 C4A        21.4860  -39.1650  -12.4570 C.ar      1 NAP2002     0.0000 
     23 O3         14.5390  -42.9160  -11.1840 O.3       1 NAP2002     0.0000 
     24 PN         14.6510  -44.2510  -10.2840 P.3       1 NAP2002     0.0000 
     25 O1N        15.8150  -44.1670   -9.3740 O.co2     1 NAP2002     0.0000 
     26 O2N        14.5410  -45.4310  -11.1710 O.co2     1 NAP2002     0.0000 
     27 O5D        13.3310  -44.1770   -9.3630 O.3       1 NAP2002     0.0000 
     28 C5D        12.0520  -44.5260   -9.9000 C.3       1 NAP2002     0.0000 
     29 C4D        10.9430  -44.3070   -8.8680 C.3       1 NAP2002     0.0000 
     30 O4D        10.8930  -42.9550   -8.3880 O.3       1 NAP2002     0.0000 
     31 C3D         9.5480  -44.5640   -9.4420 C.3       1 NAP2002     0.0000 
     32 O3D         9.1110  -45.8880   -9.1230 O.3       1 NAP2002     0.0000 
     33 C2D         8.6720  -43.5260   -8.7360 C.3       1 NAP2002     0.0000 
     34 O2D         7.5620  -44.1390   -8.0730 O.3       1 NAP2002     0.0000 
     35 C1D         9.6310  -42.9260   -7.7050 C.3       1 NAP2002     0.0000 
     36 N1N         9.2450  -41.5700   -7.2540 N.pl3     1 NAP2002     0.0000 
     37 C2N         8.5200  -41.4050   -6.0640 C.ar      1 NAP2002     0.0000 
     38 C3N         8.1730  -40.1260   -5.6380 C.ar      1 NAP2002     0.0000 
     39 C7N         7.3930  -39.9320   -4.3330 C.2       1 NAP2002     0.0000 
     40 O7N         6.8800  -40.8870   -3.7540 O.2       1 NAP2002     0.0000 
     41 N7N         7.3090  -38.6750   -3.9030 N.am      1 NAP2002     0.0000 
     42 C4N         8.5480  -39.0230   -6.3990 C.ar      1 NAP2002     0.0000 
     43 C5N         9.2670  -39.1770   -7.5820 C.ar      1 NAP2002     0.0000 
     44 C6N         9.6190  -40.4510   -8.0140 C.ar      1 NAP2002     0.0000 
     45 P2B        20.9450  -41.9000  -16.8380 P.3       1 NAP2002     0.0000 
     46 O1X        20.5000  -40.5530  -17.5970 O.co2     1 NAP2002     0.0000 
     47 O2X        22.4100  -41.6260  -16.2280 O.co2     1 NAP2002     0.0000 
     48 O3X        20.9260  -43.0890  -17.7180 O.co2     1 NAP2002     0.0000 
     49 H          17.3252  -42.9687  -12.0411 H         1 NAP2002     0.0000 
     50 H          18.0499  -41.6537  -11.1000 H         1 NAP2002     0.0000 
     51 H          17.8218  -41.6916  -14.1208 H         1 NAP2002     0.0000 
     52 H          20.0882  -42.1053  -12.2914 H         1 NAP2002     0.0000 
     53 H          21.3810  -41.5664  -14.1117 H         1 NAP2002     0.0000 
     54 H          19.5094  -39.7638  -15.0963 H         1 NAP2002     0.0000 
     55 H          21.5821  -38.3128  -15.4327 H         1 NAP2002     0.0000 
     56 H          24.7990  -37.1761  -10.4302 H         1 NAP2002     0.0000 
     57 H          24.5274  -36.7880  -12.1626 H         1 NAP2002     0.0000 
     58 H          21.5331  -39.9588   -9.2812 H         1 NAP2002     0.0000 
     59 H          12.0161  -45.5826  -10.2078 H         1 NAP2002     0.0000 
     60 H          11.8057  -43.9211  -10.7865 H         1 NAP2002     0.0000 
     61 H          11.0811  -44.9916   -8.0421 H         1 NAP2002     0.0000 
     62 H           9.5618  -44.3494  -10.4715 H         1 NAP2002     0.0000 
     63 H           8.4118  -42.7770   -9.4237 H         1 NAP2002     0.0000 
     64 H           9.6594  -43.6184   -6.8694 H         1 NAP2002     0.0000 
     65 H           8.2494  -42.2258   -5.5143 H         1 NAP2002     0.0000 
     66 H           6.8257  -38.5371   -3.0385 H         1 NAP2002     0.0000 
     67 H           7.7368  -37.9819   -4.4833 H         1 NAP2002     0.0000 
     68 H           8.2887  -38.0725   -6.0814 H         1 NAP2002     0.0000 
     69 H           9.5353  -38.3532   -8.1316 H         1 NAP2002     0.0000 
     70 H          10.1482  -40.5781   -8.8811 H         1 NAP2002     0.0000 
     71 H          19.5674  -43.6493  -14.5425 H         1 NAP2002     0.0000 
     72 H           8.3830  -46.0854   -9.7796 H         1 NAP2002     0.0000 
     73 H           7.7592  -45.1192   -8.0908 H         1 NAP2002     0.0000 
@<TRIPOS>BOND
     1    2    1 ar   
     2    3    1 ar   
     3    4    1 1    
     4   23    1 1    
     5    5    4 1    
     6    6    5 1    
     7   49    5 1    
     8   50    5 1    
     9    7    6 1    
    10    8    6 1    
    11   51    6 1    
    12   12    7 1    
    13    9    8 1    
    14   10    8 1    
    15   52    8 1    
    16   71    9 1    
    17   11   10 1    
    18   12   10 1    
    19   53   10 1    
    20   45   11 1    
    21   13   12 1    
    22   54   12 1    
    23   14   13 1    
    24   22   13 1    
    25   15   14 2    
    26   55   14 1    
    27   16   15 1    
    28   17   16 ar   
    29   22   16 ar   
    30   18   17 1    
    31   19   17 ar   
    32   56   18 1    
    33   57   18 1    
    34   20   19 ar   
    35   21   20 ar   
    36   58   20 1    
    37   22   21 ar   
    38   24   23 1    
    39   25   24 ar   
    40   26   24 ar   
    41   27   24 1    
    42   28   27 1    
    43   29   28 1    
    44   59   28 1    
    45   60   28 1    
    46   30   29 1    
    47   31   29 1    
    48   61   29 1    
    49   35   30 1    
    50   32   31 1    
    51   33   31 1    
    52   62   31 1    
    53   72   32 1    
    54   34   33 1    
    55   35   33 1    
    56   63   33 1    
    57   73   34 1    
    58   36   35 1    
    59   64   35 1    
    60   37   36 ar   
    61   44   36 ar   
    62   38   37 ar   
    63   65   37 1    
    64   39   38 1    
    65   42   38 ar   
    66   40   39 2    
    67   41   39 am   
    68   66   41 1    
    69   67   41 1    
    70   43   42 ar   
    71   68   42 1    
    72   44   43 ar   
    73   69   43 1    
    74   70   44 1    
    75   46   45 ar   
    76   47   45 ar   
    77   48   45 ar   
@<TRIPOS>SUBSTRUCTURE
     1 NAP2002     1 GROUP   
@<TRIPOS>SET

