#    Name: 4fig_ANP_1_INTS_M
#    Modification time : Mon Mar 24 20:04:58 2014

@<TRIPOS>MOLECULE
4fig_ANP_1_INTS_M
   65     0    18     0     0
SMALL
NO_CHARGES


@<TRIPOS>ATOM
      1 NZ         33.9155  -11.2175  -17.1980 N.4       4 LYC4        0.0000 
      2 NZ         33.6220  -10.1680  -16.0100 N.4      16 LYL4        0.0000 
      3 NZ         34.2090  -12.2670  -18.3860 N.4      10 LYP4        0.0000 
      4 N          32.8460  -10.3045  -14.5230 N.am      2 SEC2        0.0000 
      5 N          33.6220  -10.1680  -16.0100 N.am     14 SEL2        0.0000 
      6 N          32.0700  -10.4410  -13.0360 N.am      8 SEP2        0.0000 
      7 NZ         35.2605  -10.7115  -18.5970 N.4       4 LYC4        0.0000 
      8 NZ         36.3120   -9.1560  -18.8080 N.4      16 LYL4        0.0000 
      9 N          37.3025   -8.4040  -19.6125 N.am      2 SEC2        0.0000 
     10 N          36.3120   -9.1560  -18.8080 N.am     14 SEL2        0.0000 
     11 N          38.2930   -7.6520  -20.4170 N.am      8 SEP2        0.0000 
     12 N          36.9065   -7.7930  -18.4520 N.am      2 SEC2        0.0000 
     13 N          37.5010   -6.4300  -18.0960 N.am      8 SEP2        0.0000 
     14 N          37.7495   -9.1960  -18.5615 N.am      2 SEC2        0.0000 
     15 N          39.1870   -9.2360  -18.3150 N.am      8 SEP2        0.0000 
     16 N          36.8765  -10.2345  -18.2925 N.am      2 SEC2        0.0000 
     17 N          37.4410  -11.3130  -17.7770 N.am      8 SEP2        0.0000 
     18 Zn         34.2245   -7.3360  -21.2115 Zn        5 ZIC7        0.0000 
     19 Zn         34.8410   -7.5240  -20.1710 Zn       17 ZIL7        0.0000 
     20 Zn         33.6080   -7.1480  -22.2520 Zn       11 ZIP7        0.0000 
     21 N          36.5670   -7.5880  -20.2940 N.am      2 SEC2        0.0000 
     22 N          34.8410   -7.5240  -20.1710 N.am     14 SEL2        0.0000 
     23 OD1        32.1470   -9.5840  -18.9040 O.co2     3 ASC3        0.0000 
     24 OD1        33.7010   -9.1300  -18.3920 O.co2    15 ASL3        0.0000 
     25 OD1        30.5930  -10.0380  -19.4160 O.co2     9 ASP3        0.0000 
     26 OD1        32.0250   -8.5075  -19.0820 O.co2     3 ASC3        0.0000 
     27 OD1        30.3490   -7.8850  -19.7720 O.co2     9 ASP3        0.0000 
     28 Zn         33.1995   -8.0650  -21.9765 Zn        5 ZIC7        0.0000 
     29 Zn         32.7910   -8.9820  -21.7010 Zn       17 ZIL7        0.0000 
     30 NZ         33.4890  -11.8085  -19.4930 N.4       4 LYC4        0.0000 
     31 NZ         32.7690  -11.3500  -20.6000 N.4      16 LYL4        0.0000 
     32 N          33.4890  -11.8085  -19.4930 N.am      2 SEC2        0.0000 
     33 N          32.7690  -11.3500  -20.6000 N.am     14 SEL2        0.0000 
     34 N          34.2090  -12.2670  -18.3860 N.am      8 SEP2        0.0000 
     35 CA         36.1695  -10.4835  -24.7300 C.3       6 GLC5        0.0000 
     36 CA         34.2310  -10.2390  -23.9750 C.3      18 GLL5        0.0000 
     37 CA         38.1080  -10.7280  -25.4850 C.3      12 GLP5        0.0000 
     38 CA         35.7940   -9.4685  -23.1740 C.3       6 GLC5        0.0000 
     39 CA         37.3570   -8.6980  -22.3730 C.3      12 GLP5        0.0000 
     40 CA         34.3785  -12.3940  -23.5955 C.3       6 GLC5        0.0000 
     41 CA         34.5260  -14.5490  -23.2160 C.3      12 GLP5        0.0000 
     42 CA         28.8275  -10.6590  -24.7670 C.3       6 GLC5        0.0000 
     43 CA         30.8070  -10.5630  -25.1650 C.3      18 GLL5        0.0000 
     44 CA         26.8480  -10.7550  -24.3690 C.3      12 GLP5        0.0000 
     45 CA         29.4950  -17.5805  -24.3180 C.3       6 GLC5        0.0000 
     46 CA         28.5690  -15.8310  -24.1330 C.3      18 GLL5        0.0000 
     47 CA         30.4210  -19.3300  -24.5030 C.3      12 GLP5        0.0000 
     48 CA         26.5345  -15.6620  -24.7855 C.3       6 GLC5        0.0000 
     49 CA         24.5000  -15.4930  -25.4380 C.3      12 GLP5        0.0000 
     50 O          27.4190  -17.8235  -23.1225 O.2       1 ALC1        0.0000 
     51 O          28.1550  -16.5980  -23.0960 O.2      13 ALL1        0.0000 
     52 O          26.6830  -19.0490  -23.1490 O.2       7 ALP1        0.0000 
     53 N          26.9415  -16.7820  -25.7860 N.am      2 SEC2        0.0000 
     54 N          28.1480  -16.0690  -25.3970 N.am     14 SEL2        0.0000 
     55 N          25.7350  -17.4950  -26.1750 N.am      8 SEP2        0.0000 
     56 CA         30.3570  -15.9045  -27.5440 C.3       6 GLC5        0.0000 
     57 CA         28.5630  -15.3100  -26.4320 C.3      18 GLL5        0.0000 
     58 CA         32.1510  -16.4990  -28.6560 C.3      12 GLP5        0.0000 
     59 CA         26.5900  -15.9570  -26.4555 C.3       6 GLC5        0.0000 
     60 CA         24.6170  -16.6040  -26.4790 C.3      12 GLP5        0.0000 
     61 CA         31.6205  -15.1895  -24.7150 C.3       6 GLC5        0.0000 
     62 CA         29.5070  -14.7030  -23.9180 C.3      18 GLL5        0.0000 
     63 CA         33.5310  -16.0690  -24.9210 C.3      12 GLP5        0.0000 
     64 CA         28.1262  -13.6595  -23.7019 C.3       6 GLC5        0.0000 
     65 CA         26.7770  -12.7270  -22.8410 C.3      12 GLP5        0.0000 
@<TRIPOS>BOND
@<TRIPOS>SUBSTRUCTURE
     1 ALC1       50 GROUP        1 X    ALC  0     ROOT ALC X 1
     2 SEC2        4 GROUP        1 X    SEC  0     **** SEC X 2
     3 ASC3       23 GROUP        1 X    ASC  0     **** ASC X 3
     4 LYC4        1 GROUP        1 X    LYC  0     **** LYC X 4
     5 ZIC7       18 GROUP        1 X    ZIC  0     **** ZIC X 5
     6 GLC5       35 GROUP        1 X    GLC  0     **** GLC X 6
     7 ALP1       52 GROUP        1 Y    ALP  0     ROOT ALP Y 8
     8 SEP2        6 GROUP        1 Y    SEP  0     **** SEP Y 9
     9 ASP3       25 GROUP        1 Y    ASP  0     **** ASP Y 10
    10 LYP4        3 GROUP        1 Y    LYP  0     **** LYP Y 11
    11 ZIP7       20 GROUP        1 Y    ZIP  0     **** ZIP Y 12
    12 GLP5       37 GROUP        1 Y    GLP  0     **** GLP Y 13
    13 ALL1       51 GROUP        1 Z    ALL  0     ROOT ALL Z 15
    14 SEL2        5 GROUP        1 Z    SEL  0     **** SEL Z 16
    15 ASL3       24 GROUP        1 Z    ASL  0     **** ASL Z 17
    16 LYL4        2 GROUP        1 Z    LYL  0     **** LYL Z 18
    17 ZIL7       19 GROUP        1 Z    ZIL  0     **** ZIL Z 19
    18 GLL5       36 GROUP        1 Z    GLL  0     **** GLL Z 20
@<TRIPOS>SET

