#    Name: 4fig_ANP_1_ligand
#    Modification time : Mon Mar 24 20:04:58 2014

@<TRIPOS>MOLECULE
4fig_ANP_1_ligand
   43    45     1     0     0
SMALL
NO_CHARGES


@<TRIPOS>ATOM
      1 PG         33.9390   -8.8500  -16.6770 P.3       1 ANP1001     0.0000 
      2 O1G        35.3890   -8.4430  -16.5660 O.co2     1 ANP1001     0.0000 
      3 O2G        33.6220  -10.1680  -16.0100 O.co2     1 ANP1001     0.0000 
      4 O3G        32.9660   -7.7470  -16.3280 O.co2     1 ANP1001     0.0000 
      5 PB         35.0140   -8.8820  -19.5290 P.3       1 ANP1001     0.0000 
      6 O1B        36.3120   -9.1560  -18.8080 O.co2     1 ANP1001     0.0000 
      7 O2B        34.8410   -7.5240  -20.1710 O.co2     1 ANP1001     0.0000 
      8 N3B        33.7010   -9.1300  -18.3920 N.4       1 ANP1001     0.0000 
      9 PA         33.4790  -10.2980  -21.4170 P.3       1 ANP1001     0.0000 
     10 O1A        32.7910   -8.9820  -21.7010 O.co2     1 ANP1001     0.0000 
     11 O2A        32.7690  -11.3500  -20.6000 O.co2     1 ANP1001     0.0000 
     12 O3A        34.8920   -9.9830  -20.7060 O.3       1 ANP1001     0.0000 
     13 O5'        33.8960  -10.9960  -22.8100 O.3       1 ANP1001     0.0000 
     14 C5'        34.2310  -10.2390  -23.9750 C.3       1 ANP1001     0.0000 
     15 C4'        33.2350  -10.4680  -25.1130 C.3       1 ANP1001     0.0000 
     16 O4'        32.8160  -11.8370  -25.1960 O.3       1 ANP1001     0.0000 
     17 C3'        31.9800   -9.6210  -24.9370 C.3       1 ANP1001     0.0000 
     18 O3'        31.9760   -8.5240  -25.8600 O.3       1 ANP1001     0.0000 
     19 C2'        30.8070  -10.5630  -25.1650 C.3       1 ANP1001     0.0000 
     20 O2'        29.9610  -10.1130  -26.2310 O.3       1 ANP1001     0.0000 
     21 C1'        31.4150  -11.9250  -25.4860 C.3       1 ANP1001     0.0000 
     22 N9         30.7490  -12.9710  -24.6580 N.pl3     1 ANP1001     0.0000 
     23 C8         30.8740  -13.1170  -23.3200 C.2       1 ANP1001     0.0000 
     24 N7         30.1320  -14.1590  -22.8580 N.2       1 ANP1001     0.0000 
     25 C5         29.5070  -14.7030  -23.9180 C.ar      1 ANP1001     0.0000 
     26 C6         28.5690  -15.8310  -24.1330 C.ar      1 ANP1001     0.0000 
     27 N6         28.1550  -16.5980  -23.0960 N.pl3     1 ANP1001     0.0000 
     28 N1         28.1480  -16.0690  -25.3970 N.ar      1 ANP1001     0.0000 
     29 C2         28.5630  -15.3100  -26.4320 C.ar      1 ANP1001     0.0000 
     30 N3         29.4130  -14.2680  -26.3090 N.ar      1 ANP1001     0.0000 
     31 C4         29.9130  -13.9170  -25.1000 C.ar      1 ANP1001     0.0000 
     32 H          35.2352  -10.5023  -24.3543 H         1 ANP1001     0.0000 
     33 H          34.2488   -9.1546  -23.7622 H         1 ANP1001     0.0000 
     34 H          33.7039  -10.1610  -26.0462 H         1 ANP1001     0.0000 
     35 H          31.9497   -9.2933  -23.9127 H         1 ANP1001     0.0000 
     36 H          30.2726  -10.6572  -24.2334 H         1 ANP1001     0.0000 
     37 H          31.2456  -12.1196  -26.5278 H         1 ANP1001     0.0000 
     38 H          31.4314  -12.5431  -22.7473 H         1 ANP1001     0.0000 
     39 H          28.5322  -16.3664  -22.1993 H         1 ANP1001     0.0000 
     40 H          27.5088  -17.3279  -23.3190 H         1 ANP1001     0.0000 
     41 H          28.1975  -15.5470  -27.4080 H         1 ANP1001     0.0000 
     42 H          32.9105   -8.4796  -26.2131 H         1 ANP1001     0.0000 
     43 H          30.3547   -9.2415  -26.5234 H         1 ANP1001     0.0000 
@<TRIPOS>BOND
     1    2    1 ar   
     2    3    1 ar   
     3    4    1 ar   
     4    8    1 1    
     5    6    5 ar   
     6    7    5 ar   
     7    8    5 1    
     8   12    5 1    
     9   10    9 ar   
    10   11    9 ar   
    11   12    9 1    
    12   13    9 1    
    13   14   13 1    
    14   15   14 1    
    15   32   14 1    
    16   33   14 1    
    17   16   15 1    
    18   17   15 1    
    19   34   15 1    
    20   21   16 1    
    21   18   17 1    
    22   19   17 1    
    23   35   17 1    
    24   42   18 1    
    25   20   19 1    
    26   21   19 1    
    27   36   19 1    
    28   43   20 1    
    29   22   21 1    
    30   37   21 1    
    31   23   22 1    
    32   31   22 1    
    33   24   23 2    
    34   38   23 1    
    35   25   24 1    
    36   26   25 ar   
    37   31   25 ar   
    38   27   26 1    
    39   28   26 ar   
    40   39   27 1    
    41   40   27 1    
    42   29   28 ar   
    43   30   29 ar   
    44   41   29 1    
    45   31   30 ar   
@<TRIPOS>SUBSTRUCTURE
     1 ANP1001     1 GROUP   
@<TRIPOS>SET

