#    Name: 3ppk_FNI_2_INTS_M
#    Modification time : Tue Mar 25 08:16:25 2014

@<TRIPOS>MOLECULE
3ppk_FNI_2_INTS_M
   66     0     9     0     0
SMALL
NO_CHARGES


@<TRIPOS>ATOM
      1 CA         64.9615   24.9515   -2.9415 C.3       3 GLC5        0.0000 
      2 CA         64.5610   26.2820   -1.4620 C.3       9 GLL5        0.0000 
      3 CA         65.3620   23.6210   -4.4210 C.3       6 GLP5        0.0000 
      4 CA         66.0705   25.5170   -0.0230 C.3       3 GLC5        0.0000 
      5 CA         67.5800   24.7520    1.4160 C.3       6 GLP5        0.0000 
      6 CA         66.5895   26.6235   -2.0835 C.3       3 GLC5        0.0000 
      7 CA         68.6180   26.9650   -2.7050 C.3       6 GLP5        0.0000 
      8 N          66.9285   26.6575   -0.7300 N.am      2 SEC2        0.0000 
      9 N          65.5690   27.0990   -1.0770 N.am      8 SEL2        0.0000 
     10 N          68.2880   26.2160   -0.3830 N.am      5 SEP2        0.0000 
     11 CA         66.9920   27.6995   -1.8520 C.3       3 GLC5        0.0000 
     12 CA         65.3660   28.4340   -0.9990 C.3       9 GLL5        0.0000 
     13 CA         63.3020   30.1980    0.1600 C.3       3 GLC5        0.0000 
     14 CA         64.0990   28.9680   -1.3200 C.3       9 GLL5        0.0000 
     15 CA         62.5050   31.4280    1.6400 C.3       6 GLP5        0.0000 
     16 CA         63.0920   25.0590   -2.8660 C.3       3 GLC5        0.0000 
     17 CA         63.2690   26.7520   -1.7950 C.3       9 GLL5        0.0000 
     18 CA         62.9150   23.3660   -3.9370 C.3       6 GLP5        0.0000 
     19 CA         61.4025   24.6610    0.5405 C.3       3 GLC5        0.0000 
     20 CA         59.6250   24.1180   -0.6070 C.3       9 GLL5        0.0000 
     21 CA         63.1800   25.2040    1.6880 C.3       6 GLP5        0.0000 
     22 N          55.4000   23.8670   -3.3670 N.am      2 SEC2        0.0000 
     23 N          56.7380   23.6110   -3.6040 N.am      8 SEL2        0.0000 
     24 N          54.0620   24.1230   -3.1300 N.am      5 SEP2        0.0000 
     25 O          56.3405   22.5680   -3.8395 O.2       1 ALC1        0.0000 
     26 O          56.7380   23.6110   -3.6040 O.2       7 ALL1        0.0000 
     27 O          55.9430   21.5250   -4.0750 O.2       4 ALP1        0.0000 
     28 CA         63.7855   37.5020   -3.3375 C.3       3 GLC5        0.0000 
     29 CA         62.4620   36.1120   -2.5930 C.3       9 GLL5        0.0000 
     30 CA         65.1090   38.8920   -4.0820 C.3       6 GLP5        0.0000 
     31 CA         63.3308   26.2668    0.0076 C.3       3 GLC5        0.0000 
     32 CA         62.3135   30.4887   -0.1035 C.3       3 GLC5        0.0000 
     33 CA         61.8770   28.8850   -1.9870 C.3       9 GLL5        0.0000 
     34 CA         60.8760   29.0957   -0.2250 C.3       3 GLC5        0.0000 
     35 CA         62.3670   30.2140   -1.7070 C.3       9 GLL5        0.0000 
     36 CA         59.6300   28.6420    1.3970 C.3       6 GLP5        0.0000 
     37 CA         58.4730   27.8327   -1.4105 C.3       3 GLC5        0.0000 
     38 CA         59.9370   27.3630   -2.4290 C.3       9 GLL5        0.0000 
     39 CA         57.4940   28.3860    0.1120 C.3       6 GLP5        0.0000 
     40 CA         57.9335   26.1345   -5.1360 C.3       3 GLC5        0.0000 
     41 CA         58.9670   27.1960   -3.4370 C.3       9 GLL5        0.0000 
     42 CA         57.2750   25.6690   -6.8020 C.3       6 GLP5        0.0000 
     43 CA         57.9095   26.9380   -1.4602 C.3       3 GLC5        0.0000 
     44 CA         58.2170   26.0040   -3.5030 C.3       9 GLL5        0.0000 
     45 CA         57.9085   24.2963   -4.6757 C.3       3 GLC5        0.0000 
     46 CA         58.4330   24.9760   -2.5620 C.3       9 GLL5        0.0000 
     47 CA         57.7590   24.2130   -6.7570 C.3       6 GLP5        0.0000 
     48 CA         58.6362   27.0622   -0.7032 C.3       3 GLC5        0.0000 
     49 CA         59.4040   25.1420   -1.5520 C.3       9 GLL5        0.0000 
     50 CA         57.7618   24.6425   -0.1093 C.3       3 GLC5        0.0000 
     51 CA         56.0090   24.6550    0.8610 C.3       6 GLP5        0.0000 
     52 CA         56.3910   25.0607   -2.0154 C.3       3 GLC5        0.0000 
     53 CA         57.6830   23.7830   -2.6270 C.3       9 GLL5        0.0000 
     54 CA         54.7780   25.4850   -1.2010 C.3       6 GLP5        0.0000 
     55 CA         57.1975   23.7482   -0.1595 C.3       3 GLC5        0.0000 
     56 CA         57.9000   22.7560   -1.6850 C.3       9 GLL5        0.0000 
     57 CA         57.8690   21.1107   -0.7485 C.3       3 GLC5        0.0000 
     58 CA         58.8720   22.9270   -0.6750 C.3       9 GLL5        0.0000 
     59 CA         57.3520   19.3800   -0.3170 C.3       6 GLP5        0.0000 
     60 CA         60.2058   22.0784   -1.1462 C.3       3 GLC5        0.0000 
     61 CA         61.4060   20.6770   -1.3990 C.3       6 GLP5        0.0000 
     62 CA         62.0470   32.8068    0.1015 C.3       3 GLC5        0.0000 
     63 CA         62.1370   33.9560   -1.8200 C.3       9 GLL5        0.0000 
     64 CA         59.3582   34.5260    0.0842 C.3       3 GLC5        0.0000 
     65 CA         61.0410   34.4150   -1.0540 C.3       9 GLL5        0.0000 
     66 CA         57.8410   33.9520    1.2550 C.3       6 GLP5        0.0000 
@<TRIPOS>BOND
@<TRIPOS>SUBSTRUCTURE
     1 ALC1       25 GROUP        1 X    ALC  0     ROOT ALC X 1
     2 SEC2        8 GROUP        1 X    SEC  0     **** SEC X 2
     3 GLC5        1 GROUP        1 X    GLC  0     **** GLC X 6
     4 ALP1       27 GROUP        1 Y    ALP  0     ROOT ALP Y 8
     5 SEP2       10 GROUP        1 Y    SEP  0     **** SEP Y 9
     6 GLP5        3 GROUP        1 Y    GLP  0     **** GLP Y 13
     7 ALL1       26 GROUP        1 Z    ALL  0     ROOT ALL Z 15
     8 SEL2        9 GROUP        1 Z    SEL  0     **** SEL Z 16
     9 GLL5        2 GROUP        1 Z    GLL  0     **** GLL Z 20
@<TRIPOS>SET

