#    Name: 3ppk_FNI_2_ligand
#    Modification time : Tue Mar 25 08:16:25 2014

@<TRIPOS>MOLECULE
3ppk_FNI_2_ligand
   45    49     1     0     0
SMALL
NO_CHARGES


@<TRIPOS>ATOM
      1 C1         64.5610   26.2820   -1.4620 C.ar      1 FNI727      0.0000 
      2 N2         65.5690   27.0990   -1.0770 N.ar      1 FNI727      0.0000 
      3 C3         65.3660   28.4340   -0.9990 C.ar      1 FNI727      0.0000 
      4 C4         64.0990   28.9680   -1.3200 C.ar      1 FNI727      0.0000 
      5 C5         63.0480   28.1420   -1.7170 C.ar      1 FNI727      0.0000 
      6 C6         63.2690   26.7520   -1.7950 C.ar      1 FNI727      0.0000 
      7 O7         63.7210   30.2840   -1.2970 O.3       1 FNI727      0.0000 
      8 C8         62.3670   30.2140   -1.7070 C.2       1 FNI727      0.0000 
      9 C9         61.8770   28.8850   -1.9870 C.2       1 FNI727      0.0000 
     10 C10        61.6920   31.4800   -1.7810 C.2       1 FNI727      0.0000 
     11 N11        60.6410   28.5090   -2.3900 N.pl3     1 FNI727      0.0000 
     12 C12        59.9370   27.3630   -2.4290 C.ar      1 FNI727      0.0000 
     13 C13        58.9670   27.1960   -3.4370 C.ar      1 FNI727      0.0000 
     14 C14        58.2170   26.0040   -3.5030 C.ar      1 FNI727      0.0000 
     15 C15        58.4330   24.9760   -2.5620 C.ar      1 FNI727      0.0000 
     16 C16        59.4040   25.1420   -1.5520 C.ar      1 FNI727      0.0000 
     17 C17        60.1530   26.3350   -1.4850 C.ar      1 FNI727      0.0000 
     18 C18        57.6830   23.7830   -2.6270 C.ar      1 FNI727      0.0000 
     19 C19        57.9000   22.7560   -1.6850 C.ar      1 FNI727      0.0000 
     20 C20        58.8720   22.9270   -0.6750 C.ar      1 FNI727      0.0000 
     21 C21        59.6250   24.1180   -0.6070 C.ar      1 FNI727      0.0000 
     22 O22        60.4640   31.4920   -1.8700 O.2       1 FNI727      0.0000 
     23 O23        56.7380   23.6110   -3.6040 O.3       1 FNI727      0.0000 
     24 N24        62.4770   32.5780   -1.7580 N.am      1 FNI727      0.0000 
     25 C25        62.1370   33.9560   -1.8200 C.ar      1 FNI727      0.0000 
     26 N26        62.8440   34.8160   -2.5880 N.ar      1 FNI727      0.0000 
     27 C27        62.4620   36.1120   -2.5930 C.ar      1 FNI727      0.0000 
     28 N28        61.4280   36.6290   -1.8920 N.ar      1 FNI727      0.0000 
     29 C29        60.7100   35.7850   -1.1190 C.ar      1 FNI727      0.0000 
     30 C30        61.0410   34.4150   -1.0540 C.ar      1 FNI727      0.0000 
     31 H          64.7206   25.2432   -1.5246 H         1 FNI727      0.0000 
     32 H          66.1136   29.0794   -0.7101 H         1 FNI727      0.0000 
     33 H          62.5428   26.1213   -2.0744 H         1 FNI727      0.0000 
     34 H          60.0369   29.4033   -2.8074 H         1 FNI727      0.0000 
     35 H          58.8067   27.9386   -4.1206 H         1 FNI727      0.0000 
     36 H          57.5132   25.8841   -4.2363 H         1 FNI727      0.0000 
     37 H          60.8547   26.4570   -0.7511 H         1 FNI727      0.0000 
     38 H          57.3581   21.8940   -1.7323 H         1 FNI727      0.0000 
     39 H          59.0303   22.1836    0.0101 H         1 FNI727      0.0000 
     40 H          60.3271   24.2385    0.1231 H         1 FNI727      0.0000 
     41 H          63.5653   32.4018   -1.6784 H         1 FNI727      0.0000 
     42 H          63.0303   36.7925   -3.2087 H         1 FNI727      0.0000 
     43 H          59.9055   36.1204   -0.5597 H         1 FNI727      0.0000 
     44 H          60.5113   33.7798   -0.4776 H         1 FNI727      0.0000 
     45 H          56.9342   22.7133   -3.9985 H         1 FNI727      0.0000 
@<TRIPOS>BOND
     1    2    1 ar   
     2    6    1 ar   
     3   31    1 1    
     4    3    2 ar   
     5    4    3 ar   
     6   32    3 1    
     7    5    4 ar   
     8    7    4 1    
     9    6    5 ar   
    10    9    5 1    
    11   33    6 1    
    12    8    7 1    
    13    9    8 2    
    14   10    8 1    
    15   11    9 1    
    16   22   10 2    
    17   24   10 am   
    18   12   11 1    
    19   34   11 1    
    20   13   12 ar   
    21   17   12 ar   
    22   14   13 ar   
    23   35   13 1    
    24   15   14 ar   
    25   36   14 1    
    26   16   15 ar   
    27   18   15 ar   
    28   17   16 ar   
    29   21   16 ar   
    30   37   17 1    
    31   19   18 ar   
    32   23   18 1    
    33   20   19 ar   
    34   38   19 1    
    35   21   20 ar   
    36   39   20 1    
    37   40   21 1    
    38   45   23 1    
    39   25   24 1    
    40   41   24 1    
    41   26   25 ar   
    42   30   25 ar   
    43   27   26 ar   
    44   28   27 ar   
    45   42   27 1    
    46   29   28 ar   
    47   30   29 ar   
    48   43   29 1    
    49   44   30 1    
@<TRIPOS>SUBSTRUCTURE
     1 FNI727      1 GROUP   
@<TRIPOS>SET

