#    Name: 1f4e_TPR_1_INTS_M
#    Modification time : Tue Mar 25 00:45:53 2014

@<TRIPOS>MOLECULE
1f4e_TPR_1_INTS_M
   36     0     6     0     0
SMALL
NO_CHARGES


@<TRIPOS>ATOM
      1 CA         36.0180   61.4785   77.8700 C.3       2 GLC5        0.0000 
      2 CA         38.0050   61.0350   78.5880 C.3       6 GLL5        0.0000 
      3 CA         34.0310   61.9220   77.1520 C.3       4 GLP5        0.0000 
      4 CA         40.0130   57.2130   78.4430 C.3       2 GLC5        0.0000 
      5 CA         38.3030   58.6360   78.4640 C.3       6 GLL5        0.0000 
      6 CA         41.7230   55.7900   78.4220 C.3       4 GLP5        0.0000 
      7 CA         40.5615   60.2480   76.9380 C.3       2 GLC5        0.0000 
      8 CA         38.9080   60.0060   76.4330 C.3       6 GLL5        0.0000 
      9 CA         42.2150   60.4900   77.4430 C.3       4 GLP5        0.0000 
     10 N          38.0510   61.5420   83.9945 N.am      1 SEC2        0.0000 
     11 N          37.4950   60.6150   83.0490 N.am      5 SEL2        0.0000 
     12 N          38.6070   62.4690   84.9400 N.am      3 SEP2        0.0000 
     13 CA         34.2715   60.9695   78.9900 C.3       2 GLC5        0.0000 
     14 CA         34.5120   60.0170   80.8280 C.3       6 GLL5        0.0000 
     15 N          33.3415   60.0015   86.3585 N.am      1 SEC2        0.0000 
     16 N          33.8350   58.6810   85.3640 N.am      5 SEL2        0.0000 
     17 N          32.8480   61.3220   87.3530 N.am      3 SEP2        0.0000 
     18 N          33.4820   61.0470   85.9645 N.am      1 SEC2        0.0000 
     19 N          34.1160   60.7720   84.5760 N.am      5 SEL2        0.0000 
     20 N          34.2660   62.3170   85.1425 N.am      1 SEC2        0.0000 
     21 N          34.4160   63.8620   85.7090 N.am      3 SEP2        0.0000 
     22 N          34.1315   61.7970   83.8910 N.am      1 SEC2        0.0000 
     23 N          34.1470   62.8220   83.2060 N.am      3 SEP2        0.0000 
     24 CA         37.8882   62.7080   78.7817 C.3       2 GLC5        0.0000 
     25 CA         37.5440   60.8970   79.8990 C.3       6 GLL5        0.0000 
     26 CA         38.0020   64.4500   78.3200 C.3       4 GLP5        0.0000 
     27 CA         36.8415   59.8368   76.2185 C.3       2 GLC5        0.0000 
     28 CA         38.3900   59.9010   77.8630 C.3       6 GLL5        0.0000 
     29 CA         35.0340   59.7200   75.2890 C.3       4 GLP5        0.0000 
     30 CA         39.3574   61.7662   79.5661 C.3       2 GLC5        0.0000 
     31 CA         40.8440   62.8500   80.0700 C.3       4 GLP5        0.0000 
     32 CA         32.1350   60.2003   80.9062 C.3       2 GLC5        0.0000 
     33 CA         30.2780   60.9320   81.0600 C.3       4 GLP5        0.0000 
     34 CA         32.0853   59.8595   82.4930 C.3       2 GLC5        0.0000 
     35 CA         33.0440   58.6100   82.1100 C.3       6 GLL5        0.0000 
     36 CA         30.5000   60.9800   82.4430 C.3       4 GLP5        0.0000 
@<TRIPOS>BOND
@<TRIPOS>SUBSTRUCTURE
     1 SEC2       10 GROUP        1 X    SEC  0     ROOT SEC X 2
     2 GLC5        1 GROUP        1 X    GLC  0     **** GLC X 6
     3 SEP2       12 GROUP        1 Y    SEP  0     ROOT SEP Y 9
     4 GLP5        3 GROUP        1 Y    GLP  0     **** GLP Y 13
     5 SEL2       11 GROUP        1 Z    SEL  0     ROOT SEL Z 16
     6 GLL5        2 GROUP        1 Z    GLL  0     **** GLL Z 20
@<TRIPOS>SET

