#    Name: 1f4e_TPR_1_ligand
#    Modification time : Tue Mar 25 00:45:53 2014

@<TRIPOS>MOLECULE
1f4e_TPR_1_ligand
   32    33     1     0     0
SMALL
NO_CHARGES


@<TRIPOS>ATOM
      1 C1         38.0050   61.0350   78.5880 C.ar      1 TPR301      0.0000 
      2 C2         38.3900   59.9010   77.8630 C.ar      1 TPR301      0.0000 
      3 C3         38.3030   58.6360   78.4640 C.ar      1 TPR301      0.0000 
      4 C4         37.8390   58.4910   79.7770 C.ar      1 TPR301      0.0000 
      5 C5         37.4760   59.6340   80.4790 C.ar      1 TPR301      0.0000 
      6 C6         37.5440   60.8970   79.8990 C.ar      1 TPR301      0.0000 
      7 C7         38.9080   60.0060   76.4330 C.3       1 TPR301      0.0000 
      8 S8         36.8630   59.5010   82.1190 S.o2      1 TPR301      0.0000 
      9 O9         37.4950   60.6150   83.0490 O.2       1 TPR301      0.0000 
     10 O10        37.2030   58.0690   82.7100 O.2       1 TPR301      0.0000 
     11 N          35.1210   59.7520   82.1440 N.pl3     1 TPR301      0.0000 
     12 CD         34.5120   60.0170   80.8280 C.3       1 TPR301      0.0000 
     13 CG         33.4720   58.9200   80.6770 C.3       1 TPR301      0.0000 
     14 CB         33.0440   58.6100   82.1100 C.3       1 TPR301      0.0000 
     15 CA         34.2970   58.8680   82.9760 C.3       1 TPR301      0.0000 
     16 C          34.0590   59.4180   84.3980 C.2       1 TPR301      0.0000 
     17 O          33.8350   58.6810   85.3640 O.co2     1 TPR301      0.0000 
     18 OXT        34.1160   60.7720   84.5760 O.co2     1 TPR301      0.0000 
     19 H          38.0618   61.9624   78.1569 H         1 TPR301      0.0000 
     20 H          38.5858   57.8003   77.9288 H         1 TPR301      0.0000 
     21 H          37.7712   57.5711   80.2015 H         1 TPR301      0.0000 
     22 H          37.2569   61.7257   80.4310 H         1 TPR301      0.0000 
     23 H          35.2341   59.9263   80.0460 H         1 TPR301      0.0000 
     24 H          34.0242   60.9674   80.8155 H         1 TPR301      0.0000 
     25 H          33.9141   58.0573   80.2412 H         1 TPR301      0.0000 
     26 H          32.6389   59.2822   80.1253 H         1 TPR301      0.0000 
     27 H          32.7641   57.5863   82.1929 H         1 TPR301      0.0000 
     28 H          32.2671   59.2733   82.4094 H         1 TPR301      0.0000 
     29 H          34.8226   57.9005   83.0528 H         1 TPR301      0.0000 
     30 H          39.7342   60.5666   76.3775 H         1 TPR301      0.0000 
     31 H          39.1363   59.1092   76.0539 H         1 TPR301      0.0000 
     32 H          38.2321   60.4188   75.8225 H         1 TPR301      0.0000 
@<TRIPOS>BOND
     1    2    1 ar   
     2    6    1 ar   
     3   19    1 1    
     4    3    2 ar   
     5    7    2 1    
     6    4    3 ar   
     7   20    3 1    
     8    5    4 ar   
     9   21    4 1    
    10    6    5 ar   
    11    8    5 1    
    12   22    6 1    
    13   30    7 1    
    14   31    7 1    
    15   32    7 1    
    16    9    8 2    
    17   10    8 2    
    18   11    8 1    
    19   12   11 1    
    20   15   11 1    
    21   13   12 1    
    22   23   12 1    
    23   24   12 1    
    24   14   13 1    
    25   25   13 1    
    26   26   13 1    
    27   15   14 1    
    28   27   14 1    
    29   28   14 1    
    30   16   15 1    
    31   29   15 1    
    32   17   16 ar   
    33   18   16 ar   
@<TRIPOS>SUBSTRUCTURE
     1 TPR301      1 GROUP   
@<TRIPOS>SET

