#    Name: 4bfv_ZVV_2_INTS_M
#    Modification time : Tue Mar 25 07:38:56 2014

@<TRIPOS>MOLECULE
4bfv_ZVV_2_INTS_M
   70     0     6     0     0
SMALL
NO_CHARGES


@<TRIPOS>ATOM
      1 CA        -67.5435  -13.9000   18.3305 C.3       2 GLC5        0.0000 
      2 CA        -67.6630  -13.1390   19.9450 C.3       6 GLL5        0.0000 
      3 CA        -67.4240  -14.6610   16.7160 C.3       4 GLP5        0.0000 
      4 CA        -64.1700   -9.9450   23.6880 C.3       2 GLC5        0.0000 
      5 CA        -64.7740  -11.5520   22.4880 C.3       6 GLL5        0.0000 
      6 CA        -63.5660   -8.3380   24.8880 C.3       4 GLP5        0.0000 
      7 CA        -68.1630   -9.1975   22.6295 C.3       2 GLC5        0.0000 
      8 CA        -67.7070   -9.0730   20.5910 C.3       6 GLL5        0.0000 
      9 CA        -68.6190   -9.3220   24.6680 C.3       4 GLP5        0.0000 
     10 CA        -65.9575   -7.1495   18.5970 C.3       2 GLC5        0.0000 
     11 CA        -66.9960   -7.9820   19.8030 C.3       6 GLL5        0.0000 
     12 CA        -64.9190   -6.3170   17.3910 C.3       4 GLP5        0.0000 
     13 CA        -69.5395   -9.0960   23.2650 C.3       2 GLC5        0.0000 
     14 CA        -70.4600   -8.8700   21.8620 C.3       6 GLL5        0.0000 
     15 CA        -71.3315   -8.4205   23.2160 C.3       2 GLC5        0.0000 
     16 CA        -72.2030   -7.9710   24.5700 C.3       4 GLP5        0.0000 
     17 N         -68.4525  -10.0345   17.4405 N.am      1 SEC2        0.0000 
     18 N         -69.0950   -9.9640   18.6750 N.am      5 SEL2        0.0000 
     19 N         -67.8100  -10.1050   16.2060 N.am      3 SEP2        0.0000 
     20 N         -70.9420   -9.9795   17.2320 N.am      1 SEC2        0.0000 
     21 N         -70.4640  -10.1970   18.4430 N.am      5 SEL2        0.0000 
     22 N         -71.4200   -9.7620   16.0210 N.am      3 SEP2        0.0000 
     23 N         -69.1370  -10.1510   17.3245 N.am      1 SEC2        0.0000 
     24 CA        -74.2765   -9.5115   18.9310 C.3       2 GLC5        0.0000 
     25 CA        -72.7340   -9.8740   19.8830 C.3       6 GLL5        0.0000 
     26 CA        -75.8190   -9.1490   17.9790 C.3       4 GLP5        0.0000 
     27 CA        -72.9780   -8.0960   18.6540 C.3       2 GLC5        0.0000 
     28 CA        -73.2220   -6.3180   17.4250 C.3       4 GLP5        0.0000 
     29 CA        -72.7905  -10.1350   23.0560 C.3       2 GLC5        0.0000 
     30 CA        -72.9180  -11.0260   21.2330 C.3       6 GLL5        0.0000 
     31 CA        -72.6630   -9.2440   24.8790 C.3       4 GLP5        0.0000 
     32 CA        -73.7385  -13.7800   20.6090 C.3       2 GLC5        0.0000 
     33 CA        -72.2060  -12.3680   21.0230 C.3       6 GLL5        0.0000 
     34 CA        -75.2710  -15.1920   20.1950 C.3       4 GLP5        0.0000 
     35 CA        -74.4050  -11.9655   21.0825 C.3       2 GLC5        0.0000 
     36 CA        -76.6040  -11.5630   21.1420 C.3       4 GLP5        0.0000 
     37 CA        -72.0035  -12.6370   16.1600 C.3       2 GLC5        0.0000 
     38 CA        -73.1820  -13.3210   16.9850 C.3       6 GLL5        0.0000 
     39 CA        -70.8250  -11.9530   15.3350 C.3       4 GLP5        0.0000 
     40 CA        -74.7740  -12.6760   16.2780 C.3       2 GLC5        0.0000 
     41 CA        -76.3660  -12.0310   15.5710 C.3       4 GLP5        0.0000 
     42 CA        -72.5420  -15.5060   20.3505 C.3       2 GLC5        0.0000 
     43 CA        -70.8550  -14.6090   19.7000 C.3       6 GLL5        0.0000 
     44 CA        -74.2290  -16.4030   21.0010 C.3       4 GLP5        0.0000 
     45 CA        -65.9607  -14.3850   18.8095 C.3       2 GLC5        0.0000 
     46 CA        -66.6710  -15.0780   19.9970 C.3       6 GLL5        0.0000 
     47 CA        -65.0480  -14.2120   17.2580 C.3       4 GLP5        0.0000 
     48 CA        -68.1955  -14.9477   22.6992 C.3       2 GLC5        0.0000 
     49 CA        -67.0760  -14.0380   20.7250 C.3       6 GLL5        0.0000 
     50 CA        -68.8830  -15.6520   24.2130 C.3       4 GLP5        0.0000 
     51 CA        -65.1885  -14.0265   19.3927 C.3       2 GLC5        0.0000 
     52 CA        -65.8870  -13.4340   21.4170 C.3       6 GLL5        0.0000 
     53 CA        -62.7665  -13.4981   20.9393 C.3       2 GLC5        0.0000 
     54 CA        -63.6630  -12.3490   22.7030 C.3       6 GLL5        0.0000 
     55 CA        -61.5910  -13.8370   19.5470 C.3       4 GLP5        0.0000 
     56 CA        -63.4112  -12.6390   24.2456 C.3       2 GLC5        0.0000 
     57 CA        -63.6710  -13.6910   22.2820 C.3       6 GLL5        0.0000 
     58 CA        -62.6020  -12.9920   26.0010 C.3       4 GLP5        0.0000 
     59 CA        -62.7007  -11.2925   21.7591 C.3       2 GLC5        0.0000 
     60 CA        -61.1810  -10.2990   21.0280 C.3       4 GLP5        0.0000 
     61 CA        -74.7150  -11.0065   20.8500 C.3       2 GLC5        0.0000 
     62 CA        -73.9261  -14.4219   18.9416 C.3       2 GLC5        0.0000 
     63 CA        -71.8450  -13.8620   19.0680 C.3       6 GLL5        0.0000 
     64 CA        -70.1887  -16.1265   15.4410 C.3       2 GLC5        0.0000 
     65 CA        -70.4460  -15.8330   17.6600 C.3       6 GLL5        0.0000 
     66 CA        -69.4420  -16.7940   13.5430 C.3       4 GLP5        0.0000 
     67 CA        -72.0888  -17.0560   17.0690 C.3       2 GLC5        0.0000 
     68 CA        -73.2420  -18.6530   16.7990 C.3       4 GLP5        0.0000 
     69 CA        -69.1434  -15.0310   17.1956 C.3       2 GLC5        0.0000 
     70 CA        -71.4250  -15.0850   17.0180 C.3       6 GLL5        0.0000 
@<TRIPOS>BOND
@<TRIPOS>SUBSTRUCTURE
     1 SEC2       17 GROUP        1 X    SEC  0     ROOT SEC X 2
     2 GLC5        1 GROUP        1 X    GLC  0     **** GLC X 6
     3 SEP2       19 GROUP        1 Y    SEP  0     ROOT SEP Y 9
     4 GLP5        3 GROUP        1 Y    GLP  0     **** GLP Y 13
     5 SEL2       18 GROUP        1 Z    SEL  0     ROOT SEL Z 16
     6 GLL5        2 GROUP        1 Z    GLL  0     **** GLL Z 20
@<TRIPOS>SET

