#    Name: 4bfv_ZVV_2_ligand
#    Modification time : Tue Mar 25 07:38:56 2014

@<TRIPOS>MOLECULE
4bfv_ZVV_2_ligand
   55    57     1     0     0
SMALL
NO_CHARGES


@<TRIPOS>ATOM
      1 FAE       -66.6710  -15.0780   19.9970 F         1 ZVV501      0.0000 
      2 CBF       -67.0760  -14.0380   20.7250 C.3       1 ZVV501      0.0000 
      3 FAF       -67.9400  -14.4490   21.6460 F         1 ZVV501      0.0000 
      4 FAG       -67.6630  -13.1390   19.9450 F         1 ZVV501      0.0000 
      5 CBA       -65.8870  -13.4340   21.4170 C.ar      1 ZVV501      0.0000 
      6 CAO       -64.7710  -14.2480   21.6380 C.ar      1 ZVV501      0.0000 
      7 CAK       -63.6710  -13.6910   22.2820 C.ar      1 ZVV501      0.0000 
      8 CAJ       -63.6630  -12.3490   22.7030 C.ar      1 ZVV501      0.0000 
      9 CAN       -64.7740  -11.5520   22.4880 C.ar      1 ZVV501      0.0000 
     10 CAZ       -65.8840  -12.0990   21.8370 C.ar      1 ZVV501      0.0000 
     11 CAW       -67.0230  -11.1380   21.6480 C.2       1 ZVV501      0.0000 
     12 OAD       -68.0770  -11.2720   22.2540 O.2       1 ZVV501      0.0000 
     13 NAT       -66.7800  -10.1380   20.8220 N.am      1 ZVV501      0.0000 
     14 CBD       -67.7070   -9.0730   20.5910 C.3       1 ZVV501      0.0000 
     15 CAB       -66.9960   -7.9820   19.8030 C.3       1 ZVV501      0.0000 
     16 CBC       -68.9590   -9.4850   19.9280 C.2       1 ZVV501      0.0000 
     17 NBE       -70.1620   -9.3840   20.5040 N.pl3     1 ZVV501      0.0000 
     18 CAC       -70.4600   -8.8700   21.8620 C.3       1 ZVV501      0.0000 
     19 NAS       -69.0950   -9.9640   18.6750 N.2       1 ZVV501      0.0000 
     20 NAR       -70.4640  -10.1970   18.4430 N.2       1 ZVV501      0.0000 
     21 CBB       -71.0150   -9.8220   19.5980 C.2       1 ZVV501      0.0000 
     22 SAV       -72.7340   -9.8740   19.8830 S.3       1 ZVV501      0.0000 
     23 CAQ       -72.9180  -11.0260   21.2330 C.3       1 ZVV501      0.0000 
     24 CAP       -72.2060  -12.3680   21.0230 C.3       1 ZVV501      0.0000 
     25 OAU       -72.5600  -12.8950   19.7520 O.3       1 ZVV501      0.0000 
     26 CAY       -71.8450  -13.8620   19.0680 C.ar      1 ZVV501      0.0000 
     27 CAX       -72.1160  -14.1030   17.7150 C.ar      1 ZVV501      0.0000 
     28 CAA       -73.1820  -13.3210   16.9850 C.3       1 ZVV501      0.0000 
     29 CAM       -70.8550  -14.6090   19.7000 C.ar      1 ZVV501      0.0000 
     30 CAI       -70.1550  -15.6010   19.0050 C.ar      1 ZVV501      0.0000 
     31 CAH       -70.4460  -15.8330   17.6600 C.ar      1 ZVV501      0.0000 
     32 CAL       -71.4250  -15.0850   17.0180 C.ar      1 ZVV501      0.0000 
     33 H         -64.7676  -15.2155   21.3361 H         1 ZVV501      0.0000 
     34 H         -62.8320  -14.2748   22.4594 H         1 ZVV501      0.0000 
     35 H         -62.8302  -11.9709   23.1678 H         1 ZVV501      0.0000 
     36 H         -64.7892  -10.5793   22.7974 H         1 ZVV501      0.0000 
     37 H         -65.8727  -10.0790   20.2848 H         1 ZVV501      0.0000 
     38 H         -67.9683   -8.6067   21.5695 H         1 ZVV501      0.0000 
     39 H         -73.9910  -11.1304   21.3197 H         1 ZVV501      0.0000 
     40 H         -72.5304  -10.4743   22.0787 H         1 ZVV501      0.0000 
     41 H         -72.5043  -13.0313   21.8414 H         1 ZVV501      0.0000 
     42 H         -71.1295  -12.1872   21.1085 H         1 ZVV501      0.0000 
     43 H         -70.6327  -14.4315   20.6917 H         1 ZVV501      0.0000 
     44 H         -69.4359  -16.1511   19.4802 H         1 ZVV501      0.0000 
     45 H         -69.9325  -16.5607   17.1448 H         1 ZVV501      0.0000 
     46 H         -71.6375  -15.2590   16.0267 H         1 ZVV501      0.0000 
     47 H         -66.2057   -7.6211   20.2983 H         1 ZVV501      0.0000 
     48 H         -66.6617   -8.3178   18.9224 H         1 ZVV501      0.0000 
     49 H         -67.6001   -7.2085   19.6115 H         1 ZVV501      0.0000 
     50 H         -69.9988   -9.4039   22.5707 H         1 ZVV501      0.0000 
     51 H         -70.1661   -7.9206   21.9725 H         1 ZVV501      0.0000 
     52 H         -71.4390   -8.8991   22.0636 H         1 ZVV501      0.0000 
     53 H         -72.9910  -12.3394   16.9893 H         1 ZVV501      0.0000 
     54 H         -73.2578  -13.6006   16.0279 H         1 ZVV501      0.0000 
     55 H         -74.0835  -13.4461   17.3992 H         1 ZVV501      0.0000 
@<TRIPOS>BOND
     1    2    1 1    
     2    3    2 1    
     3    4    2 1    
     4    5    2 1    
     5    6    5 ar   
     6   10    5 ar   
     7    7    6 ar   
     8   33    6 1    
     9    8    7 ar   
    10   34    7 1    
    11    9    8 ar   
    12   35    8 1    
    13   10    9 ar   
    14   36    9 1    
    15   11   10 1    
    16   12   11 2    
    17   13   11 am   
    18   14   13 1    
    19   37   13 1    
    20   15   14 1    
    21   16   14 1    
    22   38   14 1    
    23   47   15 1    
    24   48   15 1    
    25   49   15 1    
    26   17   16 1    
    27   19   16 2    
    28   18   17 1    
    29   21   17 1    
    30   50   18 1    
    31   51   18 1    
    32   52   18 1    
    33   20   19 1    
    34   21   20 2    
    35   22   21 1    
    36   23   22 1    
    37   24   23 1    
    38   39   23 1    
    39   40   23 1    
    40   25   24 1    
    41   41   24 1    
    42   42   24 1    
    43   26   25 1    
    44   27   26 ar   
    45   29   26 ar   
    46   28   27 1    
    47   32   27 ar   
    48   53   28 1    
    49   54   28 1    
    50   55   28 1    
    51   30   29 ar   
    52   43   29 1    
    53   31   30 ar   
    54   44   30 1    
    55   32   31 ar   
    56   45   31 1    
    57   46   32 1    
@<TRIPOS>SUBSTRUCTURE
     1 ZVV501      1 GROUP   
@<TRIPOS>SET

