#    Name: 3ax9_FAD_4_INTS_M
#    Modification time : Mon Mar 24 18:27:07 2014

@<TRIPOS>MOLECULE
3ax9_FAD_4_INTS_M
  121     0     9     0     0
SMALL
NO_CHARGES


@<TRIPOS>ATOM
      1 N          25.6660   13.7810   56.7750 N.am      2 SEC2        0.0000 
      2 N          26.0920   14.6020   57.9160 N.am      8 SEL2        0.0000 
      3 N          25.2400   12.9600   55.6340 N.am      5 SEP2        0.0000 
      4 N          26.2065   15.1090   56.5965 N.am      2 SEC2        0.0000 
      5 N          26.3210   15.6160   55.2770 N.am      5 SEP2        0.0000 
      6 N          28.3610   14.4070   61.2250 N.am      2 SEC2        0.0000 
      7 N          27.4990   14.3620   60.0560 N.am      8 SEL2        0.0000 
      8 N          29.2230   14.4520   62.3940 N.am      5 SEP2        0.0000 
      9 N          28.1180   13.2885   59.4490 N.am      2 SEC2        0.0000 
     10 N          28.7370   12.2150   58.8420 N.am      5 SEP2        0.0000 
     11 CA         23.7775   15.4540   57.7100 C.3       3 GLC5        0.0000 
     12 CA         24.1530   16.3000   59.5670 C.3       9 GLL5        0.0000 
     13 CA         23.4020   14.6080   55.8530 C.3       6 GLP5        0.0000 
     14 CA         25.8015   17.0640   58.3645 C.3       3 GLC5        0.0000 
     15 CA         27.4500   17.8280   57.1620 C.3       6 GLP5        0.0000 
     16 CA         25.6560   20.6715   59.0515 C.3       3 GLC5        0.0000 
     17 CA         24.7460   18.7770   59.6530 C.3       9 GLL5        0.0000 
     18 CA         26.5660   22.5660   58.4500 C.3       6 GLP5        0.0000 
     19 CA         25.7785   18.9355   58.1390 C.3       3 GLC5        0.0000 
     20 CA         26.8110   19.0940   56.6250 C.3       6 GLP5        0.0000 
     21 CA         26.6130   19.3910   62.5875 C.3       3 GLC5        0.0000 
     22 CA         25.2290   19.0710   61.0630 C.3       9 GLL5        0.0000 
     23 CA         27.9970   19.7110   64.1120 C.3       6 GLP5        0.0000 
     24 N          27.0855   20.7785   61.6660 N.am      2 SEC2        0.0000 
     25 N          25.5820   20.4170   61.1620 N.am      8 SEL2        0.0000 
     26 N          28.5890   21.1400   62.1700 N.am      5 SEP2        0.0000 
     27 O          26.9050   19.5650   61.0875 O.2       1 ALC1        0.0000 
     28 O          25.5820   20.4170   61.1620 O.2       7 ALL1        0.0000 
     29 O          28.2280   18.7130   61.0130 O.2       4 ALP1        0.0000 
     30 CA         22.2590   19.6125   62.2355 C.3       3 GLC5        0.0000 
     31 CA         24.0050   18.7880   61.8970 C.3       9 GLL5        0.0000 
     32 CA         20.5130   20.4370   62.5740 C.3       6 GLP5        0.0000 
     33 CA         24.3775   20.1310   68.1130 C.3       3 GLC5        0.0000 
     34 CA         23.9930   18.4510   66.7820 C.3       9 GLL5        0.0000 
     35 CA         24.7620   21.8110   69.4440 C.3       6 GLP5        0.0000 
     36 CA         22.1820   18.5435   67.7715 C.3       3 GLC5        0.0000 
     37 CA         20.3710   18.6360   68.7610 C.3       6 GLP5        0.0000 
     38 O          23.4595   17.7120   69.0080 O.2       1 ALC1        0.0000 
     39 O          24.1130   17.5560   67.7490 O.2       7 ALL1        0.0000 
     40 O          22.8060   17.8680   70.2670 O.2       4 ALP1        0.0000 
     41 N          22.6755   20.0845   68.1520 N.am      2 SEC2        0.0000 
     42 N          23.4320   19.6830   67.0430 N.am      8 SEL2        0.0000 
     43 N          21.9190   20.4860   69.2610 N.am      5 SEP2        0.0000 
     44 CA         25.1455   20.2485   66.2085 C.3       3 GLC5        0.0000 
     45 CA         23.0910   20.5200   65.9870 C.3       9 GLL5        0.0000 
     46 CA         27.2000   19.9770   66.4300 C.3       6 GLP5        0.0000 
     47 CA         21.4390   19.8100   65.3080 C.3       3 GLC5        0.0000 
     48 CA         19.7870   19.1000   64.6290 C.3       6 GLP5        0.0000 
     49 CA         23.2265   21.4780   67.5935 C.3       3 GLC5        0.0000 
     50 CA         23.3620   22.4360   69.2000 C.3       6 GLP5        0.0000 
     51 CA         21.7310   19.5780   67.3740 C.3       3 GLC5        0.0000 
     52 CA         21.8310   19.0015   64.5220 C.3       3 GLC5        0.0000 
     53 CA         23.8750   18.9030   64.4150 C.3       9 GLL5        0.0000 
     54 N          16.2820   10.0810   58.3205 N.am      2 SEC2        0.0000 
     55 N          15.3730    9.3790   57.5300 N.am      8 SEL2        0.0000 
     56 N          17.1910   10.7830   59.1110 N.am      5 SEP2        0.0000 
     57 N          13.9460    9.5585   57.6295 N.am      2 SEC2        0.0000 
     58 N          12.5190    9.7380   57.7290 N.am      5 SEP2        0.0000 
     59 O          14.2090    7.0835   55.9900 O.2       1 ALC1        0.0000 
     60 O          15.5110    7.5380   56.2170 O.2       7 ALL1        0.0000 
     61 O          12.9070    6.6290   55.7630 O.2       4 ALP1        0.0000 
     62 CA         24.5645    5.4180   51.3885 C.3       3 GLC5        0.0000 
     63 CA         22.6800    5.5110   52.0510 C.3       9 GLL5        0.0000 
     64 CA         26.4490    5.3250   50.7260 C.3       6 GLP5        0.0000 
     65 CA         23.3855    4.2725   50.4300 C.3       3 GLC5        0.0000 
     66 CA         24.0910    3.0340   48.8090 C.3       6 GLP5        0.0000 
     67 CA         25.1170    6.6105   51.9930 C.3       3 GLC5        0.0000 
     68 CA         23.7850    7.8960   53.2600 C.3       9 GLL5        0.0000 
     69 CA         25.7355    8.1130   52.8495 C.3       3 GLC5        0.0000 
     70 CA         27.6860    8.3300   52.4390 C.3       6 GLP5        0.0000 
     71 CA         24.6450    8.7850   54.7720 C.3       3 GLC5        0.0000 
     72 CA         25.5050    9.6740   56.2840 C.3       6 GLP5        0.0000 
     73 CA         19.2315    7.9475   58.0010 C.3       3 GLC5        0.0000 
     74 CA         20.5880    9.6210   57.4910 C.3       9 GLL5        0.0000 
     75 CA         17.8750    6.2740   58.5110 C.3       6 GLP5        0.0000 
     76 N          18.4210   10.0100   58.7925 N.am      2 SEC2        0.0000 
     77 N          19.6510    9.2370   58.4740 N.am      8 SEL2        0.0000 
     78 O          23.4485   10.6880   57.1255 O.2       1 ALC1        0.0000 
     79 O          22.2230   11.1920   56.9040 O.2       7 ALL1        0.0000 
     80 O          24.6740   10.1840   57.3470 O.2       4 ALP1        0.0000 
     81 O          21.5660   10.5430   61.7905 O.2       1 ALC1        0.0000 
     82 O          21.3190   10.3100   60.3210 O.2       7 ALL1        0.0000 
     83 O          21.8130   10.7760   63.2600 O.2       4 ALP1        0.0000 
     84 CA         22.4505   13.2750   60.8945 C.3       3 GLC5        0.0000 
     85 CA         22.6980   12.1080   59.5680 C.3       9 GLL5        0.0000 
     86 CA         22.2030   14.4420   62.2210 C.3       6 GLP5        0.0000 
     87 N          23.9815   10.7060   61.7375 N.am      2 SEC2        0.0000 
     88 N          23.6200   11.8330   60.5570 N.am      8 SEL2        0.0000 
     89 N          24.3430    9.5790   62.9180 N.am      5 SEP2        0.0000 
     90 N          27.1470   11.7785   61.6295 N.am      2 SEC2        0.0000 
     91 N          25.7790   11.8930   61.7260 N.am      8 SEL2        0.0000 
     92 N          28.5150   11.6640   61.5330 N.am      5 SEP2        0.0000 
     93 N          25.0610   10.7360   62.3220 N.am      2 SEC2        0.0000 
     94 N          24.9945   12.0900   62.8870 N.am      2 SEC2        0.0000 
     95 N          24.2100   12.2870   64.0480 N.am      5 SEP2        0.0000 
     96 N          26.4600   11.4140   57.9725 N.am      2 SEC2        0.0000 
     97 N          25.7430   11.3770   59.2190 N.am      8 SEL2        0.0000 
     98 N          27.1770   11.4510   56.7260 N.am      5 SEP2        0.0000 
     99 N          25.2085   10.7805   58.2830 N.am      2 SEC2        0.0000 
    100 N          24.6740   10.1840   57.3470 N.am      5 SEP2        0.0000 
    101 CA         23.0577   15.7275   60.9615 C.3       3 GLC5        0.0000 
    102 CA         25.5950   19.2785   65.8489 C.3       3 GLC5        0.0000 
    103 CA         24.2170   18.0630   65.4590 C.3       9 GLL5        0.0000 
    104 CA         20.4950    4.6480   54.2142 C.3       3 GLC5        0.0000 
    105 CA         19.7490    6.7690   54.0830 C.3       9 GLL5        0.0000 
    106 CA         20.8520    2.9220   54.7670 C.3       6 GLP5        0.0000 
    107 CA         21.5542    4.4280   53.6398 C.3       3 GLC5        0.0000 
    108 CA         21.8330    6.3570   52.9740 C.3       9 GLL5        0.0000 
    109 CA         23.3377    5.0410   53.7122 C.3       3 GLC5        0.0000 
    110 CA         24.4190    4.1480   54.9120 C.3       6 GLP5        0.0000 
    111 CA         23.2583    6.6658   55.0555 C.3       3 GLC5        0.0000 
    112 CA         22.3600    7.5170   53.5540 C.3       9 GLL5        0.0000 
    113 CA         23.4440    5.6250   56.7040 C.3       6 GLP5        0.0000 
    114 CA         22.1820    6.8747   55.6227 C.3       3 GLC5        0.0000 
    115 CA         21.5820    8.3080   54.4080 C.3       9 GLL5        0.0000 
    116 CA         22.2790    9.0078   58.9097 C.3       3 GLC5        0.0000 
    117 CA         23.6140    7.7640   60.1140 C.3       6 GLP5        0.0000 
    118 CA         23.0035    9.5985   59.7555 C.3       3 GLC5        0.0000 
    119 CA         22.0880   10.7580   59.2260 C.3       9 GLL5        0.0000 
    120 CA         20.5615   12.2700   59.9557 C.3       3 GLC5        0.0000 
    121 CA         18.9270   13.0760   60.8410 C.3       6 GLP5        0.0000 
@<TRIPOS>BOND
@<TRIPOS>SUBSTRUCTURE
     1 ALC1       27 GROUP        1 X    ALC  0     ROOT ALC X 1
     2 SEC2        1 GROUP        1 X    SEC  0     **** SEC X 2
     3 GLC5       11 GROUP        1 X    GLC  0     **** GLC X 6
     4 ALP1       29 GROUP        1 Y    ALP  0     ROOT ALP Y 8
     5 SEP2        3 GROUP        1 Y    SEP  0     **** SEP Y 9
     6 GLP5       13 GROUP        1 Y    GLP  0     **** GLP Y 13
     7 ALL1       28 GROUP        1 Z    ALL  0     ROOT ALL Z 15
     8 SEL2        2 GROUP        1 Z    SEL  0     **** SEL Z 16
     9 GLL5       12 GROUP        1 Z    GLL  0     **** GLL Z 20
@<TRIPOS>SET

