#    Name: 3ax9_FAD_4_ligand
#    Modification time : Mon Mar 24 18:27:08 2014

@<TRIPOS>MOLECULE
3ax9_FAD_4_ligand
   84    89     1     0     0
SMALL
NO_CHARGES


@<TRIPOS>ATOM
      1 PA         26.1590   14.6790   59.4360 P.3       1 FAD1335     0.0000 
      2 O1A        26.0920   14.6020   57.9160 O.co2     1 FAD1335     0.0000 
      3 O2A        27.4990   14.3620   60.0560 O.co2     1 FAD1335     0.0000 
      4 O5B        25.5310   16.1140   59.8720 O.3       1 FAD1335     0.0000 
      5 C5B        24.1530   16.3000   59.5670 C.3       1 FAD1335     0.0000 
      6 C4B        23.6720   17.7260   59.8370 C.3       1 FAD1335     0.0000 
      7 O4B        23.2710   17.8240   61.1960 O.3       1 FAD1335     0.0000 
      8 C3B        24.7460   18.7770   59.6530 C.3       1 FAD1335     0.0000 
      9 O3B        24.1410   19.9370   59.1490 O.3       1 FAD1335     0.0000 
     10 C2B        25.2290   19.0710   61.0630 C.3       1 FAD1335     0.0000 
     11 O2B        25.5820   20.4170   61.1620 O.3       1 FAD1335     0.0000 
     12 C1B        24.0050   18.7880   61.8970 C.3       1 FAD1335     0.0000 
     13 N9A        24.2310   18.2610   63.2420 N.pl3     1 FAD1335     0.0000 
     14 C8A        24.7420   17.0480   63.5760 C.2       1 FAD1335     0.0000 
     15 N7A        24.7410   16.9470   64.9260 N.2       1 FAD1335     0.0000 
     16 C5A        24.2170   18.0630   65.4590 C.ar      1 FAD1335     0.0000 
     17 C6A        23.9930   18.4510   66.7820 C.ar      1 FAD1335     0.0000 
     18 N6A        24.1130   17.5560   67.7490 N.pl3     1 FAD1335     0.0000 
     19 N1A        23.4320   19.6830   67.0430 N.ar      1 FAD1335     0.0000 
     20 C2A        23.0910   20.5200   65.9870 C.ar      1 FAD1335     0.0000 
     21 N3A        23.3190   20.1210   64.6690 N.ar      1 FAD1335     0.0000 
     22 C4A        23.8750   18.9030   64.4150 C.ar      1 FAD1335     0.0000 
     23 N1         17.3320    9.0390   56.5450 N.2       1 FAD1335     0.0000 
     24 C2         16.0420    8.6710   56.7940 C.2       1 FAD1335     0.0000 
     25 O2         15.3730    9.3790   57.5300 O.2       1 FAD1335     0.0000 
     26 N3         15.5110    7.5380   56.2170 N.am      1 FAD1335     0.0000 
     27 C4         16.3070    6.7660   55.3890 C.2       1 FAD1335     0.0000 
     28 O4         15.8410    5.7560   54.8800 O.2       1 FAD1335     0.0000 
     29 C4X        17.6270    7.1380   55.1400 C.2       1 FAD1335     0.0000 
     30 N5         18.4470    6.3800   54.3160 N.2       1 FAD1335     0.0000 
     31 C5X        19.7490    6.7690   54.0830 C.ar      1 FAD1335     0.0000 
     32 C6         20.5270    5.9790   53.2400 C.ar      1 FAD1335     0.0000 
     33 C7         21.8330    6.3570   52.9740 C.ar      1 FAD1335     0.0000 
     34 C7M        22.6800    5.5110   52.0510 C.3       1 FAD1335     0.0000 
     35 C8         22.3600    7.5170   53.5540 C.ar      1 FAD1335     0.0000 
     36 C8M        23.7850    7.8960   53.2600 C.3       1 FAD1335     0.0000 
     37 C9         21.5820    8.3080   54.4080 C.ar      1 FAD1335     0.0000 
     38 C9A        20.2580    7.9410   54.6750 C.ar      1 FAD1335     0.0000 
     39 N10        19.4310    8.6980   55.5210 N.pl3     1 FAD1335     0.0000 
     40 C10        18.1330    8.2910   55.7350 C.2       1 FAD1335     0.0000 
     41 C1'        19.8720    9.9610   56.1930 C.3       1 FAD1335     0.0000 
     42 C2'        20.5880    9.6210   57.4910 C.3       1 FAD1335     0.0000 
     43 O2'        19.6510    9.2370   58.4740 O.3       1 FAD1335     0.0000 
     44 C3'        21.3000   10.8820   57.9200 C.3       1 FAD1335     0.0000 
     45 O3'        22.2230   11.1920   56.9040 O.3       1 FAD1335     0.0000 
     46 C4'        22.0880   10.7580   59.2260 C.3       1 FAD1335     0.0000 
     47 O4'        21.3190   10.3100   60.3210 O.3       1 FAD1335     0.0000 
     48 C5'        22.6980   12.1080   59.5680 C.3       1 FAD1335     0.0000 
     49 O5'        23.6200   11.8330   60.5570 O.3       1 FAD1335     0.0000 
     50 P          25.1700   12.1860   60.3660 P.3       1 FAD1335     0.0000 
     51 O1P        25.7790   11.8930   61.7260 O.co2     1 FAD1335     0.0000 
     52 O2P        25.7430   11.3770   59.2190 O.co2     1 FAD1335     0.0000 
     53 O3P        25.0550   13.7370   60.0700 O.3       1 FAD1335     0.0000 
     54 H          23.5094   15.6167   60.1589 H         1 FAD1335     0.0000 
     55 H          23.9381   16.0751   58.5018 H         1 FAD1335     0.0000 
     56 H          22.8498   17.9516   59.1850 H         1 FAD1335     0.0000 
     57 H          25.5223   18.3982   59.0853 H         1 FAD1335     0.0000 
     58 H          25.9825   18.3884   61.3100 H         1 FAD1335     0.0000 
     59 H          23.4160   19.7071   61.9551 H         1 FAD1335     0.0000 
     60 H          25.0505   16.3785   62.9587 H         1 FAD1335     0.0000 
     61 H          24.3742   16.6335   67.4648 H         1 FAD1335     0.0000 
     62 H          23.9317   17.8832   68.6764 H         1 FAD1335     0.0000 
     63 H          22.6678   21.4399   66.1753 H         1 FAD1335     0.0000 
     64 H          14.5380    7.2677   56.3972 H         1 FAD1335     0.0000 
     65 H          20.1355    5.1302   52.8238 H         1 FAD1335     0.0000 
     66 H          21.9788    9.1485   54.8339 H         1 FAD1335     0.0000 
     67 H          19.0099   10.5849   56.4158 H         1 FAD1335     0.0000 
     68 H          20.5517   10.5095   55.5456 H         1 FAD1335     0.0000 
     69 H          21.3148    8.8704   57.2873 H         1 FAD1335     0.0000 
     70 H          20.5788   11.6759   58.0272 H         1 FAD1335     0.0000 
     71 H          22.9312   10.0791   59.0337 H         1 FAD1335     0.0000 
     72 H          21.8952   12.7564   59.8968 H         1 FAD1335     0.0000 
     73 H          23.1428   12.5050   58.6638 H         1 FAD1335     0.0000 
     74 H          23.5992    5.8889   51.9399 H         1 FAD1335     0.0000 
     75 H          22.7863    4.5782   52.3953 H         1 FAD1335     0.0000 
     76 H          22.2789    5.4424   51.1376 H         1 FAD1335     0.0000 
     77 H          24.4261    7.1872   53.5543 H         1 FAD1335     0.0000 
     78 H          23.9366    8.0407   52.2822 H         1 FAD1335     0.0000 
     79 H          24.0482    8.7409   53.7256 H         1 FAD1335     0.0000 
     80 H          24.3350   20.6456   59.8274 H         1 FAD1335     0.0000 
     81 H          26.5479   20.4128   61.4208 H         1 FAD1335     0.0000 
     82 H          20.0633    9.5074   59.3440 H         1 FAD1335     0.0000 
     83 H          23.0827   10.7753   57.1995 H         1 FAD1335     0.0000 
     84 H          21.4313   11.0148   61.0215 H         1 FAD1335     0.0000 
@<TRIPOS>BOND
     1    2    1 ar   
     2    3    1 ar   
     3    4    1 1    
     4   53    1 1    
     5    5    4 1    
     6    6    5 1    
     7   54    5 1    
     8   55    5 1    
     9    7    6 1    
    10    8    6 1    
    11   56    6 1    
    12   12    7 1    
    13    9    8 1    
    14   10    8 1    
    15   57    8 1    
    16   80    9 1    
    17   11   10 1    
    18   12   10 1    
    19   58   10 1    
    20   81   11 1    
    21   13   12 1    
    22   59   12 1    
    23   14   13 1    
    24   22   13 1    
    25   15   14 2    
    26   60   14 1    
    27   16   15 1    
    28   17   16 ar   
    29   22   16 ar   
    30   18   17 1    
    31   19   17 ar   
    32   61   18 1    
    33   62   18 1    
    34   20   19 ar   
    35   21   20 ar   
    36   63   20 1    
    37   22   21 ar   
    38   24   23 1    
    39   40   23 2    
    40   25   24 2    
    41   26   24 am   
    42   27   26 am   
    43   64   26 1    
    44   28   27 2    
    45   29   27 1    
    46   30   29 2    
    47   40   29 1    
    48   31   30 1    
    49   32   31 ar   
    50   38   31 ar   
    51   33   32 ar   
    52   65   32 1    
    53   34   33 1    
    54   35   33 ar   
    55   74   34 1    
    56   75   34 1    
    57   76   34 1    
    58   36   35 1    
    59   37   35 ar   
    60   77   36 1    
    61   78   36 1    
    62   79   36 1    
    63   38   37 ar   
    64   66   37 1    
    65   39   38 1    
    66   40   39 1    
    67   41   39 1    
    68   42   41 1    
    69   67   41 1    
    70   68   41 1    
    71   43   42 1    
    72   44   42 1    
    73   69   42 1    
    74   82   43 1    
    75   45   44 1    
    76   46   44 1    
    77   70   44 1    
    78   83   45 1    
    79   47   46 1    
    80   48   46 1    
    81   71   46 1    
    82   84   47 1    
    83   49   48 1    
    84   72   48 1    
    85   73   48 1    
    86   50   49 1    
    87   51   50 ar   
    88   52   50 ar   
    89   53   50 1    
@<TRIPOS>SUBSTRUCTURE
     1 FAD1335     1 GROUP   
@<TRIPOS>SET

