#    Name: 3kdt_7HA_1_INTS_M
#    Modification time : Mon Mar 24 19:19:01 2014

@<TRIPOS>MOLECULE
3kdt_7HA_1_INTS_M
   92     0     6     0     0
SMALL
NO_CHARGES


@<TRIPOS>ATOM
      1 CA          1.6460   18.0960   -6.4720 C.3       2 GLC5        0.0000 
      2 CA          0.7750   17.1400   -8.1040 C.3       6 GLL5        0.0000 
      3 CA          2.5170   19.0520   -4.8400 C.3       4 GLP5        0.0000 
      4 CA         -0.7555   18.5195   -8.2040 C.3       2 GLC5        0.0000 
      5 CA         -2.2860   19.8990   -8.3040 C.3       4 GLP5        0.0000 
      6 CA         -0.7620   16.9760   -6.9465 C.3       2 GLC5        0.0000 
      7 CA         -2.2990   16.8120   -5.7890 C.3       4 GLP5        0.0000 
      8 CA          4.4095   19.0930  -10.3650 C.3       2 GLC5        0.0000 
      9 CA          3.4880   18.4620  -12.0520 C.3       6 GLL5        0.0000 
     10 CA          5.3310   19.7240   -8.6780 C.3       4 GLP5        0.0000 
     11 CA          0.5875   18.9595  -13.4370 C.3       2 GLC5        0.0000 
     12 CA          2.6210   18.8410  -13.0830 C.3       6 GLL5        0.0000 
     13 CA         -1.4460   19.0780  -13.7910 C.3       4 GLP5        0.0000 
     14 CA          4.0950   21.8000  -13.7050 C.3       2 GLC5        0.0000 
     15 CA          4.5300   19.7200  -14.2870 C.3       6 GLL5        0.0000 
     16 CA          3.6600   23.8800  -13.1230 C.3       4 GLP5        0.0000 
     17 CA          5.4545   22.4765  -16.0005 C.3       2 GLC5        0.0000 
     18 CA          5.2700   20.4970  -15.6560 C.3       6 GLL5        0.0000 
     19 CA          5.6390   24.4560  -16.3450 C.3       4 GLP5        0.0000 
     20 CA          4.2715   20.5425  -17.4835 C.3       2 GLC5        0.0000 
     21 CA          3.2730   20.5880  -19.3110 C.3       4 GLP5        0.0000 
     22 CA          6.4440   19.0810  -16.4120 C.3       2 GLC5        0.0000 
     23 CA          7.6180   17.6650  -17.1680 C.3       4 GLP5        0.0000 
     24 CA          4.7440   18.3720  -15.6720 C.3       2 GLC5        0.0000 
     25 CA          4.2180   16.2470  -15.6880 C.3       4 GLP5        0.0000 
     26 CA          5.3455   14.4375   -8.5200 C.3       2 GLC5        0.0000 
     27 CA          3.7690   15.7740   -7.8760 C.3       6 GLL5        0.0000 
     28 CA          6.9220   13.1010   -9.1640 C.3       4 GLP5        0.0000 
     29 CA          4.5500   17.7490   -8.2770 C.3       2 GLC5        0.0000 
     30 CA          1.3615   15.0930   -5.3680 C.3       2 GLC5        0.0000 
     31 CA          2.7930   13.9700   -6.5350 C.3       6 GLL5        0.0000 
     32 CA         -0.0700   16.2160   -4.2010 C.3       4 GLP5        0.0000 
     33 CA          0.2025   14.2765   -5.8200 C.3       2 GLC5        0.0000 
     34 CA          1.6850   13.1370   -6.3850 C.3       6 GLL5        0.0000 
     35 CA         -1.2800   15.4160   -5.2550 C.3       4 GLP5        0.0000 
     36 CA          0.6445   10.9545   -3.7050 C.3       2 GLC5        0.0000 
     37 CA          0.6280   11.0050   -5.5240 C.3       6 GLL5        0.0000 
     38 CA          0.6610   10.9040   -1.8860 C.3       4 GLP5        0.0000 
     39 CA          1.0810   11.3045   -8.9500 C.3       2 GLC5        0.0000 
     40 CA          1.1580    9.7170   -7.6680 C.3       6 GLL5        0.0000 
     41 CA          1.0040   12.8920  -10.2320 C.3       4 GLP5        0.0000 
     42 CA          2.2080    9.5180   -9.6205 C.3       2 GLC5        0.0000 
     43 CA          3.2580    9.3190  -11.5730 C.3       4 GLP5        0.0000 
     44 CA          2.9385    9.1910   -7.5200 C.3       2 GLC5        0.0000 
     45 CA          4.7190    8.6650   -7.3720 C.3       4 GLP5        0.0000 
     46 N           2.9540    7.7960   -8.0810 N.am      1 SEC2        0.0000 
     47 N           1.8000    7.4600   -7.6350 N.am      5 SEL2        0.0000 
     48 N           4.1080    8.1320   -8.5270 N.am      3 SEP2        0.0000 
     49 N           1.6450    6.2435   -7.0455 N.am      1 SEC2        0.0000 
     50 N           1.4900    5.0270   -6.4560 N.am      3 SEP2        0.0000 
     51 N           0.6115    6.4280   -6.7035 N.am      1 SEC2        0.0000 
     52 N          -0.2670    7.8290   -6.9510 N.am      5 SEL2        0.0000 
     53 N          -1.2550    8.1665   -5.9130 N.am      1 SEC2        0.0000 
     54 N          -2.2430    8.5040   -4.8750 N.am      3 SEP2        0.0000 
     55 N          -0.8480    6.4620   -6.3175 N.am      1 SEC2        0.0000 
     56 N          -1.4290    5.0950   -5.6840 N.am      3 SEP2        0.0000 
     57 CA         -3.5405    9.9255  -10.1610 C.3       2 GLC5        0.0000 
     58 CA         -2.0690    9.6790   -9.0220 C.3       6 GLL5        0.0000 
     59 CA         -5.0120   10.1720  -11.3000 C.3       4 GLP5        0.0000 
     60 CA         -0.5510    8.9750  -10.5190 C.3       2 GLC5        0.0000 
     61 CA          0.9670    8.2710  -12.0160 C.3       4 GLP5        0.0000 
     62 CA         -3.2060    8.3005   -8.4235 C.3       2 GLC5        0.0000 
     63 CA         -4.3430    6.9220   -7.8250 C.3       4 GLP5        0.0000 
     64 CA         -0.1065   17.3573  -10.1992 C.3       2 GLC5        0.0000 
     65 CA         -1.5690   17.5220  -11.8140 C.3       4 GLP5        0.0000 
     66 CA          0.8210   15.8313   -9.1288 C.3       2 GLC5        0.0000 
     67 CA          0.2860   14.4700   -9.6730 C.3       4 GLP5        0.0000 
     68 CA          3.9525   18.3392   -8.8445 C.3       2 GLC5        0.0000 
     69 CA          1.9370   17.2450   -9.0650 C.3       6 GLL5        0.0000 
     70 CA          1.8880   15.3445   -9.0448 C.3       2 GLC5        0.0000 
     71 CA          3.2110   16.6640   -8.9570 C.3       6 GLL5        0.0000 
     72 CA          3.7500   17.1450   -6.6193 C.3       2 GLC5        0.0000 
     73 CA          4.0100   18.0710   -4.8220 C.3       4 GLP5        0.0000 
     74 CA          4.4153   17.8608  -14.7194 C.3       2 GLC5        0.0000 
     75 CA          3.1520   19.4660  -14.2120 C.3       6 GLL5        0.0000 
     76 CA          5.8438   19.6063  -11.0708 C.3       2 GLC5        0.0000 
     77 CA          5.3840   19.3560  -13.2520 C.3       6 GLL5        0.0000 
     78 CA          6.5690   20.1660   -9.4460 C.3       4 GLP5        0.0000 
     79 CA          3.5554   17.1031  -13.3981 C.3       2 GLC5        0.0000 
     80 CA          4.8530   18.7370  -12.1390 C.3       6 GLL5        0.0000 
     81 CA          3.1570   15.5120  -14.4430 C.3       4 GLP5        0.0000 
     82 CA          1.2625   14.0117   -8.0665 C.3       2 GLC5        0.0000 
     83 CA          5.8000   13.2130   -6.7092 C.3       2 GLC5        0.0000 
     84 CA          4.0260   13.6090   -5.9810 C.3       6 GLL5        0.0000 
     85 CA          7.5250   13.4160   -7.7790 C.3       4 GLP5        0.0000 
     86 CA          4.4905   14.0985   -4.1318 C.3       2 GLC5        0.0000 
     87 CA          4.9060   15.1870   -2.6240 C.3       4 GLP5        0.0000 
     88 CA          4.1457   10.3305   -6.2985 C.3       2 GLC5        0.0000 
     89 CA          4.1240   12.4110   -5.2980 C.3       6 GLL5        0.0000 
     90 CA          4.2103   11.0310   -3.7795 C.3       2 GLC5        0.0000 
     91 CA          3.0210   11.5810   -5.1520 C.3       6 GLL5        0.0000 
     92 CA          4.8480   10.0660   -2.3340 C.3       4 GLP5        0.0000 
@<TRIPOS>BOND
@<TRIPOS>SUBSTRUCTURE
     1 SEC2       46 GROUP        1 X    SEC  0     ROOT SEC X 2
     2 GLC5        1 GROUP        1 X    GLC  0     **** GLC X 6
     3 SEP2       48 GROUP        1 Y    SEP  0     ROOT SEP Y 9
     4 GLP5        3 GROUP        1 Y    GLP  0     **** GLP Y 13
     5 SEL2       47 GROUP        1 Z    SEL  0     ROOT SEL Z 16
     6 GLL5        2 GROUP        1 Z    GLL  0     **** GLL Z 20
@<TRIPOS>SET

