#    Name: 3kdt_7HA_1_ligand
#    Modification time : Mon Mar 24 19:19:01 2014

@<TRIPOS>MOLECULE
3kdt_7HA_1_ligand
   51    53     1     0     0
SMALL
NO_CHARGES


@<TRIPOS>ATOM
      1 C1          0.7750   17.1400   -8.1040 C.3       1 7HA501      0.0000 
      2 C2          1.9370   17.2450   -9.0650 C.2       1 7HA501      0.0000 
      3 C3          3.2110   16.6640   -8.9570 C.2       1 7HA501      0.0000 
      4 N4          3.8940   17.0490  -10.0430 N.2       1 7HA501      0.0000 
      5 C5          3.0600   17.8140  -10.7780 C.2       1 7HA501      0.0000 
      6 O6          1.9200   17.9160  -10.1670 O.3       1 7HA501      0.0000 
      7 C7          3.4880   18.4620  -12.0520 C.ar      1 7HA501      0.0000 
      8 C8          2.6210   18.8410  -13.0830 C.ar      1 7HA501      0.0000 
      9 C9          3.1520   19.4660  -14.2120 C.ar      1 7HA501      0.0000 
     10 C10         4.5300   19.7200  -14.2870 C.ar      1 7HA501      0.0000 
     11 C11         5.3840   19.3560  -13.2520 C.ar      1 7HA501      0.0000 
     12 C12         4.8530   18.7370  -12.1390 C.ar      1 7HA501      0.0000 
     13 CL13        5.2700   20.4970  -15.6560 Cl        1 7HA501      0.0000 
     14 C14         3.7690   15.7740   -7.8760 C.3       1 7HA501      0.0000 
     15 O15         2.6810   15.1100   -7.1990 O.3       1 7HA501      0.0000 
     16 C16         2.7930   13.9700   -6.5350 C.ar      1 7HA501      0.0000 
     17 C17         4.0260   13.6090   -5.9810 C.ar      1 7HA501      0.0000 
     18 C18         4.1240   12.4110   -5.2980 C.ar      1 7HA501      0.0000 
     19 C19         3.0210   11.5810   -5.1520 C.ar      1 7HA501      0.0000 
     20 C20         1.7900   11.9430   -5.6830 C.ar      1 7HA501      0.0000 
     21 C21         1.6850   13.1370   -6.3850 C.ar      1 7HA501      0.0000 
     22 C22         0.6280   11.0050   -5.5240 C.3       1 7HA501      0.0000 
     23 N23         0.2710   10.5680   -6.8690 N.am      1 7HA501      0.0000 
     24 C24         1.1580    9.7170   -7.6680 C.3       1 7HA501      0.0000 
     25 C25         0.9050    8.2530   -7.4100 C.2       1 7HA501      0.0000 
     26 O26         1.8000    7.4600   -7.6350 O.co2     1 7HA501      0.0000 
     27 O27        -0.2670    7.8290   -6.9510 O.co2     1 7HA501      0.0000 
     28 C28        -0.8670   11.0040   -7.4070 C.2       1 7HA501      0.0000 
     29 O29        -1.6470   11.6520   -6.7330 O.2       1 7HA501      0.0000 
     30 O30        -1.1360   10.7410   -8.6810 O.3       1 7HA501      0.0000 
     31 C31        -2.0690    9.6790   -9.0220 C.3       1 7HA501      0.0000 
     32 H           1.6219   18.6633  -13.0091 H         1 7HA501      0.0000 
     33 H           2.5400   19.7402  -14.9864 H         1 7HA501      0.0000 
     34 H           6.3857   19.5455  -13.3189 H         1 7HA501      0.0000 
     35 H           5.4721   18.4696  -11.3520 H         1 7HA501      0.0000 
     36 H           4.3481   16.3904   -7.1820 H         1 7HA501      0.0000 
     37 H           4.4475   15.0500   -8.3369 H         1 7HA501      0.0000 
     38 H           4.8333   14.2237   -6.0833 H         1 7HA501      0.0000 
     39 H           5.0325   12.1264   -4.8884 H         1 7HA501      0.0000 
     40 H           3.1164   10.6866   -4.6442 H         1 7HA501      0.0000 
     41 H           0.7812   13.4116   -6.7995 H         1 7HA501      0.0000 
     42 H          -0.1926   11.5311   -5.0575 H         1 7HA501      0.0000 
     43 H           0.9287   10.1668   -4.9119 H         1 7HA501      0.0000 
     44 H           2.2117    9.9385   -7.4362 H         1 7HA501      0.0000 
     45 H           1.0136    9.9155   -8.7417 H         1 7HA501      0.0000 
     46 H           1.0080   17.4964   -7.1992 H         1 7HA501      0.0000 
     47 H          -0.0204   17.6537   -8.4255 H         1 7HA501      0.0000 
     48 H           0.4809   16.1924   -7.9789 H         1 7HA501      0.0000 
     49 H          -2.1798    9.5855  -10.0114 H         1 7HA501      0.0000 
     50 H          -1.7642    8.7916   -8.6760 H         1 7HA501      0.0000 
     51 H          -2.9778    9.8462   -8.6398 H         1 7HA501      0.0000 
@<TRIPOS>BOND
     1    2    1 1    
     2   46    1 1    
     3   47    1 1    
     4   48    1 1    
     5    3    2 2    
     6    6    2 1    
     7    4    3 1    
     8   14    3 1    
     9    5    4 2    
    10    6    5 1    
    11    7    5 1    
    12    8    7 ar   
    13   12    7 ar   
    14    9    8 ar   
    15   32    8 1    
    16   10    9 ar   
    17   33    9 1    
    18   11   10 ar   
    19   13   10 1    
    20   12   11 ar   
    21   34   11 1    
    22   35   12 1    
    23   15   14 1    
    24   36   14 1    
    25   37   14 1    
    26   16   15 1    
    27   17   16 ar   
    28   21   16 ar   
    29   18   17 ar   
    30   38   17 1    
    31   19   18 ar   
    32   39   18 1    
    33   20   19 ar   
    34   40   19 1    
    35   21   20 ar   
    36   22   20 1    
    37   41   21 1    
    38   23   22 1    
    39   42   22 1    
    40   43   22 1    
    41   24   23 1    
    42   28   23 am   
    43   25   24 1    
    44   44   24 1    
    45   45   24 1    
    46   26   25 ar   
    47   27   25 ar   
    48   29   28 2    
    49   30   28 1    
    50   31   30 1    
    51   49   31 1    
    52   50   31 1    
    53   51   31 1    
@<TRIPOS>SUBSTRUCTURE
     1 7HA501      1 GROUP   
@<TRIPOS>SET

