#    Name: 1jr4_CL4_1_INTS_M
#    Modification time : Tue Mar 25 09:18:18 2014

@<TRIPOS>MOLECULE
1jr4_CL4_1_INTS_M
   99     0    12     0     0
SMALL
NO_CHARGES


@<TRIPOS>ATOM
      1 CA         42.5015   10.9925   19.3075 C.3       4 GLC5        0.0000 
      2 CA         40.8130   10.9260   19.3770 C.3      12 GLL5        0.0000 
      3 CA         44.1900   11.0590   19.2380 C.3       8 GLP5        0.0000 
      4 CA         40.1825   11.6180   21.2670 C.3       4 GLC5        0.0000 
      5 CA         39.5520   12.3100   23.1570 C.3       8 GLP5        0.0000 
      6 CA         40.3005   13.9355   15.1160 C.3       4 GLC5        0.0000 
      7 CA         40.9620   11.9030   15.7080 C.3      12 GLL5        0.0000 
      8 CA         39.6390   15.9680   14.5240 C.3       8 GLP5        0.0000 
      9 O          40.8860   11.8540   12.6620 O.2       1 ALC1        0.0000 
     10 O          41.1010   10.7370   13.6050 O.2       9 ALL1        0.0000 
     11 O          40.6710   12.9710   11.7190 O.2       5 ALP1        0.0000 
     12 O          43.2280   12.2525   12.4745 O.2       1 ALC1        0.0000 
     13 O          43.6010   11.3710   13.3660 O.2       9 ALL1        0.0000 
     14 O          42.8550   13.1340   11.5830 O.2       5 ALP1        0.0000 
     15 CA         41.1110   14.6000   14.5425 C.3       4 GLC5        0.0000 
     16 CA         42.5830   13.2320   14.5610 C.3      12 GLL5        0.0000 
     17 CA         44.5850   13.5985   13.6640 C.3       4 GLC5        0.0000 
     18 CA         46.5870   13.9650   12.7670 C.3       8 GLP5        0.0000 
     19 CA         42.1930   14.6140   16.1660 C.3       4 GLC5        0.0000 
     20 CA         41.8030   15.9960   17.7710 C.3       8 GLP5        0.0000 
     21 CA         46.7085   17.9710   14.1100 C.3       4 GLC5        0.0000 
     22 CA         45.5510   17.0950   15.5780 C.3      12 GLL5        0.0000 
     23 CA         47.8660   18.8470   12.6420 C.3       8 GLP5        0.0000 
     24 CA         45.2705   19.1025   15.6655 C.3       4 GLC5        0.0000 
     25 CA         44.9900   21.1100   15.7530 C.3       8 GLP5        0.0000 
     26 CA         44.3695   17.6165   16.9190 C.3       4 GLC5        0.0000 
     27 CA         43.1880   18.1380   18.2600 C.3       8 GLP5        0.0000 
     28 O          46.1475   19.1320   16.6425 O.2       1 ALC1        0.0000 
     29 O          46.5070   17.5570   16.4370 O.2       9 ALL1        0.0000 
     30 O          45.7880   20.7070   16.8480 O.2       5 ALP1        0.0000 
     31 N          45.7850   19.0410   14.2510 N.am      2 SEC2        0.0000 
     32 N          45.1720   17.8620   14.5270 N.am     10 SEL2        0.0000 
     33 N          46.3980   20.2200   13.9750 N.am      6 SEP2        0.0000 
     34 CA         43.1590   18.9590   12.6370 C.3       4 GLC5        0.0000 
     35 CA         44.2510   17.3810   13.6450 C.3      12 GLL5        0.0000 
     36 CA         42.0670   20.5370   11.6290 C.3       8 GLP5        0.0000 
     37 CA         43.2895   16.7145   12.0235 C.3       4 GLC5        0.0000 
     38 CA         42.3280   16.0480   10.4020 C.3       8 GLP5        0.0000 
     39 CA         45.5770   16.2240   12.7060 C.3       4 GLC5        0.0000 
     40 CA         46.9030   15.0670   11.7670 C.3       8 GLP5        0.0000 
     41 CA         46.0585   18.1140   13.1435 C.3       4 GLC5        0.0000 
     42 CA         44.6205   19.2455   14.6990 C.3       4 GLC5        0.0000 
     43 N          44.1505   15.7465   12.2840 N.am      2 SEC2        0.0000 
     44 N          43.6790   16.1780   13.7150 N.am     10 SEL2        0.0000 
     45 N          44.6220   15.3150   10.8530 N.am      6 SEP2        0.0000 
     46 CA         41.8310   15.6920   14.6500 C.3       4 GLC5        0.0000 
     47 CA         44.0230   15.4160   14.7760 C.3      12 GLL5        0.0000 
     48 CA         45.3050   14.6905   13.7715 C.3       4 GLC5        0.0000 
     49 CA         36.0985   11.0180   23.4955 C.3       4 GLC5        0.0000 
     50 CA         35.9130    9.5000   21.8640 C.3      12 GLL5        0.0000 
     51 CA         36.2840   12.5360   25.1270 C.3       8 GLP5        0.0000 
     52 CA         34.4910    7.9400   24.0665 C.3       4 GLC5        0.0000 
     53 CA         35.8390    8.3520   22.6510 C.3      12 GLL5        0.0000 
     54 CA         33.1430    7.5280   25.4820 C.3       8 GLP5        0.0000 
     55 CA         38.6635    8.2820   24.0585 C.3       4 GLC5        0.0000 
     56 CA         38.2630    8.0290   22.3890 C.3      12 GLL5        0.0000 
     57 CA         39.0640    8.5350   25.7280 C.3       8 GLP5        0.0000 
     58 CA         38.0870    9.3020   23.6860 C.3       4 GLC5        0.0000 
     59 CA         38.3330    9.1820   21.5930 C.3      12 GLL5        0.0000 
     60 CA         37.8410    9.4220   25.7790 C.3       8 GLP5        0.0000 
     61 Zn         34.9485   11.1630   21.2215 Zn        3 ZIC7        0.0000 
     62 Zn         34.8250   10.2650   21.5980 Zn       11 ZIL7        0.0000 
     63 Zn         35.0720   12.0610   20.8450 Zn        7 ZIP7        0.0000 
     64 N          34.7235   10.7180   22.8310 N.am      2 SEC2        0.0000 
     65 N          34.8250   10.2650   21.5980 N.am     10 SEL2        0.0000 
     66 N          34.6220   11.1710   24.0640 N.am      6 SEP2        0.0000 
     67 N          34.0415    9.1045   21.2000 N.am      2 SEC2        0.0000 
     68 N          33.2580    7.9440   20.8020 N.am      6 SEP2        0.0000 
     69 Zn         36.1055   11.5470   20.6965 Zn        3 ZIC7        0.0000 
     70 Zn         37.1390   11.0330   20.5480 Zn       11 ZIL7        0.0000 
     71 N          37.9660   12.0435   21.3240 N.am      2 SEC2        0.0000 
     72 N          37.1390   11.0330   20.5480 N.am     10 SEL2        0.0000 
     73 N          38.7930   13.0540   22.1000 N.am      6 SEP2        0.0000 
     74 CA         40.7845   13.0303   18.6378 C.3       4 GLC5        0.0000 
     75 CA         40.4570   11.1030   17.9400 C.3      12 GLL5        0.0000 
     76 CA         40.9340   15.0460   18.6170 C.3       8 GLP5        0.0000 
     77 CA         42.4205   10.6345   18.0392 C.3       4 GLC5        0.0000 
     78 CA         43.9590    9.8680   18.5510 C.3       8 GLP5        0.0000 
     79 CA         40.0545    9.5804   17.7934 C.3       4 GLC5        0.0000 
     80 CA         41.3070   11.6990   17.1150 C.3      12 GLL5        0.0000 
     81 CA         39.1380    7.8040   17.7000 C.3       8 GLP5        0.0000 
     82 CA         41.0343   13.4235   17.5143 C.3       4 GLC5        0.0000 
     83 CA         42.2242   10.1887   13.0445 C.3       4 GLC5        0.0000 
     84 CA         41.7760   10.9640   14.8470 C.3      12 GLL5        0.0000 
     85 CA         42.0310    9.0190   11.3550 C.3       8 GLP5        0.0000 
     86 CA         43.6427   10.3777   16.1615 C.3       4 GLC5        0.0000 
     87 CA         44.8680    9.3970   17.5890 C.3       8 GLP5        0.0000 
     88 CA         46.4603   15.2297   14.9413 C.3       4 GLC5        0.0000 
     89 CA         44.9500   15.8060   15.7450 C.3      12 GLL5        0.0000 
     90 CA         47.6700   14.0090   14.2210 C.3       8 GLP5        0.0000 
     91 CA         43.1448   15.8035   16.5157 C.3       4 GLC5        0.0000 
     92 CA         36.5700    8.4603   20.1060 C.3       4 GLC5        0.0000 
     93 CA         37.1450    9.9130   21.3220 C.3      12 GLL5        0.0000 
     94 CA         36.6110    7.2140   18.6190 C.3       8 GLP5        0.0000 
     95 CA         38.6455   10.9288   22.3072 C.3       4 GLC5        0.0000 
     96 CA         36.5210    7.6028   20.6947 C.3       4 GLC5        0.0000 
     97 CA         37.1453    8.8502   24.1764 C.3       4 GLC5        0.0000 
     98 CA         37.0230    7.6310   22.8900 C.3      12 GLL5        0.0000 
     99 CA         37.4545    7.9098   20.3050 C.3       4 GLC5        0.0000 
@<TRIPOS>BOND
@<TRIPOS>SUBSTRUCTURE
     1 ALC1        9 GROUP        1 X    ALC  0     ROOT ALC X 1
     2 SEC2       31 GROUP        1 X    SEC  0     **** SEC X 2
     3 ZIC7       61 GROUP        1 X    ZIC  0     **** ZIC X 5
     4 GLC5        1 GROUP        1 X    GLC  0     **** GLC X 6
     5 ALP1       11 GROUP        1 Y    ALP  0     ROOT ALP Y 8
     6 SEP2       33 GROUP        1 Y    SEP  0     **** SEP Y 9
     7 ZIP7       63 GROUP        1 Y    ZIP  0     **** ZIP Y 12
     8 GLP5        3 GROUP        1 Y    GLP  0     **** GLP Y 13
     9 ALL1       10 GROUP        1 Z    ALL  0     ROOT ALL Z 15
    10 SEL2       32 GROUP        1 Z    SEL  0     **** SEL Z 16
    11 ZIL7       62 GROUP        1 Z    ZIL  0     **** ZIL Z 19
    12 GLL5        2 GROUP        1 Z    GLL  0     **** GLL Z 20
@<TRIPOS>SET

