#    Name: 1jr4_CL4_1_ligand
#    Modification time : Tue Mar 25 09:18:18 2014

@<TRIPOS>MOLECULE
1jr4_CL4_1_ligand
   51    54     1     0     0
SMALL
NO_CHARGES


@<TRIPOS>ATOM
      1 C1         40.4570   11.1030   17.9400 C.2       1 CL4301      0.0000 
      2 C2         40.8130   10.9260   19.3770 C.3       1 CL4301      0.0000 
      3 N3         39.6320   10.5730   20.1280 N.am      1 CL4301      0.0000 
      4 C4         41.3070   11.6990   17.1150 C.2       1 CL4301      0.0000 
      5 C5         40.9620   11.9030   15.7080 C.3       1 CL4301      0.0000 
      6 O6         41.3790   13.2520   15.3570 O.3       1 CL4301      0.0000 
      7 C7         41.7760   10.9640   14.8470 C.3       1 CL4301      0.0000 
      8 O8         41.1010   10.7370   13.6050 O.3       1 CL4301      0.0000 
      9 C9         43.0590   11.7530   14.6210 C.3       1 CL4301      0.0000 
     10 O10        43.6010   11.3710   13.3660 O.3       1 CL4301      0.0000 
     11 C11        42.5830   13.2320   14.5610 C.3       1 CL4301      0.0000 
     12 N12        43.5930   14.1490   15.1510 N.pl3     1 CL4301      0.0000 
     13 C13        44.2900   13.8680   16.3360 C.2       1 CL4301      0.0000 
     14 N14        45.1050   14.8480   16.6960 N.2       1 CL4301      0.0000 
     15 C15        44.9500   15.8060   15.7450 C.ar      1 CL4301      0.0000 
     16 C16        45.5510   17.0950   15.5780 C.ar      1 CL4301      0.0000 
     17 N17        46.5070   17.5570   16.4370 N.pl3     1 CL4301      0.0000 
     18 N18        45.1720   17.8620   14.5270 N.ar      1 CL4301      0.0000 
     19 C19        44.2510   17.3810   13.6450 C.ar      1 CL4301      0.0000 
     20 N20        43.6790   16.1780   13.7150 N.ar      1 CL4301      0.0000 
     21 C21        44.0230   15.4160   14.7760 C.ar      1 CL4301      0.0000 
     22 C22        37.1450    9.9130   21.3220 C.ar      1 CL4301      0.0000 
     23 C23        35.9130    9.5000   21.8640 C.ar      1 CL4301      0.0000 
     24 C24        35.8390    8.3520   22.6510 C.ar      1 CL4301      0.0000 
     25 C25        37.0230    7.6310   22.8900 C.ar      1 CL4301      0.0000 
     26 C26        38.2630    8.0290   22.3890 C.ar      1 CL4301      0.0000 
     27 C27        38.3330    9.1820   21.5930 C.ar      1 CL4301      0.0000 
     28 O28        34.8250   10.2650   21.5980 O.3       1 CL4301      0.0000 
     29 O29        37.1390   11.0330   20.5480 O.3       1 CL4301      0.0000 
     30 C30        39.6220    9.5870   21.0460 C.2       1 CL4301      0.0000 
     31 O31        40.6820    9.1020   21.4150 O.2       1 CL4301      0.0000 
     32 N32        36.9410    6.4080   23.6890 N.pl3     1 CL4301      0.0000 
     33 O33        35.8180    5.9400   23.9230 O.2       1 CL4301      0.0000 
     34 O34        37.9660    5.8920   24.1700 O.2       1 CL4301      0.0000 
     35 H          39.5399   10.7395   17.6622 H         1 CL4301      0.0000 
     36 H          41.2499   11.8597   19.7528 H         1 CL4301      0.0000 
     37 H          41.5771   10.1429   19.4603 H         1 CL4301      0.0000 
     38 H          38.7697   11.1287   19.9220 H         1 CL4301      0.0000 
     39 H          42.2355   12.0438   17.4099 H         1 CL4301      0.0000 
     40 H          39.9407   11.7606   15.5302 H         1 CL4301      0.0000 
     41 H          41.9951   10.0990   15.3885 H         1 CL4301      0.0000 
     42 H          43.6920   11.6327   15.4326 H         1 CL4301      0.0000 
     43 H          42.3786   13.4688   13.5521 H         1 CL4301      0.0000 
     44 H          44.1575   13.0159   16.8205 H         1 CL4301      0.0000 
     45 H          47.1170   16.8680   16.8282 H         1 CL4301      0.0000 
     46 H          46.5130   18.5437   16.5993 H         1 CL4301      0.0000 
     47 H          43.9711   18.0310   12.8331 H         1 CL4301      0.0000 
     48 H          34.9588    8.0402   23.0432 H         1 CL4301      0.0000 
     49 H          39.1037    7.4946   22.5954 H         1 CL4301      0.0000 
     50 H          41.0641   11.6333   13.1631 H         1 CL4301      0.0000 
     51 H          43.7358   12.2291   12.8705 H         1 CL4301      0.0000 
@<TRIPOS>BOND
     1    2    1 1    
     2    4    1 2    
     3   35    1 1    
     4    3    2 1    
     5   36    2 1    
     6   37    2 1    
     7   30    3 am   
     8   38    3 1    
     9    5    4 1    
    10   39    4 1    
    11    6    5 1    
    12    7    5 1    
    13   40    5 1    
    14   11    6 1    
    15    8    7 1    
    16    9    7 1    
    17   41    7 1    
    18   50    8 1    
    19   10    9 1    
    20   11    9 1    
    21   42    9 1    
    22   51   10 1    
    23   12   11 1    
    24   43   11 1    
    25   13   12 1    
    26   21   12 1    
    27   14   13 2    
    28   44   13 1    
    29   15   14 1    
    30   16   15 ar   
    31   21   15 ar   
    32   17   16 1    
    33   18   16 ar   
    34   45   17 1    
    35   46   17 1    
    36   19   18 ar   
    37   20   19 ar   
    38   47   19 1    
    39   21   20 ar   
    40   23   22 ar   
    41   27   22 ar   
    42   29   22 1    
    43   24   23 ar   
    44   28   23 1    
    45   25   24 ar   
    46   48   24 1    
    47   26   25 ar   
    48   32   25 1    
    49   27   26 ar   
    50   49   26 1    
    51   30   27 1    
    52   31   30 2    
    53   33   32 2    
    54   34   32 2    
@<TRIPOS>SUBSTRUCTURE
     1 CL4301      1 GROUP   
@<TRIPOS>SET

