#    Name: 2WIB_1_CAVITY_N1_6.mol2
#    Modification time : Mon Mar 10 20:00:19 2014

@<TRIPOS>MOLECULE
2WIB_1_CAVITY_N1_6.mol2
   66     0     6     0     0
SMALL
NO_CHARGES


@<TRIPOS>ATOM
      1 OG         12.3011   41.9942   24.0046 O.2       1 SER1        0.0000 
      2 N          12.2563   44.5778   24.2750 N.2       2 ALA2        0.0000 
      3 CA         13.3211   43.6690   24.8137 C.3       5 GLY6        0.0000 
      4 N          12.2921   43.8445   22.9670 N.2       2 ALA2        0.0000 
      5 OG         13.3570   42.9357   23.5057 O.2       1 SER1        0.0000 
      6 OG         14.4218   42.0269   24.0444 O.2       1 SER1        0.0000 
      7 OG         12.3280   43.1111   21.6589 O.2       1 SER1        0.0000 
      8 CA         14.3770   44.6104   24.3148 C.3       5 GLY6        0.0000 
      9 CA         15.4418   43.7016   24.8535 C.3       5 GLY6        0.0000 
     10 CA         13.3480   44.7859   22.4681 C.3       5 GLY6        0.0000 
     11 OG         14.4128   43.8771   23.0068 O.2       1 SER1        0.0000 
     12 OG         15.4777   42.9683   23.5455 O.2       1 SER1        0.0000 
     13 DU         16.5425   42.0595   24.0842 H         6 CUB7        0.0000 
     14 DU         17.6073   41.1507   24.6229 H         6 CUB7        0.0000 
     15 N          18.6722   40.2419   25.1617 N.2       2 ALA2        0.0000 
     16 CA         13.3839   44.0525   21.1601 C.3       5 GLY6        0.0000 
     17 OG         14.4487   43.1437   21.6988 O.2       1 SER1        0.0000 
     18 OG         16.5784   41.3261   22.7762 O.2       1 SER1        0.0000 
     19 CA         17.6432   40.4173   23.3149 C.3       5 GLY6        0.0000 
     20 CA         18.7080   39.5085   23.8536 C.3       5 GLY6        0.0000 
     21 NZ         17.5625   43.7343   24.8934 N.2       4 LYS4        0.0000 
     22 NZ         18.6273   42.8255   25.4321 N.2       4 LYS4        0.0000 
     23 N          19.6922   41.9167   25.9708 N.2       2 ALA2        0.0000 
     24 OG         16.5335   43.9097   23.0466 O.2       1 SER1        0.0000 
     25 NZ         17.5984   43.0009   23.5854 N.2       4 LYS4        0.0000 
     26 NZ         18.6632   42.0921   24.1241 N.2       4 LYS4        0.0000 
     27 N          19.7280   41.1833   24.6628 N.2       2 ALA2        0.0000 
     28 OG         15.5045   44.0852   21.1999 O.2       1 SER1        0.0000 
     29 OG         16.5694   43.1764   21.7386 O.2       1 SER1        0.0000 
     30 OG         17.6342   42.2676   22.2773 O.2       1 SER1        0.0000 
     31 CA         18.6991   41.3588   22.8161 C.3       5 GLY6        0.0000 
     32 CA         19.7639   40.4500   23.3548 C.3       5 GLY6        0.0000 
     33 OG         16.6052   42.4430   20.4306 O.2       1 SER1        0.0000 
     34 CA         17.6701   41.5342   20.9693 C.3       5 GLY6        0.0000 
     35 CA         18.7349   40.6254   21.5080 C.3       5 GLY6        0.0000 
     36 OG         16.6411   41.7097   19.1226 O.2       1 SER1        0.0000 
     37 CA         17.7059   40.8009   19.6613 C.3       5 GLY6        0.0000 
     38 CA         20.7122   43.5914   26.7799 C.3       5 GLY6        0.0000 
     39 CA         20.7480   42.8581   25.4719 C.3       5 GLY6        0.0000 
     40 N          21.8129   41.9493   26.0106 N.2       2 ALA2        0.0000 
     41 NZ         20.7839   42.1247   24.1639 N.2       4 LYS4        0.0000 
     42 N          21.8487   41.2159   24.7026 N.2       2 ALA2        0.0000 
     43 O          17.6252   44.1178   21.2398 O.2       2 ALA2        0.0000 
     44 NZ         18.6901   43.2090   21.7785 N.2       4 LYS4        0.0000 
     45 NZ         19.7549   42.3002   22.3172 N.2       4 LYS4        0.0000 
     46 CA         20.8197   41.3914   22.8559 C.3       5 GLY6        0.0000 
     47 CA         21.8846   40.4826   23.3946 C.3       5 GLY6        0.0000 
     48 O          17.6611   43.3844   19.9317 O.2       2 ALA2        0.0000 
     49 CA         18.7259   42.4756   20.4704 C.3       5 GLY6        0.0000 
     50 CA         17.6970   42.6511   18.6237 C.3       5 GLY6        0.0000 
     51 CA         16.6680   42.8265   16.7770 C.3       5 GLY6        0.0000 
     52 CA         17.7328   41.9177   17.3157 C.3       5 GLY6        0.0000 
     53 CA         22.8687   42.8907   25.5118 C.3       5 GLY6        0.0000 
     54 NZ         21.8398   43.0662   23.6650 N.2       4 LYS4        0.0000 
     55 CA         22.9046   42.1574   24.2037 C.3       5 GLY6        0.0000 
     56 CA         23.9694   41.2486   24.7425 C.3       5 GLY6        0.0000 
     57 NZ         20.8108   43.2416   21.8183 N.2       4 LYS4        0.0000 
     58 NZ         21.8756   42.3328   22.3570 N.2       4 LYS4        0.0000 
     59 OD1        22.9404   41.4240   22.8957 O.3       3 ASP3        0.0000 
     60 O          19.7818   43.4171   19.9716 O.2       2 ALA2        0.0000 
     61 CA         17.6880   44.5013   17.5861 C.3       5 GLY6        0.0000 
     62 O          18.7528   43.5925   18.1248 O.2       2 ALA2        0.0000 
     63 OG         17.7238   43.7680   16.2781 O.2       1 SER1        0.0000 
     64 CA         18.7887   42.8592   16.8168 C.3       5 GLY6        0.0000 
     65 NZ         21.8666   44.1830   21.3194 N.2       4 LYS4        0.0000 
     66 CA         22.9315   43.2742   21.8581 C.3       5 GLY6        0.0000 
@<TRIPOS>BOND
@<TRIPOS>SUBSTRUCTURE
     1 SER1        1 GROUP   
     2 ALA2        2 GROUP   
     3 ASP3       59 GROUP   
     4 LYS4       21 GROUP   
     5 GLY6        3 GROUP   
     6 CUB7       13 GROUP   
@<TRIPOS>SET

