#    Name: 2wib_GDP_1_INTS_M
#    Modification time : Tue Mar 25 04:23:28 2014

@<TRIPOS>MOLECULE
2wib_GDP_1_INTS_M
   63     0     9     0     0
SMALL
NO_CHARGES


@<TRIPOS>ATOM
      1 N          15.6255   36.0980   23.3975 N.am      2 SEC2        0.0000 
      2 N          16.6710   36.2760   24.3100 N.am      8 SEL2        0.0000 
      3 N          14.5800   35.9200   22.4850 N.am      5 SEP2        0.0000 
      4 N          15.3745   36.1620   24.7440 N.am      2 SEC2        0.0000 
      5 N          14.0780   36.0480   25.1780 N.am      5 SEP2        0.0000 
      6 N          20.4230   36.2435   23.8120 N.am      2 SEC2        0.0000 
      7 N          19.0520   36.1660   23.4010 N.am      8 SEL2        0.0000 
      8 N          21.7940   36.3210   24.2230 N.am      5 SEP2        0.0000 
      9 N          20.1605   36.4400   22.4415 N.am      2 SEC2        0.0000 
     10 N          21.2690   36.7140   21.4820 N.am      5 SEP2        0.0000 
     11 N          19.0660   36.8215   21.9685 N.am      2 SEC2        0.0000 
     12 N          19.0800   37.4770   20.5360 N.am      5 SEP2        0.0000 
     13 N          18.0690   36.0245   22.1305 N.am      2 SEC2        0.0000 
     14 N          17.0860   35.8830   20.8600 N.am      5 SEP2        0.0000 
     15 N          20.2945   36.4910   24.9420 N.am      2 SEC2        0.0000 
     16 N          18.7950   36.6610   25.6610 N.am      8 SEL2        0.0000 
     17 N          18.6365   37.8490   22.0360 N.am      2 SEC2        0.0000 
     18 N          18.1930   38.2210   23.5360 N.am      8 SEL2        0.0000 
     19 N          15.1135   37.3170   22.5540 N.am      2 SEC2        0.0000 
     20 N          15.6470   38.7140   22.6230 N.am      8 SEL2        0.0000 
     21 N          14.4250   38.3685   22.0905 N.am      2 SEC2        0.0000 
     22 N          13.2030   38.0230   21.5580 N.am      5 SEP2        0.0000 
     23 N          14.9390   39.6615   21.8645 N.am      2 SEC2        0.0000 
     24 N          14.2310   40.6090   21.1060 N.am      5 SEP2        0.0000 
     25 CA         18.2255   39.5950   21.7075 C.3       3 GLC5        0.0000 
     26 CA         18.6090   41.0420   23.1870 C.3       9 GLL5        0.0000 
     27 CA         17.8420   38.1480   20.2280 C.3       6 GLP5        0.0000 
     28 N          16.4680   45.6575   23.0495 N.am      2 SEC2        0.0000 
     29 N          17.2920   44.5000   23.6890 N.am      8 SEL2        0.0000 
     30 N          15.6440   46.8150   22.4100 N.am      5 SEP2        0.0000 
     31 O          16.4680   45.6575   23.0495 O.2       1 ALC1        0.0000 
     32 O          17.2920   44.5000   23.6890 O.2       7 ALL1        0.0000 
     33 O          15.6440   46.8150   22.4100 O.2       4 ALP1        0.0000 
     34 N          15.6695   45.5085   22.1615 N.am      2 SEC2        0.0000 
     35 N          15.6950   44.2020   21.9130 N.am      8 SEL2        0.0000 
     36 CA         19.1210   41.9965   20.2425 C.3       3 GLC5        0.0000 
     37 CA         17.6270   43.2970   20.9760 C.3       9 GLL5        0.0000 
     38 CA         20.6150   40.6960   19.5090 C.3       6 GLP5        0.0000 
     39 N          17.4750   40.0125   17.2975 N.am      2 SEC2        0.0000 
     40 N          17.0600   41.4070   17.9400 N.am      8 SEL2        0.0000 
     41 N          17.8900   38.6180   16.6550 N.am      5 SEP2        0.0000 
     42 CA         19.1905   41.8960   17.0415 C.3       3 GLC5        0.0000 
     43 CA         17.5730   42.5030   17.4060 C.3       9 GLL5        0.0000 
     44 CA         20.8080   41.2890   16.6770 C.3       6 GLP5        0.0000 
     45 N          16.2475   41.6625   14.6725 N.am      2 SEC2        0.0000 
     46 N          17.6360   42.2090   15.0530 N.am      8 SEL2        0.0000 
     47 N          14.8590   41.1160   14.2920 N.am      5 SEP2        0.0000 
     48 O          19.0265   44.4220   14.8045 O.2       1 ALC1        0.0000 
     49 O          18.5310   44.2080   15.9590 O.2       7 ALL1        0.0000 
     50 O          19.5220   44.6360   13.6500 O.2       4 ALP1        0.0000 
     51 O          18.7865   45.4460   15.1365 O.2       1 ALC1        0.0000 
     52 O          19.0420   46.6840   14.3140 O.2       4 ALP1        0.0000 
     53 O          19.1605   46.4705   15.6715 O.2       1 ALC1        0.0000 
     54 O          19.2790   46.2570   17.0290 O.2       7 ALL1        0.0000 
     55 O          18.8615   46.9795   18.1315 O.2       1 ALC1        0.0000 
     56 O          18.4440   47.7020   19.2340 O.2       4 ALP1        0.0000 
     57 CA         19.2305   42.0085   19.0150 C.3       3 GLC5        0.0000 
     58 CA         17.8460   43.3210   18.5210 C.3       9 GLL5        0.0000 
     59 CA         19.6178   41.2615   21.2885 C.3       3 GLC5        0.0000 
     60 CA         18.6320   42.6120   22.9490 C.3       9 GLL5        0.0000 
     61 CA         15.9667   43.9510   19.8623 C.3       3 GLC5        0.0000 
     62 CA         14.8460   44.7130   18.2510 C.3       6 GLP5        0.0000 
     63 CA         16.2777   43.8125   18.1073 C.3       3 GLC5        0.0000 
@<TRIPOS>BOND
@<TRIPOS>SUBSTRUCTURE
     1 ALC1       31 GROUP        1 X    ALC  0     ROOT ALC X 1
     2 SEC2        1 GROUP        1 X    SEC  0     **** SEC X 2
     3 GLC5       25 GROUP        1 X    GLC  0     **** GLC X 6
     4 ALP1       33 GROUP        1 Y    ALP  0     ROOT ALP Y 8
     5 SEP2        3 GROUP        1 Y    SEP  0     **** SEP Y 9
     6 GLP5       27 GROUP        1 Y    GLP  0     **** GLP Y 13
     7 ALL1       32 GROUP        1 Z    ALL  0     ROOT ALL Z 15
     8 SEL2        2 GROUP        1 Z    SEL  0     **** SEL Z 16
     9 GLL5       26 GROUP        1 Z    GLL  0     **** GLL Z 20
@<TRIPOS>SET

