#    Name: 2wib_GDP_1_ligand
#    Modification time : Tue Mar 25 04:23:28 2014

@<TRIPOS>MOLECULE
2wib_GDP_1_ligand
   40    42     1     0     0
SMALL
NO_CHARGES


@<TRIPOS>ATOM
      1 PB         18.0860   36.7840   24.1840 P.3       1 GDP1262     0.0000 
      2 O1B        16.6710   36.2760   24.3100 O.co2     1 GDP1262     0.0000 
      3 O2B        19.0520   36.1660   23.4010 O.co2     1 GDP1262     0.0000 
      4 O3B        18.7950   36.6610   25.6610 O.co2     1 GDP1262     0.0000 
      5 O3A        18.1930   38.2210   23.5360 O.3       1 GDP1262     0.0000 
      6 PA         16.8310   39.1450   23.4980 P.3       1 GDP1262     0.0000 
      7 O1A        15.6470   38.7140   22.6230 O.co2     1 GDP1262     0.0000 
      8 O2A        16.4410   39.3640   25.0690 O.co2     1 GDP1262     0.0000 
      9 O5'        17.2800   40.5940   22.9490 O.3       1 GDP1262     0.0000 
     10 C5'        18.6090   41.0420   23.1870 C.3       1 GDP1262     0.0000 
     11 C4'        18.6320   42.6120   22.9490 C.3       1 GDP1262     0.0000 
     12 O4'        18.7630   42.6020   21.4960 O.3       1 GDP1262     0.0000 
     13 C3'        17.2270   43.1230   23.2760 C.3       1 GDP1262     0.0000 
     14 O3'        17.2920   44.5000   23.6890 O.3       1 GDP1262     0.0000 
     15 C2'        16.5480   43.0810   21.9710 C.3       1 GDP1262     0.0000 
     16 O2'        15.6950   44.2020   21.9130 O.3       1 GDP1262     0.0000 
     17 C1'        17.6270   43.2970   20.9760 C.3       1 GDP1262     0.0000 
     18 N9         17.4570   42.7070   19.6970 N.pl3     1 GDP1262     0.0000 
     19 C8         16.9540   41.5060   19.3530 C.2       1 GDP1262     0.0000 
     20 N7         17.0600   41.4070   17.9400 N.2       1 GDP1262     0.0000 
     21 C5         17.5730   42.5030   17.4060 C.2       1 GDP1262     0.0000 
     22 C6         17.8640   42.9250   16.0750 C.2       1 GDP1262     0.0000 
     23 O6         17.6360   42.2090   15.0530 O.2       1 GDP1262     0.0000 
     24 N1         18.5310   44.2080   15.9590 N.am      1 GDP1262     0.0000 
     25 C2         18.7620   45.0130   17.1000 C.2       1 GDP1262     0.0000 
     26 N2         19.2790   46.2570   17.0290 N.pl3     1 GDP1262     0.0000 
     27 N3         18.4110   44.5180   18.3200 N.2       1 GDP1262     0.0000 
     28 C4         17.8460   43.3210   18.5210 C.2       1 GDP1262     0.0000 
     29 H          19.3293   40.6183   22.4996 H         1 GDP1262     0.0000 
     30 H          18.9344   40.8829   24.2066 H         1 GDP1262     0.0000 
     31 H          19.3636   43.0276   23.4418 H         1 GDP1262     0.0000 
     32 H          16.7733   42.4921   23.9548 H         1 GDP1262     0.0000 
     33 H          16.0775   42.1766   21.8188 H         1 GDP1262     0.0000 
     34 H          17.8685   44.3371   20.9081 H         1 GDP1262     0.0000 
     35 H          16.5931   40.8340   19.9062 H         1 GDP1262     0.0000 
     36 H          18.8320   44.5209   15.0352 H         1 GDP1262     0.0000 
     37 H          19.4201   46.7253   17.9012 H         1 GDP1262     0.0000 
     38 H          19.4752   46.6002   16.1105 H         1 GDP1262     0.0000 
     39 H          16.6400   44.9777   23.1002 H         1 GDP1262     0.0000 
     40 H          16.0872   44.7891   21.2048 H         1 GDP1262     0.0000 
@<TRIPOS>BOND
     1    2    1 ar   
     2    3    1 ar   
     3    4    1 ar   
     4    5    1 1    
     5    6    5 1    
     6    7    6 ar   
     7    8    6 ar   
     8    9    6 1    
     9   10    9 1    
    10   11   10 1    
    11   29   10 1    
    12   30   10 1    
    13   12   11 1    
    14   13   11 1    
    15   31   11 1    
    16   17   12 1    
    17   14   13 1    
    18   15   13 1    
    19   32   13 1    
    20   39   14 1    
    21   16   15 1    
    22   17   15 1    
    23   33   15 1    
    24   40   16 1    
    25   18   17 1    
    26   34   17 1    
    27   19   18 1    
    28   28   18 1    
    29   20   19 2    
    30   35   19 1    
    31   21   20 1    
    32   22   21 1    
    33   28   21 2    
    34   23   22 2    
    35   24   22 am   
    36   25   24 1    
    37   36   24 1    
    38   26   25 1    
    39   27   25 2    
    40   37   26 1    
    41   38   26 1    
    42   28   27 1    
@<TRIPOS>SUBSTRUCTURE
     1 GDP1262     1 GROUP   
@<TRIPOS>SET

