#    Name: 1tu3_GNP_5_INTS_M
#    Modification time : Tue Mar 25 05:39:50 2014

@<TRIPOS>MOLECULE
1tu3_GNP_5_INTS_M
   84     0    15     0     0
SMALL
NO_CHARGES


@<TRIPOS>ATOM
      1 N          34.8495    8.6325   53.9220 N.am      2 SEC2        0.0000 
      2 N          35.2370    7.4090   54.5210 N.am     12 SEL2        0.0000 
      3 N          34.4620    9.8560   53.3230 N.am      7 SEP2        0.0000 
      4 N          34.1415    7.5300   55.5410 N.am      2 SEC2        0.0000 
      5 N          33.0460    7.6510   56.5610 N.am      7 SEP2        0.0000 
      6 Zn         36.6685    4.2895   54.8020 Zn        4 ZIC7        0.0000 
      7 Zn         36.2190    5.2420   55.0060 Zn       14 ZIL7        0.0000 
      8 Zn         37.1180    3.3370   54.5980 Zn        9 ZIP7        0.0000 
      9 N          35.4365    4.9980   56.0630 N.am      2 SEC2        0.0000 
     10 N          36.2190    5.2420   55.0060 N.am     12 SEL2        0.0000 
     11 N          34.6540    4.7540   57.1200 N.am      7 SEP2        0.0000 
     12 NZ         38.6845    7.1520   52.9550 N.4       3 LYC4        0.0000 
     13 NZ         37.6200    6.9730   53.9440 N.4      13 LYL4        0.0000 
     14 NZ         39.7490    7.3310   51.9660 N.4       8 LYP4        0.0000 
     15 N          38.6845    7.1520   52.9550 N.am      2 SEC2        0.0000 
     16 N          37.6200    6.9730   53.9440 N.am     12 SEL2        0.0000 
     17 N          39.7490    7.3310   51.9660 N.am      7 SEP2        0.0000 
     18 N          38.4265    7.7840   54.7555 N.am      2 SEC2        0.0000 
     19 N          39.2330    8.5950   55.5670 N.am      7 SEP2        0.0000 
     20 NZ         38.6420    6.3835   51.3870 N.4       3 LYC4        0.0000 
     21 NZ         37.5350    5.4360   50.8080 N.4      13 LYL4        0.0000 
     22 N          36.4710    6.7910   50.7110 N.am      2 SEC2        0.0000 
     23 N          37.5350    5.4360   50.8080 N.am     12 SEL2        0.0000 
     24 N          35.4070    8.1460   50.6140 N.am      7 SEP2        0.0000 
     25 N          36.9600    6.2150   49.5450 N.am      2 SEC2        0.0000 
     26 N          36.3850    6.9940   48.2820 N.am      7 SEP2        0.0000 
     27 N          37.3125    4.9360   49.3300 N.am      2 SEC2        0.0000 
     28 N          37.0900    4.4360   47.8520 N.am      7 SEP2        0.0000 
     29 N          38.2880    4.2825   50.1665 N.am      2 SEC2        0.0000 
     30 N          39.0410    3.1290   49.5250 N.am      7 SEP2        0.0000 
     31 N          38.6420    6.3835   51.3870 N.am      2 SEC2        0.0000 
     32 Zn         37.0145    3.5660   53.6430 Zn        4 ZIC7        0.0000 
     33 Zn         36.9110    3.7950   52.6880 Zn       14 ZIL7        0.0000 
     34 N          37.8285    2.6060   52.3000 N.am      2 SEC2        0.0000 
     35 N          36.9110    3.7950   52.6880 N.am     12 SEL2        0.0000 
     36 N          38.7460    1.4170   51.9120 N.am      7 SEP2        0.0000 
     37 N          36.2210    4.3075   49.2620 N.am      2 SEC2        0.0000 
     38 N          35.3520    4.1790   50.6720 N.am     12 SEL2        0.0000 
     39 N          36.3820    0.4945   50.5430 N.am      2 SEC2        0.0000 
     40 N          35.5060    1.6410   50.4400 N.am     12 SEL2        0.0000 
     41 N          37.2580   -0.6520   50.6460 N.am      7 SEP2        0.0000 
     42 N          35.1550    0.4625   49.7905 N.am      2 SEC2        0.0000 
     43 N          34.8040   -0.7160   49.1410 N.am      7 SEP2        0.0000 
     44 CA         33.5615    5.6895   49.5710 C.3       5 GLC5        0.0000 
     45 CA         32.6370    3.9130   49.4420 C.3      15 GLL5        0.0000 
     46 CA         34.4860    7.4660   49.7000 C.3      10 GLP5        0.0000 
     47 CA         31.4530    1.3035   50.4060 C.3       5 GLC5        0.0000 
     48 CA         30.9200    2.2550   48.5330 C.3      15 GLL5        0.0000 
     49 CA         31.9860    0.3520   52.2790 C.3      10 GLP5        0.0000 
     50 O          28.6110    1.3620   48.2375 O.2       1 ALC1        0.0000 
     51 O          29.5210    2.4420   48.2890 O.2      11 ALL1        0.0000 
     52 O          27.7010    0.2820   48.1860 O.2       6 ALP1        0.0000 
     53 CA         31.8055   -0.5750   46.3005 C.3       5 GLC5        0.0000 
     54 CA         31.5590    1.2580   47.5570 C.3      15 GLL5        0.0000 
     55 CA         32.0520   -2.4080   45.0440 C.3      10 GLP5        0.0000 
     56 O          30.6765   -0.9215   48.0680 O.2       1 ALC1        0.0000 
     57 O          30.7280    0.2560   47.1030 O.2      11 ALL1        0.0000 
     58 O          30.6250   -2.0990   49.0330 O.2       6 ALP1        0.0000 
     59 CA         32.9190    3.4415   45.3930 C.3       5 GLC5        0.0000 
     60 CA         32.0080    2.1640   46.4650 C.3      15 GLL5        0.0000 
     61 CA         33.8300    4.7190   44.3210 C.3      10 GLP5        0.0000 
     62 N          36.6855    1.4195   45.0870 N.am      2 SEC2        0.0000 
     63 N          35.3230    0.8620   45.5860 N.am     12 SEL2        0.0000 
     64 N          38.0480    1.9770   44.5880 N.am      7 SEP2        0.0000 
     65 CA         35.8325   -0.7440   44.8470 C.3       5 GLC5        0.0000 
     66 CA         34.5550    0.7240   44.3220 C.3      15 GLL5        0.0000 
     67 CA         37.1100   -2.2120   45.3720 C.3      10 GLP5        0.0000 
     68 N          36.7905    1.1165   41.8985 N.am      2 SEC2        0.0000 
     69 N          36.0210   -0.2190   42.6840 N.am     12 SEL2        0.0000 
     70 N          37.5600    2.4520   41.1130 N.am      7 SEP2        0.0000 
     71 N          36.8810   -1.2075   42.8440 N.am      2 SEC2        0.0000 
     72 N          37.7410   -2.1960   43.0040 N.am      7 SEP2        0.0000 
     73 N          35.7280   -1.8540   42.8240 N.am      2 SEC2        0.0000 
     74 N          35.4350   -3.4890   42.9640 N.am      7 SEP2        0.0000 
     75 O          34.2545   -0.0530   40.8165 O.2       1 ALC1        0.0000 
     76 O          33.9390    0.2510   42.0950 O.2      11 ALL1        0.0000 
     77 O          34.5700   -0.3570   39.5380 O.2       6 ALP1        0.0000 
     78 O          32.1445    0.2000   40.1180 O.2       1 ALC1        0.0000 
     79 O          31.8100    0.6940   41.3790 O.2      11 ALL1        0.0000 
     80 O          32.4790   -0.2940   38.8570 O.2       6 ALP1        0.0000 
     81 O          33.1900    0.1685   40.4585 O.2       1 ALC1        0.0000 
     82 CA         34.4322    2.2503   43.4278 C.3       5 GLC5        0.0000 
     83 CA         33.2860    1.1770   44.5110 C.3      15 GLL5        0.0000 
     84 CA         34.9440    3.5500   42.4390 C.3      10 GLP5        0.0000 
@<TRIPOS>BOND
@<TRIPOS>SUBSTRUCTURE
     1 ALC1       50 GROUP        1 X    ALC  0     ROOT ALC X 1
     2 SEC2        1 GROUP        1 X    SEC  0     **** SEC X 2
     3 LYC4       12 GROUP        1 X    LYC  0     **** LYC X 4
     4 ZIC7        6 GROUP        1 X    ZIC  0     **** ZIC X 5
     5 GLC5       44 GROUP        1 X    GLC  0     **** GLC X 6
     6 ALP1       52 GROUP        1 Y    ALP  0     ROOT ALP Y 8
     7 SEP2        3 GROUP        1 Y    SEP  0     **** SEP Y 9
     8 LYP4       14 GROUP        1 Y    LYP  0     **** LYP Y 11
     9 ZIP7        8 GROUP        1 Y    ZIP  0     **** ZIP Y 12
    10 GLP5       46 GROUP        1 Y    GLP  0     **** GLP Y 13
    11 ALL1       51 GROUP        1 Z    ALL  0     ROOT ALL Z 15
    12 SEL2        2 GROUP        1 Z    SEL  0     **** SEL Z 16
    13 LYL4       13 GROUP        1 Z    LYL  0     **** LYL Z 18
    14 ZIL7        7 GROUP        1 Z    ZIL  0     **** ZIL Z 19
    15 GLL5       45 GROUP        1 Z    GLL  0     **** GLL Z 20
@<TRIPOS>SET

