#    Name: 1tu3_GNP_5_ligand
#    Modification time : Tue Mar 25 05:39:50 2014

@<TRIPOS>MOLECULE
1tu3_GNP_5_ligand
   44    46     1     0     0
SMALL
NO_CHARGES


@<TRIPOS>ATOM
      1 PG         36.2260    6.4160   54.0700 P.3       1 GNP5202     0.0000 
      2 O1G        35.2370    7.4090   54.5210 O.co2     1 GNP5202     0.0000 
      3 O2G        36.2190    5.2420   55.0060 O.co2     1 GNP5202     0.0000 
      4 O3G        37.6200    6.9730   53.9440 O.co2     1 GNP5202     0.0000 
      5 N3B        35.7170    5.9650   52.5200 N.4       1 GNP5202     0.0000 
      6 PB         36.5140    4.8240   51.6620 P.3       1 GNP5202     0.0000 
      7 O1B        37.5350    5.4360   50.8080 O.co2     1 GNP5202     0.0000 
      8 O2B        36.9110    3.7950   52.6880 O.co2     1 GNP5202     0.0000 
      9 O3A        35.3520    4.1790   50.6720 O.3       1 GNP5202     0.0000 
     10 PA         34.6120    2.7800   50.7310 P.3       1 GNP5202     0.0000 
     11 O1A        35.5060    1.6410   50.4400 O.co2     1 GNP5202     0.0000 
     12 O2A        33.8720    2.8130   52.0400 O.co2     1 GNP5202     0.0000 
     13 O5'        33.6650    2.9030   49.5450 O.3       1 GNP5202     0.0000 
     14 C5'        32.6370    3.9130   49.4420 C.3       1 GNP5202     0.0000 
     15 C4'        31.7260    3.5760   48.2840 C.3       1 GNP5202     0.0000 
     16 O4'        32.3330    3.4170   47.0380 O.3       1 GNP5202     0.0000 
     17 C3'        30.9200    2.2550   48.5330 C.3       1 GNP5202     0.0000 
     18 O3'        29.5210    2.4420   48.2890 O.3       1 GNP5202     0.0000 
     19 C2'        31.5590    1.2580   47.5570 C.3       1 GNP5202     0.0000 
     20 O2'        30.7280    0.2560   47.1030 O.3       1 GNP5202     0.0000 
     21 C1'        32.0080    2.1640   46.4650 C.3       1 GNP5202     0.0000 
     22 N9         33.1850    1.5940   45.7940 N.pl3     1 GNP5202     0.0000 
     23 C8         34.4720    1.3830   46.4370 C.2       1 GNP5202     0.0000 
     24 N7         35.3230    0.8620   45.5860 N.2       1 GNP5202     0.0000 
     25 C5         34.5550    0.7240   44.3220 C.2       1 GNP5202     0.0000 
     26 C6         34.9800    0.2030   43.0180 C.2       1 GNP5202     0.0000 
     27 O6         36.0210   -0.2190   42.6840 O.2       1 GNP5202     0.0000 
     28 N1         33.9390    0.2510   42.0950 N.am      1 GNP5202     0.0000 
     29 C2         32.7130    0.7490   42.4870 C.2       1 GNP5202     0.0000 
     30 N2         31.8100    0.6940   41.3790 N.pl3     1 GNP5202     0.0000 
     31 N3         32.2540    1.2230   43.5970 N.2       1 GNP5202     0.0000 
     32 C4         33.2860    1.1770   44.5110 C.2       1 GNP5202     0.0000 
     33 H          33.0702    4.9010   49.2660 H         1 GNP5202     0.0000 
     34 H          32.0359    3.9592   50.3538 H         1 GNP5202     0.0000 
     35 H          30.9377    4.3618   48.2240 H         1 GNP5202     0.0000 
     36 H          31.1475    1.9382   49.5251 H         1 GNP5202     0.0000 
     37 H          32.4631    0.8971   48.0503 H         1 GNP5202     0.0000 
     38 H          31.2012    2.2655   45.7532 H         1 GNP5202     0.0000 
     39 H          34.6024    1.6196   47.3651 H         1 GNP5202     0.0000 
     40 H          34.0867   -0.0808   41.1371 H         1 GNP5202     0.0000 
     41 H          32.1655    0.2783   40.5419 H         1 GNP5202     0.0000 
     42 H          30.8990    1.0759   41.5345 H         1 GNP5202     0.0000 
     43 H          29.2202    1.5966   47.8477 H         1 GNP5202     0.0000 
     44 H          30.7565   -0.4460   47.8146 H         1 GNP5202     0.0000 
@<TRIPOS>BOND
     1    2    1 ar   
     2    3    1 ar   
     3    4    1 ar   
     4    5    1 1    
     5    6    5 1    
     6    7    6 ar   
     7    8    6 ar   
     8    9    6 1    
     9   10    9 1    
    10   11   10 ar   
    11   12   10 ar   
    12   13   10 1    
    13   14   13 1    
    14   15   14 1    
    15   33   14 1    
    16   34   14 1    
    17   16   15 1    
    18   17   15 1    
    19   35   15 1    
    20   21   16 1    
    21   18   17 1    
    22   19   17 1    
    23   36   17 1    
    24   43   18 1    
    25   20   19 1    
    26   21   19 1    
    27   37   19 1    
    28   44   20 1    
    29   22   21 1    
    30   38   21 1    
    31   23   22 1    
    32   32   22 1    
    33   24   23 2    
    34   39   23 1    
    35   25   24 1    
    36   26   25 1    
    37   32   25 2    
    38   27   26 2    
    39   28   26 am   
    40   29   28 1    
    41   40   28 1    
    42   30   29 1    
    43   31   29 2    
    44   41   30 1    
    45   42   30 1    
    46   32   31 1    
@<TRIPOS>SUBSTRUCTURE
     1 GNP5202     1 GROUP   
@<TRIPOS>SET

