#    Name: 3vlj_DDJ_2_INTS_M
#    Modification time : Tue Mar 25 01:09:07 2014

@<TRIPOS>MOLECULE
3vlj_DDJ_2_INTS_M
   33     0     3     0     0
SMALL
NO_CHARGES


@<TRIPOS>ATOM
      1 CA        107.8435   23.9115   22.7805 C.3       1 GLC5        0.0000 
      2 CA        107.1740   25.0490   21.0390 C.3       3 GLL5        0.0000 
      3 CA        108.5130   22.7740   24.5220 C.3       2 GLP5        0.0000 
      4 CA        109.3925   22.5115   20.5050 C.3       1 GLC5        0.0000 
      5 CA        109.1210   24.5840   19.7000 C.3       3 GLL5        0.0000 
      6 CA        109.6640   20.4390   21.3100 C.3       2 GLP5        0.0000 
      7 CA        115.6900   26.4780   19.3535 C.3       1 GLC5        0.0000 
      8 CA        114.0760   25.1900   20.1600 C.3       3 GLL5        0.0000 
      9 CA        117.3040   27.7660   18.5470 C.3       2 GLP5        0.0000 
     10 CA        110.8985   24.7365   23.0305 C.3       1 GLC5        0.0000 
     11 CA        112.1350   25.6860   21.4980 C.3       3 GLL5        0.0000 
     12 CA        109.6620   23.7870   24.5630 C.3       2 GLP5        0.0000 
     13 CA        114.3945   21.2775   19.5710 C.3       1 GLC5        0.0000 
     14 CA        114.0490   22.8230   18.1220 C.3       3 GLL5        0.0000 
     15 CA        114.7400   19.7320   21.0200 C.3       2 GLP5        0.0000 
     16 CA        106.3410   28.9780   23.9865 C.3       1 GLC5        0.0000 
     17 CA        107.0500   27.4880   22.9470 C.3       3 GLL5        0.0000 
     18 CA        105.6320   30.4680   25.0260 C.3       2 GLP5        0.0000 
     19 CA        112.3030   26.6668   19.4700 C.3       1 GLC5        0.0000 
     20 CA        111.8730   24.7000   19.3200 C.3       3 GLL5        0.0000 
     21 CA        112.0430   28.6340   19.7040 C.3       2 GLP5        0.0000 
     22 CA        109.4818   24.6013   22.9266 C.3       1 GLC5        0.0000 
     23 CA        109.9320   25.1670   20.6670 C.3       3 GLL5        0.0000 
     24 CA        108.1628   24.4087   18.2170 C.3       1 GLC5        0.0000 
     25 CA        107.8930   24.2630   16.6420 C.3       2 GLP5        0.0000 
     26 CA        109.9866   26.7828   19.8504 C.3       1 GLC5        0.0000 
     27 CA        110.5900   28.5580   19.2290 C.3       2 GLP5        0.0000 
     28 CA        111.8830   27.0365   20.3498 C.3       1 GLC5        0.0000 
     29 CA        111.3110   25.1920   20.4930 C.3       3 GLL5        0.0000 
     30 CA        112.9195   27.0358   20.2253 C.3       1 GLC5        0.0000 
     31 CA        113.5160   25.6850   21.3330 C.3       3 GLL5        0.0000 
     32 CA        113.3367   23.9552   22.5297 C.3       1 GLC5        0.0000 
     33 CA        113.8480   22.2250   23.6440 C.3       2 GLP5        0.0000 
@<TRIPOS>BOND
@<TRIPOS>SUBSTRUCTURE
     1 GLC5        1 GROUP        1 X    GLC  0     ROOT GLC X 6
     2 GLP5        3 GROUP        1 Y    GLP  0     ROOT GLP Y 13
     3 GLL5        2 GROUP        1 Z    GLL  0     ROOT GLL Z 20
@<TRIPOS>SET

