#    Name: 3vlj_DDJ_2_ligand
#    Modification time : Tue Mar 25 01:09:07 2014

@<TRIPOS>MOLECULE
3vlj_DDJ_2_ligand
   34    35     1     0     0
SMALL
NO_CHARGES


@<TRIPOS>ATOM
      1 NAA       105.8580   24.9880   21.2190 N.pl3     1 DDJ801      0.0000 
      2 OAB       113.7980   24.2250   18.0000 O.3       1 DDJ801      0.0000 
      3 OAC       107.4250   26.1230   23.1460 O.3       1 DDJ801      0.0000 
      4 CAD       111.8730   24.7000   19.3200 C.ar      1 DDJ801      0.0000 
      5 CAE       109.3590   25.6950   21.8200 C.ar      1 DDJ801      0.0000 
      6 CAF       107.9830   25.6330   22.0070 C.ar      1 DDJ801      0.0000 
      7 CAG       107.1740   25.0490   21.0390 C.ar      1 DDJ801      0.0000 
      8 CAH       109.9320   25.1670   20.6670 C.ar      1 DDJ801      0.0000 
      9 CAI       109.1210   24.5840   19.7000 C.ar      1 DDJ801      0.0000 
     10 CAJ       107.7440   24.5250   19.8840 C.ar      1 DDJ801      0.0000 
     11 CAK       113.2530   24.6990   19.1520 C.ar      1 DDJ801      0.0000 
     12 CAL       111.3110   25.1920   20.4930 C.ar      1 DDJ801      0.0000 
     13 CAM       114.0760   25.1900   20.1600 C.ar      1 DDJ801      0.0000 
     14 CAN       113.5160   25.6850   21.3330 C.ar      1 DDJ801      0.0000 
     15 CAO       112.1350   25.6860   21.4980 C.ar      1 DDJ801      0.0000 
     16 CAP       114.0490   22.8230   18.1220 C.3       1 DDJ801      0.0000 
     17 CAQ       107.0500   27.4880   22.9470 C.3       1 DDJ801      0.0000 
     18 NAR       115.3960   25.1850   20.0030 N.pl3     1 DDJ801      0.0000 
     19 H         105.3319   24.5664   20.4804 H         1 DDJ801      0.0000 
     20 H         105.5131   25.3693   22.0767 H         1 DDJ801      0.0000 
     21 H         111.2646   24.3352   18.5734 H         1 DDJ801      0.0000 
     22 H         109.9559   26.1322   22.5354 H         1 DDJ801      0.0000 
     23 H         109.5414   24.1944   18.8443 H         1 DDJ801      0.0000 
     24 H         107.1473   24.0939   19.1661 H         1 DDJ801      0.0000 
     25 H         114.1230   26.0502   22.0782 H         1 DDJ801      0.0000 
     26 H         111.7222   26.0535   22.3665 H         1 DDJ801      0.0000 
     27 H         115.9336   25.4933   20.7878 H         1 DDJ801      0.0000 
     28 H         115.7322   24.8734   19.1143 H         1 DDJ801      0.0000 
     29 H         114.4533   22.4442   17.2895 H         1 DDJ801      0.0000 
     30 H         114.6798   22.6225   18.8716 H         1 DDJ801      0.0000 
     31 H         113.2096   22.3095   18.3001 H         1 DDJ801      0.0000 
     32 H         107.8372   28.0594   22.7150 H         1 DDJ801      0.0000 
     33 H         106.3872   27.5866   22.2047 H         1 DDJ801      0.0000 
     34 H         106.6333   27.8819   23.7663 H         1 DDJ801      0.0000 
@<TRIPOS>BOND
     1    7    1 1    
     2   19    1 1    
     3   20    1 1    
     4   11    2 1    
     5   16    2 1    
     6    6    3 1    
     7   17    3 1    
     8   11    4 ar   
     9   12    4 ar   
    10   21    4 1    
    11    6    5 ar   
    12    8    5 ar   
    13   22    5 1    
    14    7    6 ar   
    15   10    7 ar   
    16    9    8 ar   
    17   12    8 1    
    18   10    9 ar   
    19   23    9 1    
    20   24   10 1    
    21   13   11 ar   
    22   15   12 ar   
    23   14   13 ar   
    24   18   13 1    
    25   15   14 ar   
    26   25   14 1    
    27   26   15 1    
    28   29   16 1    
    29   30   16 1    
    30   31   16 1    
    31   32   17 1    
    32   33   17 1    
    33   34   17 1    
    34   27   18 1    
    35   28   18 1    
@<TRIPOS>SUBSTRUCTURE
     1 DDJ801      1 GROUP   
@<TRIPOS>SET

