#    Name: 4i41_MIX_1_INTS_M
#    Modification time : Tue Mar 25 02:21:49 2014

@<TRIPOS>MOLECULE
4i41_MIX_1_INTS_M
   76     0    12     0     0
SMALL
NO_CHARGES


@<TRIPOS>ATOM
      1 N          -8.6715  -34.3155    5.8700 N.am      2 SEC2        0.0000 
      2 N          -9.5670  -33.6510    4.7170 N.am     10 SEL2        0.0000 
      3 N          -7.7760  -34.9800    7.0230 N.am      6 SEP2        0.0000 
      4 O          -8.4515  -33.8275    3.6550 O.2       1 ALC1        0.0000 
      5 O          -9.5670  -33.6510    4.7170 O.2       9 ALL1        0.0000 
      6 O          -7.3360  -34.0040    2.5930 O.2       5 ALP1        0.0000 
      7 CA         -9.2820  -34.4995    4.9270 C.3       4 GLC5        0.0000 
      8 CA        -10.6840  -33.1090    3.9990 C.3      12 GLL5        0.0000 
      9 CA         -7.8800  -35.8900    5.8550 C.3       8 GLP5        0.0000 
     10 CA        -13.4225  -32.2090    4.1735 C.3       4 GLC5        0.0000 
     11 CA        -11.9790  -33.6620    4.5690 C.3      12 GLL5        0.0000 
     12 CA        -14.8660  -30.7560    3.7780 C.3       8 GLP5        0.0000 
     13 CA        -11.6010  -35.5245    5.5625 C.3       4 GLC5        0.0000 
     14 CA        -11.2230  -37.3870    6.5560 C.3       8 GLP5        0.0000 
     15 OD1       -12.6620  -34.9950    5.4040 O.co2     3 ASC3        0.0000 
     16 OD1       -12.6910  -34.3850    3.5430 O.co2    11 ASL3        0.0000 
     17 OD1       -12.6330  -35.6050    7.2650 O.co2     7 ASP3        0.0000 
     18 OD1       -12.6065  -33.7385    2.1640 O.co2     3 ASC3        0.0000 
     19 OD1       -12.5220  -33.0920    0.7850 O.co2     7 ASP3        0.0000 
     20 CA        -14.9600  -32.9220    4.1245 C.3       4 GLC5        0.0000 
     21 CA        -14.1280  -34.5100    3.6170 C.3      12 GLL5        0.0000 
     22 CA        -15.7920  -31.3340    4.6320 C.3       8 GLP5        0.0000 
     23 CA        -14.8150  -32.7645    3.0130 C.3       4 GLC5        0.0000 
     24 CA        -14.7640  -34.7730    2.2480 C.3      12 GLL5        0.0000 
     25 CA        -14.9300  -36.6420    1.7190 C.3       4 GLC5        0.0000 
     26 CA        -15.0960  -38.5110    1.1900 C.3       8 GLP5        0.0000 
     27 CA        -13.5175  -34.8925    0.8620 C.3       4 GLC5        0.0000 
     28 CA        -12.2710  -35.0120   -0.5240 C.3       8 GLP5        0.0000 
     29 CA        -18.4380  -39.0855   -4.1595 C.3       4 GLC5        0.0000 
     30 CA        -19.0970  -38.0960   -2.7360 C.3      12 GLL5        0.0000 
     31 CA        -17.7790  -40.0750   -5.5830 C.3       8 GLP5        0.0000 
     32 CA        -18.9880  -40.6080   -2.7270 C.3       4 GLC5        0.0000 
     33 CA        -20.0680  -38.9040   -2.1190 C.3      12 GLL5        0.0000 
     34 CA        -17.9080  -42.3120   -3.3350 C.3       8 GLP5        0.0000 
     35 CA        -20.2610  -35.7130    1.3580 C.3       4 GLC5        0.0000 
     36 CA        -18.9430  -36.9610    2.4090 C.3      12 GLL5        0.0000 
     37 CA        -21.5790  -34.4650    0.3070 C.3       8 GLP5        0.0000 
     38 CA        -21.3515  -36.5280    3.8635 C.3       4 GLC5        0.0000 
     39 CA        -19.1570  -36.8920    3.8820 C.3      12 GLL5        0.0000 
     40 CA        -23.5460  -36.1640    3.8450 C.3       8 GLP5        0.0000 
     41 CA        -18.5360  -40.4220    3.4500 C.3       4 GLC5        0.0000 
     42 CA        -19.7520  -39.1140    4.5240 C.3      12 GLL5        0.0000 
     43 CA        -17.3200  -41.7300    2.3760 C.3       8 GLP5        0.0000 
     44 OD1       -18.2755  -40.0990    7.1040 O.co2     3 ASC3        0.0000 
     45 OD1       -19.9500  -39.8820    6.8210 O.co2    11 ASL3        0.0000 
     46 OD1       -16.6010  -40.3160    7.3870 O.co2     7 ASP3        0.0000 
     47 CA        -20.0470  -43.6795    6.8485 C.3       4 GLC5        0.0000 
     48 CA        -20.4930  -42.0630    7.8120 C.3      12 GLL5        0.0000 
     49 CA        -19.6010  -45.2960    5.8850 C.3       8 GLP5        0.0000 
     50 N         -18.3685  -43.1125    7.0050 N.am      2 SEC2        0.0000 
     51 N         -19.0980  -42.3330    7.9660 N.am     10 SEL2        0.0000 
     52 N         -17.6390  -43.8920    6.0440 N.am      6 SEP2        0.0000 
     53 O         -18.7755  -41.9440    9.1500 O.2       1 ALC1        0.0000 
     54 O         -19.0980  -42.3330    7.9660 O.2       9 ALL1        0.0000 
     55 O         -18.4530  -41.5550   10.3340 O.2       5 ALP1        0.0000 
     56 CA        -18.6670  -34.2260    1.5962 C.3       4 GLC5        0.0000 
     57 CA        -17.9100  -36.0910    1.7820 C.3      12 GLL5        0.0000 
     58 CA        -19.8150  -32.8120    0.9610 C.3       8 GLP5        0.0000 
     59 CA        -19.3862  -34.3540    5.1792 C.3       4 GLC5        0.0000 
     60 CA        -17.4110  -35.2030    4.0750 C.3      12 GLL5        0.0000 
     61 CA        -20.8740  -33.0930    5.9910 C.3       8 GLP5        0.0000 
     62 CA        -20.2833  -35.9895    0.0447 C.3       4 GLC5        0.0000 
     63 CA        -19.5020  -37.9420    0.0990 C.3      12 GLL5        0.0000 
     64 CA        -18.8787  -36.4528   -3.7575 C.3       4 GLC5        0.0000 
     65 CA        -18.2980  -37.1910   -2.0160 C.3      12 GLL5        0.0000 
     66 CA        -19.0600  -35.2620   -5.1390 C.3       8 GLP5        0.0000 
     67 CA        -21.1842  -37.7400   -2.5078 C.3       4 GLC5        0.0000 
     68 CA        -22.7860  -36.9800   -2.5880 C.3       8 GLP5        0.0000 
     69 CA        -17.7343  -39.2095   -2.0503 C.3       4 GLC5        0.0000 
     70 CA        -15.8860  -39.9190   -1.6730 C.3       8 GLP5        0.0000 
     71 CA        -21.3427  -37.6870   -1.4563 C.3       4 GLC5        0.0000 
     72 CA        -20.2970  -38.8460   -0.7480 C.3      12 GLL5        0.0000 
     73 CA        -19.0831  -40.0367   -0.3001 C.3       4 GLC5        0.0000 
     74 CA        -18.3240  -41.6650    0.0670 C.3       8 GLP5        0.0000 
     75 CA        -17.4149  -38.7296   -1.1305 C.3       4 GLC5        0.0000 
     76 CA        -16.6635  -37.4058    1.7551 C.3       4 GLC5        0.0000 
@<TRIPOS>BOND
@<TRIPOS>SUBSTRUCTURE
     1 ALC1        4 GROUP        1 X    ALC  0     ROOT ALC X 1
     2 SEC2        1 GROUP        1 X    SEC  0     **** SEC X 2
     3 ASC3       15 GROUP        1 X    ASC  0     **** ASC X 3
     4 GLC5        7 GROUP        1 X    GLC  0     **** GLC X 6
     5 ALP1        6 GROUP        1 Y    ALP  0     ROOT ALP Y 8
     6 SEP2        3 GROUP        1 Y    SEP  0     **** SEP Y 9
     7 ASP3       17 GROUP        1 Y    ASP  0     **** ASP Y 10
     8 GLP5        9 GROUP        1 Y    GLP  0     **** GLP Y 13
     9 ALL1        5 GROUP        1 Z    ALL  0     ROOT ALL Z 15
    10 SEL2        2 GROUP        1 Z    SEL  0     **** SEL Z 16
    11 ASL3       16 GROUP        1 Z    ASL  0     **** ASL Z 17
    12 GLL5        8 GROUP        1 Z    GLL  0     **** GLL Z 20
@<TRIPOS>SET

