#    Name: 4i41_MIX_1_ligand
#    Modification time : Tue Mar 25 02:21:49 2014

@<TRIPOS>MOLECULE
4i41_MIX_1_ligand
   58    60     1     0     0
SMALL
NO_CHARGES


@<TRIPOS>ATOM
      1 OAC        -9.5670  -33.6510    4.7170 O.3       1 MIX500      0.0000 
      2 CAK       -10.6840  -33.1090    3.9990 C.3       1 MIX500      0.0000 
      3 CAM       -11.9790  -33.6620    4.5690 C.3       1 MIX500      0.0000 
      4 NAS       -12.6910  -34.3850    3.5430 N.4       1 MIX500      0.0000 
      5 CAO       -14.1280  -34.5100    3.6170 C.3       1 MIX500      0.0000 
      6 CAQ       -14.7640  -34.7730    2.2480 C.3       1 MIX500      0.0000 
      7 NAU       -16.1670  -34.3770    2.1520 N.pl3     1 MIX500      0.0000 
      8 CAY       -17.1280  -35.1890    2.6810 C.ar      1 MIX500      0.0000 
      9 CAI       -17.4110  -35.2030    4.0750 C.ar      1 MIX500      0.0000 
     10 CAJ       -18.3860  -36.0270    4.6600 C.ar      1 MIX500      0.0000 
     11 CBE       -17.9100  -36.0910    1.7820 C.ar      1 MIX500      0.0000 
     12 CBA       -17.6690  -36.1450    0.3110 C.2       1 MIX500      0.0000 
     13 OAA       -16.7990  -35.4070   -0.2040 O.2       1 MIX500      0.0000 
     14 CBC       -18.4730  -37.0860   -0.5340 C.ar      1 MIX500      0.0000 
     15 CAW       -18.2980  -37.1910   -2.0160 C.ar      1 MIX500      0.0000 
     16 OAE       -17.3540  -36.4150   -2.6600 O.3       1 MIX500      0.0000 
     17 CAG       -19.0970  -38.0960   -2.7360 C.ar      1 MIX500      0.0000 
     18 CAH       -20.0680  -38.9040   -2.1190 C.ar      1 MIX500      0.0000 
     19 CAX       -20.2970  -38.8460   -0.7480 C.ar      1 MIX500      0.0000 
     20 OAF       -21.2230  -39.6380   -0.1630 O.3       1 MIX500      0.0000 
     21 CBD       -19.5020  -37.9420    0.0990 C.ar      1 MIX500      0.0000 
     22 CBB       -19.7390  -37.8780    1.5620 C.2       1 MIX500      0.0000 
     23 OAB       -20.6070  -38.5960    2.0810 O.2       1 MIX500      0.0000 
     24 CBF       -18.9430  -36.9610    2.4090 C.ar      1 MIX500      0.0000 
     25 CAZ       -19.1570  -36.8920    3.8820 C.ar      1 MIX500      0.0000 
     26 NAV       -20.0790  -37.6930    4.4580 N.pl3     1 MIX500      0.0000 
     27 CAR       -19.7520  -39.1140    4.5240 C.3       1 MIX500      0.0000 
     28 CAP       -20.5850  -39.9030    5.5110 C.3       1 MIX500      0.0000 
     29 NAT       -19.9500  -39.8820    6.8210 N.4       1 MIX500      0.0000 
     30 CAN       -20.6250  -40.5520    7.9210 C.3       1 MIX500      0.0000 
     31 CAL       -20.4930  -42.0630    7.8120 C.3       1 MIX500      0.0000 
     32 OAD       -19.0980  -42.3330    7.9660 O.3       1 MIX500      0.0000 
     33 H         -10.6422  -33.3698    2.9349 H         1 MIX500      0.0000 
     34 H         -10.7184  -32.0158    4.0755 H         1 MIX500      0.0000 
     35 H         -12.5717  -32.8234    4.9483 H         1 MIX500      0.0000 
     36 H         -11.7310  -34.3122    5.4140 H         1 MIX500      0.0000 
     37 H         -14.5870  -33.5929    4.0286 H         1 MIX500      0.0000 
     38 H         -14.4218  -35.3381    4.2871 H         1 MIX500      0.0000 
     39 H         -14.6490  -35.8550    2.0247 H         1 MIX500      0.0000 
     40 H         -14.1564  -34.2405    1.4856 H         1 MIX500      0.0000 
     41 H         -16.3806  -33.4979    1.6878 H         1 MIX500      0.0000 
     42 H         -16.8593  -34.5625    4.6910 H         1 MIX500      0.0000 
     43 H         -18.5319  -35.9897    5.6812 H         1 MIX500      0.0000 
     44 H         -18.9647  -38.1709   -3.7661 H         1 MIX500      0.0000 
     45 H         -20.6223  -39.5553   -2.7039 H         1 MIX500      0.0000 
     46 H         -20.9511  -37.3822    4.8335 H         1 MIX500      0.0000 
     47 H         -18.6793  -39.2498    4.7908 H         1 MIX500      0.0000 
     48 H         -19.8692  -39.5826    3.5206 H         1 MIX500      0.0000 
     49 H         -20.6835  -40.9286    5.1419 H         1 MIX500      0.0000 
     50 H         -21.5847  -39.4600    5.5553 H         1 MIX500      0.0000 
     51 H         -21.6959  -40.3009    7.9345 H         1 MIX500      0.0000 
     52 H         -20.2035  -40.2393    8.8878 H         1 MIX500      0.0000 
     53 H         -20.8607  -42.3670    6.8441 H         1 MIX500      0.0000 
     54 H         -21.0823  -42.5128    8.5961 H         1 MIX500      0.0000 
     55 H          -8.8557  -33.7839    4.0268 H         1 MIX500      0.0000 
     56 H         -16.9026  -35.8993   -1.9318 H         1 MIX500      0.0000 
     57 H         -21.1645  -39.4271    0.8128 H         1 MIX500      0.0000 
     58 H         -18.9779  -42.5266    8.9397 H         1 MIX500      0.0000 
@<TRIPOS>BOND
     1    2    1 1    
     2   55    1 1    
     3    3    2 1    
     4   33    2 1    
     5   34    2 1    
     6    4    3 1    
     7   35    3 1    
     8   36    3 1    
     9    5    4 1    
    10    6    5 1    
    11   37    5 1    
    12   38    5 1    
    13    7    6 1    
    14   39    6 1    
    15   40    6 1    
    16    8    7 1    
    17   41    7 1    
    18    9    8 ar   
    19   11    8 ar   
    20   10    9 ar   
    21   42    9 1    
    22   25   10 ar   
    23   43   10 1    
    24   12   11 1    
    25   24   11 ar   
    26   13   12 2    
    27   14   12 1    
    28   15   14 ar   
    29   21   14 ar   
    30   16   15 1    
    31   17   15 ar   
    32   56   16 1    
    33   18   17 ar   
    34   44   17 1    
    35   19   18 ar   
    36   45   18 1    
    37   20   19 1    
    38   21   19 ar   
    39   57   20 1    
    40   22   21 1    
    41   23   22 2    
    42   24   22 1    
    43   25   24 ar   
    44   26   25 1    
    45   27   26 1    
    46   46   26 1    
    47   28   27 1    
    48   47   27 1    
    49   48   27 1    
    50   29   28 1    
    51   49   28 1    
    52   50   28 1    
    53   30   29 1    
    54   31   30 1    
    55   51   30 1    
    56   52   30 1    
    57   32   31 1    
    58   53   31 1    
    59   54   31 1    
    60   58   32 1    
@<TRIPOS>SUBSTRUCTURE
     1 MIX500      1 GROUP   
@<TRIPOS>SET

