#    Name: 3vhk_BPK_1_INTS_M
#    Modification time : Tue Mar 25 00:52:24 2014

@<TRIPOS>MOLECULE
3vhk_BPK_1_INTS_M
   63     0     6     0     0
SMALL
NO_CHARGES


@<TRIPOS>ATOM
      1 CA        -25.7725   29.4350   10.3760 C.3       2 GLC5        0.0000 
      2 CA        -25.4720   28.3480   12.0210 C.3       6 GLL5        0.0000 
      3 CA        -26.0730   30.5220    8.7310 C.3       4 GLP5        0.0000 
      4 CA        -25.6895   26.4160   11.3875 C.3       2 GLC5        0.0000 
      5 CA        -26.6560   27.9690   12.6110 C.3       6 GLL5        0.0000 
      6 CA        -24.7230   24.8630   10.1640 C.3       4 GLP5        0.0000 
      7 CA        -33.6885   26.6635   21.5500 C.3       2 GLC5        0.0000 
      8 CA        -31.7000   26.0610   21.3640 C.3       6 GLL5        0.0000 
      9 CA        -35.6770   27.2660   21.7360 C.3       4 GLP5        0.0000 
     10 CA        -27.2480   25.0580   13.2105 C.3       2 GLC5        0.0000 
     11 CA        -26.6570   27.1080   13.6850 C.3       6 GLL5        0.0000 
     12 CA        -27.8390   23.0080   12.7360 C.3       4 GLP5        0.0000 
     13 CA        -26.3535   27.8265   15.5310 C.3       2 GLC5        0.0000 
     14 CA        -26.0500   28.5450   17.3770 C.3       4 GLP5        0.0000 
     15 CA        -28.8750   24.5250   13.4965 C.3       2 GLC5        0.0000 
     16 CA        -29.9110   26.0420   14.2570 C.3       6 GLL5        0.0000 
     17 CA        -30.0800   24.2725   12.7025 C.3       2 GLC5        0.0000 
     18 CA        -31.1370   25.5540   13.6100 C.3       6 GLL5        0.0000 
     19 CA        -29.0230   22.9910   11.7950 C.3       4 GLP5        0.0000 
     20 CA        -31.9185   24.1845   14.7095 C.3       2 GLC5        0.0000 
     21 CA        -32.7000   22.8150   15.8090 C.3       4 GLP5        0.0000 
     22 CA        -32.3795   25.8525   12.2010 C.3       2 GLC5        0.0000 
     23 CA        -33.6220   26.1510   10.7920 C.3       4 GLP5        0.0000 
     24 CA        -31.5050   24.4990   16.3050 C.3       2 GLC5        0.0000 
     25 CA        -30.3100   26.1830   16.8010 C.3       6 GLL5        0.0000 
     26 CA        -32.0160   27.2320   16.9180 C.3       2 GLC5        0.0000 
     27 CA        -33.7220   28.2810   17.0350 C.3       4 GLP5        0.0000 
     28 CA        -28.7875   24.8930   17.7710 C.3       2 GLC5        0.0000 
     29 CA        -27.2650   23.6030   18.7410 C.3       4 GLP5        0.0000 
     30 N         -27.3780   26.2950   16.7890 N.am      1 SEC2        0.0000 
     31 N         -28.2390   26.7550   15.5700 N.am      5 SEL2        0.0000 
     32 N         -26.5170   25.8350   18.0080 N.am      3 SEP2        0.0000 
     33 CA        -24.5315   27.5255   10.5892 C.3       2 GLC5        0.0000 
     34 CA        -24.2820   27.8600   12.5080 C.3       6 GLL5        0.0000 
     35 CA        -24.1860   26.9470    8.9140 C.3       4 GLP5        0.0000 
     36 CA        -24.7987   25.8350   12.0198 C.3       2 GLC5        0.0000 
     37 CA        -25.4670   26.6190   14.1710 C.3       6 GLL5        0.0000 
     38 CA        -24.0397   29.2293   13.8801 C.3       2 GLC5        0.0000 
     39 CA        -24.2820   26.9950   13.5800 C.3       6 GLL5        0.0000 
     40 CA        -23.5000   30.9090   14.8380 C.3       4 GLP5        0.0000 
     41 CA        -24.5977   27.4325   15.5533 C.3       2 GLC5        0.0000 
     42 CA        -24.3210   28.0580   17.2310 C.3       4 GLP5        0.0000 
     43 CA        -24.5523   24.9150   14.4863 C.3       2 GLC5        0.0000 
     44 CA        -24.2300   23.0230   15.0970 C.3       4 GLP5        0.0000 
     45 CA        -31.3302   29.3540   20.5945 C.3       2 GLC5        0.0000 
     46 CA        -30.5310   27.6160   19.9870 C.3       6 GLL5        0.0000 
     47 CA        -31.8070   31.2400   20.6120 C.3       4 GLP5        0.0000 
     48 CA        -31.2105   27.5687   23.0472 C.3       2 GLC5        0.0000 
     49 CA        -31.1760   27.3200   21.1670 C.3       6 GLL5        0.0000 
     50 CA        -30.9830   28.4470   24.8290 C.3       4 GLP5        0.0000 
     51 CA        -29.6825   26.1342   22.3158 C.3       2 GLC5        0.0000 
     52 CA        -27.9270   25.5780   23.3660 C.3       4 GLP5        0.0000 
     53 CA        -32.0980   27.7067   18.2675 C.3       2 GLC5        0.0000 
     54 CA        -28.5765   27.6382   19.1040 C.3       2 GLC5        0.0000 
     55 CA        -30.4170   26.6490   19.0130 C.3       6 GLL5        0.0000 
     56 CA        -26.6790   28.1440   18.7080 C.3       4 GLP5        0.0000 
     57 CA        -28.9713   24.8105   18.9258 C.3       2 GLC5        0.0000 
     58 CA        -27.7117   28.7591   12.0987 C.3       2 GLC5        0.0000 
     59 CA        -29.0630   29.8850   11.1970 C.3       4 GLP5        0.0000 
     60 CA        -32.2370   26.4955   14.3682 C.3       2 GLC5        0.0000 
     61 CA        -33.9500   27.1930   14.8030 C.3       4 GLP5        0.0000 
     62 CA        -30.9315   27.7120   13.0753 C.3       2 GLC5        0.0000 
     63 CA        -31.3390   29.6260   12.2170 C.3       4 GLP5        0.0000 
@<TRIPOS>BOND
@<TRIPOS>SUBSTRUCTURE
     1 SEC2       30 GROUP        1 X    SEC  0     ROOT SEC X 2
     2 GLC5        1 GROUP        1 X    GLC  0     **** GLC X 6
     3 SEP2       32 GROUP        1 Y    SEP  0     ROOT SEP Y 9
     4 GLP5        3 GROUP        1 Y    GLP  0     **** GLP Y 13
     5 SEL2       31 GROUP        1 Z    SEL  0     ROOT SEL Z 16
     6 GLL5        2 GROUP        1 Z    GLL  0     **** GLL Z 20
@<TRIPOS>SET

