#    Name: 3vhk_BPK_1_ligand
#    Modification time : Tue Mar 25 00:52:24 2014

@<TRIPOS>MOLECULE
3vhk_BPK_1_ligand
   39    41     1     0     0
SMALL
NO_CHARGES


@<TRIPOS>ATOM
      1 C5        -24.2820   27.8600   12.5080 C.ar      1 BPK2001     0.0000 
      2 C4        -25.4720   28.3480   12.0210 C.ar      1 BPK2001     0.0000 
      3 C6        -24.2820   26.9950   13.5800 C.ar      1 BPK2001     0.0000 
      4 C19       -31.1760   27.3200   21.1670 C.ar      1 BPK2001     0.0000 
      5 C3        -26.6560   27.9690   12.6110 C.ar      1 BPK2001     0.0000 
      6 C7        -25.4670   26.6190   14.1710 C.ar      1 BPK2001     0.0000 
      7 C18       -31.7000   26.0610   21.3640 C.ar      1 BPK2001     0.0000 
      8 C20       -30.5310   27.6160   19.9870 C.ar      1 BPK2001     0.0000 
      9 C16       -30.9380   25.3870   19.2080 C.ar      1 BPK2001     0.0000 
     10 C2        -26.6570   27.1080   13.6850 C.ar      1 BPK2001     0.0000 
     11 C17       -31.5840   25.0920   20.3890 C.ar      1 BPK2001     0.0000 
     12 C15       -30.4170   26.6490   19.0130 C.ar      1 BPK2001     0.0000 
     13 C9        -29.5350   26.3100   15.5560 C.2       1 BPK2001     0.0000 
     14 C10       -29.9110   26.0420   14.2570 C.2       1 BPK2001     0.0000 
     15 C1        -27.8990   26.7340   14.2990 C.2       1 BPK2001     0.0000 
     16 C12       -31.1370   25.5540   13.6100 C.3       1 BPK2001     0.0000 
     17 C21       -32.1510   23.7340   20.5980 C.3       1 BPK2001     0.0000 
     18 C13       -30.3100   26.1830   16.8010 C.3       1 BPK2001     0.0000 
     19 N8        -28.2390   26.7550   15.5700 N.2       1 BPK2001     0.0000 
     20 O11       -28.8640   26.3110   13.4380 O.3       1 BPK2001     0.0000 
     21 O22       -31.5970   23.1950   21.7870 O.3       1 BPK2001     0.0000 
     22 O14       -29.7590   26.9840   17.8400 O.3       1 BPK2001     0.0000 
     23 H         -23.3897   28.1409   12.0716 H         1 BPK2001     0.0000 
     24 H         -25.4774   28.9945   11.2180 H         1 BPK2001     0.0000 
     25 H         -23.3854   26.6257   13.9430 H         1 BPK2001     0.0000 
     26 H         -31.2668   28.0383   21.9014 H         1 BPK2001     0.0000 
     27 H         -27.5538   28.3344   12.2441 H         1 BPK2001     0.0000 
     28 H         -25.4619   25.9731   14.9750 H         1 BPK2001     0.0000 
     29 H         -32.1857   25.8393   22.2522 H         1 BPK2001     0.0000 
     30 H         -30.1362   28.5548   19.8336 H         1 BPK2001     0.0000 
     31 H         -30.8446   24.6698   18.4752 H         1 BPK2001     0.0000 
     32 H         -31.9114   23.1144   19.7261 H         1 BPK2001     0.0000 
     33 H         -33.2423   23.8143   20.6635 H         1 BPK2001     0.0000 
     34 H         -30.3361   25.1148   17.0990 H         1 BPK2001     0.0000 
     35 H         -31.3623   26.4699   16.5985 H         1 BPK2001     0.0000 
     36 H         -31.0304   25.4825   12.6183 H         1 BPK2001     0.0000 
     37 H         -31.3971   24.6476   13.9429 H         1 BPK2001     0.0000 
     38 H         -31.9130   26.1619   13.7783 H         1 BPK2001     0.0000 
     39 H         -30.6391   23.0115   21.5660 H         1 BPK2001     0.0000 
@<TRIPOS>BOND
     1    2    1 ar   
     2    3    1 ar   
     3   23    1 1    
     4    5    2 ar   
     5   24    2 1    
     6    6    3 ar   
     7   25    3 1    
     8    7    4 ar   
     9    8    4 ar   
    10   26    4 1    
    11   10    5 ar   
    12   27    5 1    
    13   10    6 ar   
    14   28    6 1    
    15   11    7 ar   
    16   29    7 1    
    17   12    8 ar   
    18   30    8 1    
    19   11    9 ar   
    20   12    9 ar   
    21   31    9 1    
    22   15   10 1    
    23   17   11 1    
    24   22   12 1    
    25   14   13 2    
    26   18   13 1    
    27   19   13 1    
    28   16   14 1    
    29   20   14 1    
    30   19   15 2    
    31   20   15 1    
    32   36   16 1    
    33   37   16 1    
    34   38   16 1    
    35   21   17 1    
    36   32   17 1    
    37   33   17 1    
    38   22   18 1    
    39   34   18 1    
    40   35   18 1    
    41   39   21 1    
@<TRIPOS>SUBSTRUCTURE
     1 BPK2001     1 GROUP   
@<TRIPOS>SET

