#    Name: 2gqr_ADP_1_INTS_M
#    Modification time : Tue Mar 25 14:58:22 2014

@<TRIPOS>MOLECULE
2gqr_ADP_1_INTS_M
   78     0    15     0     0
SMALL
NO_CHARGES


@<TRIPOS>ATOM
      1 NZ         29.2745   32.5465   74.6050 N.4       3 LYC4        0.0000 
      2 NZ         30.6160   32.3820   74.1470 N.4      13 LYL4        0.0000 
      3 NZ         27.9330   32.7110   75.0630 N.4       8 LYP4        0.0000 
      4 N          30.7700   32.8455   72.8680 N.am      2 SEC2        0.0000 
      5 N          30.6160   32.3820   74.1470 N.am     12 SEL2        0.0000 
      6 N          30.9240   33.3090   71.5890 N.am      7 SEP2        0.0000 
      7 N          29.2745   32.5465   74.6050 N.am      2 SEC2        0.0000 
      8 N          27.9330   32.7110   75.0630 N.am      7 SEP2        0.0000 
      9 NZ         31.6620   31.2305   77.5475 N.4       3 LYC4        0.0000 
     10 NZ         31.5470   31.1450   76.0760 N.4      13 LYL4        0.0000 
     11 NZ         31.7770   31.3160   79.0190 N.4       8 LYP4        0.0000 
     12 N          31.6620   31.2305   77.5475 N.am      2 SEC2        0.0000 
     13 N          31.5470   31.1450   76.0760 N.am     12 SEL2        0.0000 
     14 N          31.7770   31.3160   79.0190 N.am      7 SEP2        0.0000 
     15 NZ         29.6250   33.1595   75.6300 N.4       3 LYC4        0.0000 
     16 NZ         31.3170   33.6080   76.1970 N.4      13 LYL4        0.0000 
     17 NZ         31.5470   32.4620   77.6080 N.4       3 LYC4        0.0000 
     18 Zn         31.9570   34.3470   76.5995 Zn        4 ZIC7        0.0000 
     19 Zn         31.3170   33.6080   76.1970 Zn       14 ZIL7        0.0000 
     20 Zn         32.5970   35.0860   77.0020 Zn        9 ZIP7        0.0000 
     21 N          32.7565   35.0635   72.2185 N.am      2 SEC2        0.0000 
     22 N          33.5910   34.2200   72.9060 N.am     12 SEL2        0.0000 
     23 N          31.9220   35.9070   71.5310 N.am      7 SEP2        0.0000 
     24 N          34.1420   35.1495   72.1015 N.am      2 SEC2        0.0000 
     25 N          34.6930   36.0790   71.2970 N.am      7 SEP2        0.0000 
     26 NZ         34.9545   35.6435   75.7035 N.4       3 LYC4        0.0000 
     27 NZ         33.8520   34.8870   75.4200 N.4      13 LYL4        0.0000 
     28 NZ         36.0570   36.4000   75.9870 N.4       8 LYP4        0.0000 
     29 Zn         33.2245   34.9865   76.2110 Zn        4 ZIC7        0.0000 
     30 Zn         33.8520   34.8870   75.4200 Zn       14 ZIL7        0.0000 
     31 N          34.9545   35.6435   75.7035 N.am      2 SEC2        0.0000 
     32 N          33.8520   34.8870   75.4200 N.am     12 SEL2        0.0000 
     33 N          36.0570   36.4000   75.9870 N.am      7 SEP2        0.0000 
     34 CA         36.9145   34.5480   75.0540 C.3       5 GLC5        0.0000 
     35 CA         36.4290   32.8200   74.7730 C.3      15 GLL5        0.0000 
     36 CA         37.4000   36.2760   75.3350 C.3      10 GLP5        0.0000 
     37 CA         34.0970   30.5190   77.8550 C.3       5 GLC5        0.0000 
     38 CA         35.7280   31.0090   76.3900 C.3      15 GLL5        0.0000 
     39 CA         32.4660   30.0290   79.3200 C.3      10 GLP5        0.0000 
     40 O          35.7875   31.2150   79.6865 O.2       1 ALC1        0.0000 
     41 O          36.5310   30.5140   78.6500 O.2      11 ALL1        0.0000 
     42 O          35.0440   31.9160   80.7230 O.2       6 ALP1        0.0000 
     43 CA         38.7885   29.7290   78.3810 C.3       5 GLC5        0.0000 
     44 CA         38.0390   30.7340   76.7590 C.3      15 GLL5        0.0000 
     45 CA         39.5380   28.7240   80.0030 C.3      10 GLP5        0.0000 
     46 N          40.3295   33.9535   79.1930 N.am      2 SEC2        0.0000 
     47 N          40.6060   32.9890   78.0580 N.am     12 SEL2        0.0000 
     48 N          40.0530   34.9180   80.3280 N.am      7 SEP2        0.0000 
     49 CA         41.6075   32.8460   75.8740 C.3       5 GLC5        0.0000 
     50 CA         41.3190   31.8160   77.8510 C.3      15 GLL5        0.0000 
     51 CA         41.8960   33.8760   73.8970 C.3      10 GLP5        0.0000 
     52 CA         43.5490   30.5500   76.3705 C.3       5 GLC5        0.0000 
     53 CA         42.6650   31.4800   78.0700 C.3      15 GLL5        0.0000 
     54 CA         44.4330   29.6200   74.6710 C.3      10 GLP5        0.0000 
     55 CA         44.0855   32.8605   77.0275 C.3       5 GLC5        0.0000 
     56 CA         45.5060   34.2410   75.9850 C.3      10 GLP5        0.0000 
     57 CA         43.3135   30.4070   79.6730 C.3       5 GLC5        0.0000 
     58 CA         43.9620   29.3340   81.2760 C.3      10 GLP5        0.0000 
     59 O          43.3525   33.5725   78.9030 O.2       1 ALC1        0.0000 
     60 O          43.5710   32.3320   78.5550 O.2      11 ALL1        0.0000 
     61 O          43.1340   34.8130   79.2510 O.2       6 ALP1        0.0000 
     62 O          45.0145   31.9720   78.5050 O.2       1 ALC1        0.0000 
     63 O          46.4580   31.6120   78.4550 O.2       6 ALP1        0.0000 
     64 N          44.1190   29.4305   78.5165 N.am      2 SEC2        0.0000 
     65 N          43.0540   30.2210   77.7690 N.am     12 SEL2        0.0000 
     66 N          45.1840   28.6400   79.2640 N.am      7 SEP2        0.0000 
     67 CA         43.2885   29.4950   75.9735 C.3       5 GLC5        0.0000 
     68 CA         42.1440   29.3700   77.2760 C.3      15 GLL5        0.0000 
     69 CA         43.3985   28.7740   78.9075 C.3       5 GLC5        0.0000 
     70 CA         44.6530   28.1780   80.5390 C.3      10 GLP5        0.0000 
     71 CA         40.8410   29.0470   78.6395 C.3       5 GLC5        0.0000 
     72 CA         40.0190   29.7755   78.6705 C.3       5 GLC5        0.0000 
     73 CA         40.5000   30.8270   77.3380 C.3      15 GLL5        0.0000 
     74 CA         37.9500   31.6690   73.6545 C.3       5 GLC5        0.0000 
     75 CA         36.4930   31.3600   75.1210 C.3      15 GLL5        0.0000 
     76 CA         39.4390   31.2480   72.3620 C.3      10 GLP5        0.0000 
     77 CA         41.1545   30.8925   79.5053 C.3       5 GLC5        0.0000 
     78 CA         40.3170   30.1370   81.0500 C.3      10 GLP5        0.0000 
@<TRIPOS>BOND
@<TRIPOS>SUBSTRUCTURE
     1 ALC1       40 GROUP        1 X    ALC  0     ROOT ALC X 1
     2 SEC2        4 GROUP        1 X    SEC  0     **** SEC X 2
     3 LYC4        1 GROUP        1 X    LYC  0     **** LYC X 4
     4 ZIC7       18 GROUP        1 X    ZIC  0     **** ZIC X 5
     5 GLC5       34 GROUP        1 X    GLC  0     **** GLC X 6
     6 ALP1       42 GROUP        1 Y    ALP  0     ROOT ALP Y 8
     7 SEP2        6 GROUP        1 Y    SEP  0     **** SEP Y 9
     8 LYP4        3 GROUP        1 Y    LYP  0     **** LYP Y 11
     9 ZIP7       20 GROUP        1 Y    ZIP  0     **** ZIP Y 12
    10 GLP5       36 GROUP        1 Y    GLP  0     **** GLP Y 13
    11 ALL1       41 GROUP        1 Z    ALL  0     ROOT ALL Z 15
    12 SEL2        5 GROUP        1 Z    SEL  0     **** SEL Z 16
    13 LYL4        2 GROUP        1 Z    LYL  0     **** LYL Z 18
    14 ZIL7       19 GROUP        1 Z    ZIL  0     **** ZIL Z 19
    15 GLL5       35 GROUP        1 Z    GLL  0     **** GLL Z 20
@<TRIPOS>SET

