#    Name: 2gqr_ADP_1_ligand
#    Modification time : Tue Mar 25 14:58:22 2014

@<TRIPOS>MOLECULE
2gqr_ADP_1_ligand
   39    41     1     0     0
SMALL
NO_CHARGES


@<TRIPOS>ATOM
      1 PB         31.5200   32.4250   75.3240 P.3       1 ADP238      0.0000 
      2 O1B        30.6160   32.3820   74.1470 O.co2     1 ADP238      0.0000 
      3 O2B        31.5470   31.1450   76.0760 O.co2     1 ADP238      0.0000 
      4 O3B        31.3170   33.6080   76.1970 O.co2     1 ADP238      0.0000 
      5 PA         33.8870   33.9050   74.3120 P.3       1 ADP238      0.0000 
      6 O1A        33.5910   34.2200   72.9060 O.co2     1 ADP238      0.0000 
      7 O2A        33.8520   34.8870   75.4200 O.co2     1 ADP238      0.0000 
      8 O3A        32.9970   32.6330   74.7140 O.3       1 ADP238      0.0000 
      9 O5'        35.1960   33.1130   74.1840 O.3       1 ADP238      0.0000 
     10 C5'        36.4290   32.8200   74.7730 C.3       1 ADP238      0.0000 
     11 C4'        36.4930   31.3600   75.1210 C.3       1 ADP238      0.0000 
     12 O4'        37.8830   31.0560   75.3960 O.3       1 ADP238      0.0000 
     13 C3'        35.7280   31.0090   76.3900 C.3       1 ADP238      0.0000 
     14 O3'        35.2880   29.6550   76.3610 O.3       1 ADP238      0.0000 
     15 C2'        36.7790   31.2350   77.4650 C.3       1 ADP238      0.0000 
     16 O2'        36.5310   30.5140   78.6500 O.3       1 ADP238      0.0000 
     17 C1'        38.0390   30.7340   76.7590 C.3       1 ADP238      0.0000 
     18 N9         39.2540   31.3920   77.2330 N.pl3     1 ADP238      0.0000 
     19 C8         39.3900   32.6880   77.6740 C.2       1 ADP238      0.0000 
     20 N7         40.6060   32.9890   78.0580 N.2       1 ADP238      0.0000 
     21 C5         41.3190   31.8160   77.8510 C.ar      1 ADP238      0.0000 
     22 C6         42.6650   31.4800   78.0700 C.ar      1 ADP238      0.0000 
     23 N6         43.5710   32.3320   78.5550 N.pl3     1 ADP238      0.0000 
     24 N1         43.0540   30.2210   77.7690 N.ar      1 ADP238      0.0000 
     25 C2         42.1440   29.3700   77.2760 C.ar      1 ADP238      0.0000 
     26 N3         40.8540   29.5700   77.0220 N.ar      1 ADP238      0.0000 
     27 C4         40.5000   30.8270   77.3380 C.ar      1 ADP238      0.0000 
     28 H          36.5938   33.3960   75.6989 H         1 ADP238      0.0000 
     29 H          37.2739   33.0449   74.1007 H         1 ADP238      0.0000 
     30 H          36.1396   30.7685   74.3155 H         1 ADP238      0.0000 
     31 H          34.9579   31.7184   76.5191 H         1 ADP238      0.0000 
     32 H          36.8904   32.2866   77.5973 H         1 ADP238      0.0000 
     33 H          38.1010   29.6736   76.8943 H         1 ADP238      0.0000 
     34 H          38.6097   33.3177   77.6870 H         1 ADP238      0.0000 
     35 H          44.5156   32.1835   78.2623 H         1 ADP238      0.0000 
     36 H          43.2237   33.0422   79.1674 H         1 ADP238      0.0000 
     37 H          42.5254   28.3519   77.0478 H         1 ADP238      0.0000 
     38 H          35.3326   29.3481   77.3117 H         1 ADP238      0.0000 
     39 H          35.9817   31.1283   79.2164 H         1 ADP238      0.0000 
@<TRIPOS>BOND
     1    2    1 ar   
     2    3    1 ar   
     3    4    1 ar   
     4    8    1 1    
     5    6    5 ar   
     6    7    5 ar   
     7    8    5 1    
     8    9    5 1    
     9   10    9 1    
    10   11   10 1    
    11   28   10 1    
    12   29   10 1    
    13   12   11 1    
    14   13   11 1    
    15   30   11 1    
    16   17   12 1    
    17   14   13 1    
    18   15   13 1    
    19   31   13 1    
    20   38   14 1    
    21   16   15 1    
    22   17   15 1    
    23   32   15 1    
    24   39   16 1    
    25   18   17 1    
    26   33   17 1    
    27   19   18 1    
    28   27   18 1    
    29   20   19 2    
    30   34   19 1    
    31   21   20 1    
    32   22   21 ar   
    33   27   21 ar   
    34   23   22 1    
    35   24   22 ar   
    36   35   23 1    
    37   36   23 1    
    38   25   24 ar   
    39   26   25 ar   
    40   37   25 1    
    41   27   26 ar   
@<TRIPOS>SUBSTRUCTURE
     1 ADP238      1 GROUP   
@<TRIPOS>SET

