#    Name: 1c0t_BM1_1_INTS_M
#    Modification time : Mon Mar 24 20:05:46 2014

@<TRIPOS>MOLECULE
1c0t_BM1_1_INTS_M
   52     0     3     0     0
SMALL
NO_CHARGES


@<TRIPOS>ATOM
      1 CA         -0.5535  -38.7470   26.2280 C.3       1 GLC5        0.0000 
      2 CA          1.1710  -38.5670   25.9760 C.3       3 GLL5        0.0000 
      3 CA         -2.2780  -38.9270   26.4800 C.3       2 GLP5        0.0000 
      4 CA          1.1860  -35.0260   21.1690 C.3       1 GLC5        0.0000 
      5 CA         -0.3590  -36.1790   22.0110 C.3       3 GLL5        0.0000 
      6 CA          2.7310  -33.8730   20.3270 C.3       2 GLP5        0.0000 
      7 CA         -1.5255  -37.3575   25.6195 C.3       1 GLC5        0.0000 
      8 CA         -0.7730  -35.7880   24.7590 C.3       3 GLL5        0.0000 
      9 CA          4.6860  -36.7740   26.3235 C.3       1 GLC5        0.0000 
     10 CA          3.2900  -35.2310   25.5730 C.3       3 GLL5        0.0000 
     11 CA          6.0820  -38.3170   27.0740 C.3       2 GLP5        0.0000 
     12 CA          6.4665  -32.8570   25.0725 C.3       1 GLC5        0.0000 
     13 CA          5.0610  -33.4940   25.9240 C.3       3 GLL5        0.0000 
     14 CA          7.8720  -32.2200   24.2210 C.3       2 GLP5        0.0000 
     15 CA          4.7960  -33.9295   23.9490 C.3       1 GLC5        0.0000 
     16 CA          4.5310  -34.3650   21.9740 C.3       2 GLP5        0.0000 
     17 CA          5.8095  -34.2770   27.4615 C.3       1 GLC5        0.0000 
     18 CA          6.5580  -35.0600   28.9990 C.3       2 GLP5        0.0000 
     19 CA          5.5065  -32.0655   26.9385 C.3       1 GLC5        0.0000 
     20 CA          5.9520  -30.6370   27.9530 C.3       2 GLP5        0.0000 
     21 CA          2.0983  -38.7720   27.2530 C.3       1 GLC5        0.0000 
     22 CA          2.4250  -38.5030   28.9790 C.3       2 GLP5        0.0000 
     23 CA          1.4803  -40.9090   26.4035 C.3       1 GLC5        0.0000 
     24 CA          1.1890  -42.7770   27.2800 C.3       2 GLP5        0.0000 
     25 CA          0.6062  -40.5925   24.7640 C.3       1 GLC5        0.0000 
     26 CA          2.3720  -39.5150   25.0780 C.3       3 GLL5        0.0000 
     27 CA         -0.5590  -42.1440   24.0010 C.3       2 GLP5        0.0000 
     28 CA          3.9127  -40.0558   23.6185 C.3       1 GLC5        0.0000 
     29 CA          5.0280  -41.0220   22.5070 C.3       2 GLP5        0.0000 
     30 CA          4.4398  -38.7032   25.9020 C.3       1 GLC5        0.0000 
     31 CA          3.2230  -38.6640   24.3820 C.3       3 GLL5        0.0000 
     32 CA          2.1330  -37.4895   27.2410 C.3       1 GLC5        0.0000 
     33 CA          1.5430  -37.0230   25.0430 C.3       3 GLL5        0.0000 
     34 CA          1.4848  -34.8675   23.1690 C.3       1 GLC5        0.0000 
     35 CA          0.3580  -36.4930   24.2980 C.3       3 GLL5        0.0000 
     36 CA          2.5130  -33.1460   22.7210 C.3       2 GLP5        0.0000 
     37 CA         -0.3750  -38.1140   21.4518 C.3       1 GLC5        0.0000 
     38 CA          0.5550  -36.6850   22.9360 C.3       3 GLL5        0.0000 
     39 CA         -0.8480  -39.7960   20.4300 C.3       2 GLP5        0.0000 
     40 CA         -1.2492  -37.8220   23.8565 C.3       1 GLC5        0.0000 
     41 CA         -2.9550  -39.0550   24.0960 C.3       2 GLP5        0.0000 
     42 CA         -3.5245  -35.8063   22.5780 C.3       1 GLC5        0.0000 
     43 CA         -1.4820  -35.4730   22.4650 C.3       3 GLL5        0.0000 
     44 CA         -5.4650  -36.2370   22.0030 C.3       2 GLP5        0.0000 
     45 CA         -2.1291  -37.3035   23.5678 C.3       1 GLC5        0.0000 
     46 CA         -1.6860  -35.2780   23.8410 C.3       3 GLL5        0.0000 
     47 CA         -1.7368  -33.8155   25.2650 C.3       1 GLC5        0.0000 
     48 CA         -2.2440  -32.0980   26.2300 C.3       2 GLP5        0.0000 
     49 CA          2.8929  -34.0215   24.3942 C.3       1 GLC5        0.0000 
     50 CA          2.1390  -35.9290   25.9630 C.3       3 GLL5        0.0000 
     51 CA          2.1042  -36.7935   28.2817 C.3       1 GLC5        0.0000 
     52 CA          1.5200  -35.5940   27.1810 C.3       3 GLL5        0.0000 
@<TRIPOS>BOND
@<TRIPOS>SUBSTRUCTURE
     1 GLC5        1 GROUP        1 X    GLC  0     ROOT GLC X 6
     2 GLP5        3 GROUP        1 Y    GLP  0     ROOT GLP Y 13
     3 GLL5        2 GROUP        1 Z    GLL  0     ROOT GLL Z 20
@<TRIPOS>SET

