#    Name: 1c0t_BM1_1_ligand
#    Modification time : Mon Mar 24 20:05:47 2014

@<TRIPOS>MOLECULE
1c0t_BM1_1_ligand
   35    38     1     0     0
SMALL
NO_CHARGES


@<TRIPOS>ATOM
      1 S1          1.1710  -38.5670   25.9760 S.3       1 BM1999      0.0000 
      2 C2          2.3720  -39.5150   25.0780 C.3       1 BM1999      0.0000 
      3 C3          3.2230  -38.6640   24.3820 C.3       1 BM1999      0.0000 
      4 C5          1.5430  -37.0230   25.0430 C.3       1 BM1999      0.0000 
      5 N4          2.4060  -37.5080   23.9760 N.am      1 BM1999      0.0000 
      6 C6          1.7690  -37.4540   22.7270 C.2       1 BM1999      0.0000 
      7 OE          2.1700  -37.9460   21.6930 O.2       1 BM1999      0.0000 
      8 C7          0.5550  -36.6850   22.9360 C.ar      1 BM1999      0.0000 
      9 C12         0.3580  -36.4930   24.2980 C.ar      1 BM1999      0.0000 
     10 C8         -0.3590  -36.1790   22.0110 C.ar      1 BM1999      0.0000 
     11 C9         -1.4820  -35.4730   22.4650 C.ar      1 BM1999      0.0000 
     12 C10        -1.6860  -35.2780   23.8410 C.ar      1 BM1999      0.0000 
     13 C11        -0.7730  -35.7880   24.7590 C.ar      1 BM1999      0.0000 
     14 C13         2.1390  -35.9290   25.9630 C.ar      1 BM1999      0.0000 
     15 C14         3.2900  -35.2310   25.5730 C.ar      1 BM1999      0.0000 
     16 C15         3.8310  -34.2140   26.3670 C.ar      1 BM1999      0.0000 
     17 CA          5.0610  -33.4940   25.9240 C.3       1 BM1999      0.0000 
     18 C16         3.2010  -33.8860   27.5830 C.ar      1 BM1999      0.0000 
     19 C17         2.0470  -34.5740   27.9880 C.ar      1 BM1999      0.0000 
     20 C18         1.5200  -35.5940   27.1810 C.ar      1 BM1999      0.0000 
     21 H           1.7315  -40.1531   24.4783 H         1 BM1999      0.0000 
     22 H           2.8197  -40.0983   25.8757 H         1 BM1999      0.0000 
     23 H           3.6372  -39.1347   23.4875 H         1 BM1999      0.0000 
     24 H           4.0510  -38.3108   25.0008 H         1 BM1999      0.0000 
     25 H          -0.2136  -36.3204   21.0092 H         1 BM1999      0.0000 
     26 H          -2.1576  -35.0972   21.7910 H         1 BM1999      0.0000 
     27 H          -2.5099  -34.7588   24.1633 H         1 BM1999      0.0000 
     28 H          -0.9137  -35.6569   25.7627 H         1 BM1999      0.0000 
     29 H           3.7493  -35.4740   24.6776 H         1 BM1999      0.0000 
     30 H           3.5881  -33.1425   28.1722 H         1 BM1999      0.0000 
     31 H           1.5899  -34.3321   28.8714 H         1 BM1999      0.0000 
     32 H           0.6783  -36.0993   27.4798 H         1 BM1999      0.0000 
     33 H           5.8361  -34.1161   25.8138 H         1 BM1999      0.0000 
     34 H           4.9266  -33.0348   25.0459 H         1 BM1999      0.0000 
     35 H           5.3385  -32.7936   26.5816 H         1 BM1999      0.0000 
@<TRIPOS>BOND
     1    2    1 1    
     2    4    1 1    
     3    3    2 1    
     4   21    2 1    
     5   22    2 1    
     6    5    3 1    
     7   23    3 1    
     8   24    3 1    
     9    5    4 1    
    10    9    4 1    
    11   14    4 1    
    12    6    5 am   
    13    7    6 2    
    14    8    6 1    
    15    9    8 ar   
    16   10    8 ar   
    17   13    9 ar   
    18   11   10 ar   
    19   25   10 1    
    20   12   11 ar   
    21   26   11 1    
    22   13   12 ar   
    23   27   12 1    
    24   28   13 1    
    25   15   14 ar   
    26   20   14 ar   
    27   16   15 ar   
    28   29   15 1    
    29   17   16 1    
    30   18   16 ar   
    31   33   17 1    
    32   34   17 1    
    33   35   17 1    
    34   19   18 ar   
    35   30   18 1    
    36   20   19 ar   
    37   31   19 1    
    38   32   20 1    
@<TRIPOS>SUBSTRUCTURE
     1 BM1999      1 GROUP   
@<TRIPOS>SET

