#    Name: 4jvj_1MV_1_INTS_M
#    Modification time : Tue Mar 25 06:36:17 2014

@<TRIPOS>MOLECULE
4jvj_1MV_1_INTS_M
   65     0    12     0     0
SMALL
NO_CHARGES


@<TRIPOS>ATOM
      1 NZ         16.1290   32.1975  -11.5895 N.4       2 LYC4        0.0000 
      2 NZ         15.9610   32.3150  -10.2440 N.4      10 LYL4        0.0000 
      3 NZ         16.2970   32.0800  -12.9350 N.4       6 LYP4        0.0000 
      4 N          16.1290   32.1975  -11.5895 N.am      1 SEC2        0.0000 
      5 N          15.9610   32.3150  -10.2440 N.am      9 SEL2        0.0000 
      6 N          16.2970   32.0800  -12.9350 N.am      5 SEP2        0.0000 
      7 Zn         18.2975   33.1190   -9.2870 Zn        3 ZIC7        0.0000 
      8 Zn         17.5570   33.6370   -8.9470 Zn       11 ZIL7        0.0000 
      9 Zn         19.0380   32.6010   -9.6270 Zn        7 ZIP7        0.0000 
     10 Zn         18.0160   34.2495   -8.1000 Zn        3 ZIC7        0.0000 
     11 Zn         18.4750   34.8620   -7.2530 Zn        7 ZIP7        0.0000 
     12 N          18.0635   33.1530   -7.7370 N.am      1 SEC2        0.0000 
     13 N          17.5570   33.6370   -8.9470 N.am      9 SEL2        0.0000 
     14 N          18.5700   32.6690   -6.5270 N.am      5 SEP2        0.0000 
     15 NZ         16.2770   33.4040  -11.9025 N.4       2 LYC4        0.0000 
     16 NZ         16.2570   34.7280  -10.8700 N.4      10 LYL4        0.0000 
     17 Zn         15.7545   35.6585  -10.7375 Zn        3 ZIC7        0.0000 
     18 Zn         16.2570   34.7280  -10.8700 Zn       11 ZIL7        0.0000 
     19 Zn         15.2520   36.5890  -10.6050 Zn        7 ZIP7        0.0000 
     20 N          16.2770   33.4040  -11.9025 N.am      1 SEC2        0.0000 
     21 N          16.2570   34.7280  -10.8700 N.am      9 SEL2        0.0000 
     22 NZ         14.3495   35.4255   -4.7175 N.4       2 LYC4        0.0000 
     23 NZ         14.9220   35.0810   -6.0500 N.4      10 LYL4        0.0000 
     24 NZ         15.0490   35.6540   -3.0240 N.4       6 LYP4        0.0000 
     25 N          14.3495   35.4255   -4.7175 N.am      1 SEC2        0.0000 
     26 N          14.9220   35.0810   -6.0500 N.am      9 SEL2        0.0000 
     27 N          13.7770   35.7700   -3.3850 N.am      5 SEP2        0.0000 
     28 N          15.4325   35.1335   -4.9755 N.am      1 SEC2        0.0000 
     29 N          15.9430   35.1860   -3.9010 N.am      5 SEP2        0.0000 
     30 Zn         17.5900   35.3665   -7.4395 Zn        3 ZIC7        0.0000 
     31 Zn         16.7050   35.8710   -7.6260 Zn       11 ZIL7        0.0000 
     32 CA         10.7670   30.7745  -10.7070 C.3       4 GLC5        0.0000 
     33 CA         12.0430   31.2580   -9.6210 C.3      12 GLL5        0.0000 
     34 CA          9.4910   30.2910  -11.7930 C.3       8 GLP5        0.0000 
     35 N          12.1525   29.9670  -11.0325 N.am      1 SEC2        0.0000 
     36 N          12.5260   29.9510   -9.5200 N.am      9 SEL2        0.0000 
     37 N          11.7790   29.9830  -12.5450 N.am      5 SEP2        0.0000 
     38 CA         14.1835   27.3075  -10.5115 C.3       4 GLC5        0.0000 
     39 CA         14.4350   28.3020   -8.5330 C.3      12 GLL5        0.0000 
     40 CA         13.9320   26.3130  -12.4900 C.3       8 GLP5        0.0000 
     41 CA         17.0850   30.6930   -6.0970 C.3       4 GLC5        0.0000 
     42 CA         15.4480   30.1770   -7.5500 C.3      12 GLL5        0.0000 
     43 CA         18.7220   31.2090   -4.6440 C.3       8 GLP5        0.0000 
     44 CA         17.2665   25.2330   -4.9600 C.3       4 GLC5        0.0000 
     45 CA         19.4090   25.2720   -5.5550 C.3      12 GLL5        0.0000 
     46 CA         15.1240   25.1940   -4.3650 C.3       8 GLP5        0.0000 
     47 CA         17.0155   27.4915   -4.0120 C.3       4 GLC5        0.0000 
     48 CA         18.2280   27.4280   -5.4520 C.3      12 GLL5        0.0000 
     49 CA         15.8030   27.5550   -2.5720 C.3       8 GLP5        0.0000 
     50 CA         14.6130   26.6870   -8.1282 C.3       4 GLC5        0.0000 
     51 CA         15.6110   28.8360   -7.6760 C.3      12 GLL5        0.0000 
     52 CA         14.2030   24.8050   -8.1520 C.3       8 GLP5        0.0000 
     53 CA         18.3272   26.0325   -8.7677 C.3       4 GLC5        0.0000 
     54 CA         16.8100   26.7570   -7.7420 C.3      12 GLL5        0.0000 
     55 CA         19.3720   25.7530  -10.0620 C.3       8 GLP5        0.0000 
     56 CA         15.7106   25.7147   -7.7395 C.3       4 GLC5        0.0000 
     57 CA         17.7550   25.8670   -7.2050 C.3      12 GLL5        0.0000 
     58 CA         18.2375   29.5405   -5.1835 C.3       4 GLC5        0.0000 
     59 CA         20.2580   27.3265   -5.6581 C.3       4 GLC5        0.0000 
     60 CA         21.9310   28.0740   -5.6870 C.3       8 GLP5        0.0000 
     61 CA         19.4610   26.5920   -7.4281 C.3       4 GLC5        0.0000 
     62 CA         20.3370   26.6050   -9.2270 C.3       8 GLP5        0.0000 
     63 CA         15.7410   27.9919   -5.2205 C.3       4 GLC5        0.0000 
     64 CA         17.2780   28.3160   -5.9940 C.3      12 GLL5        0.0000 
     65 CA         14.8020   27.6150   -3.7360 C.3       8 GLP5        0.0000 
@<TRIPOS>BOND
@<TRIPOS>SUBSTRUCTURE
     1 SEC2        4 GROUP        1 X    SEC  0     ROOT SEC X 2
     2 LYC4        1 GROUP        1 X    LYC  0     **** LYC X 4
     3 ZIC7        7 GROUP        1 X    ZIC  0     **** ZIC X 5
     4 GLC5       32 GROUP        1 X    GLC  0     **** GLC X 6
     5 SEP2        6 GROUP        1 Y    SEP  0     ROOT SEP Y 9
     6 LYP4        3 GROUP        1 Y    LYP  0     **** LYP Y 11
     7 ZIP7        9 GROUP        1 Y    ZIP  0     **** ZIP Y 12
     8 GLP5       34 GROUP        1 Y    GLP  0     **** GLP Y 13
     9 SEL2        5 GROUP        1 Z    SEL  0     ROOT SEL Z 16
    10 LYL4        2 GROUP        1 Z    LYL  0     **** LYL Z 18
    11 ZIL7        8 GROUP        1 Z    ZIL  0     **** ZIL Z 19
    12 GLL5       33 GROUP        1 Z    GLL  0     **** GLL Z 20
@<TRIPOS>SET

