#    Name: 4jvj_1MV_1_ligand
#    Modification time : Tue Mar 25 06:36:17 2014

@<TRIPOS>MOLECULE
4jvj_1MV_1_ligand
   37    39     1     0     0
SMALL
NO_CHARGES


@<TRIPOS>ATOM
      1 OAU        15.9610   32.3150  -10.2440 O.co2     1 1MV401      0.0000 
      2 PAS        16.3110   33.7740   -9.7350 P.3       1 1MV401      0.0000 
      3 OAV        17.5570   33.6370   -8.9470 O.co2     1 1MV401      0.0000 
      4 OAW        16.2570   34.7280  -10.8700 O.co2     1 1MV401      0.0000 
      5 CAR        14.8690   34.1420   -8.5700 C.3       1 1MV401      0.0000 
      6 PAT        15.2550   35.6150   -7.5260 P.3       1 1MV401      0.0000 
      7 OAX        14.9220   35.0810   -6.0500 O.co2     1 1MV401      0.0000 
      8 OAZ        16.7050   35.8710   -7.6260 O.co2     1 1MV401      0.0000 
      9 OAY        14.3090   36.7220   -7.8550 O.co2     1 1MV401      0.0000 
     10 NAJ        14.5410   32.9530   -7.7370 N.pl3     1 1MV401      0.0000 
     11 C4         13.8710   31.9480   -8.2990 C.ar      1 1MV401      0.0000 
     12 N3         12.7620   32.2600   -8.9890 N.ar      1 1MV401      0.0000 
     13 C2         12.0430   31.2580   -9.6210 C.ar      1 1MV401      0.0000 
     14 N1         12.5260   29.9510   -9.5200 N.ar      1 1MV401      0.0000 
     15 C6         13.6530   29.7060   -8.8170 C.ar      1 1MV401      0.0000 
     16 SAE        14.4350   28.3020   -8.5330 S.3       1 1MV401      0.0000 
     17 C5         14.3500   30.6820   -8.1960 C.ar      1 1MV401      0.0000 
     18 CAC        15.4480   30.1770   -7.5500 C.2       1 1MV401      0.0000 
     19 CAD        15.6110   28.8360   -7.6760 C.2       1 1MV401      0.0000 
     20 CAK        16.5530   28.0070   -7.1560 C.ar      1 1MV401      0.0000 
     21 CAL        16.8100   26.7570   -7.7420 C.ar      1 1MV401      0.0000 
     22 CAM        17.7550   25.8670   -7.2050 C.ar      1 1MV401      0.0000 
     23 CAN        18.4750   26.1880   -6.0580 C.ar      1 1MV401      0.0000 
     24 CAQ        19.4090   25.2720   -5.5550 C.3       1 1MV401      0.0000 
     25 CAO        18.2280   27.4280   -5.4520 C.ar      1 1MV401      0.0000 
     26 CAP        17.2780   28.3160   -5.9940 C.ar      1 1MV401      0.0000 
     27 H          14.1131   34.4724   -9.2225 H         1 1MV401      0.0000 
     28 H          14.8517   32.9764   -6.7724 H         1 1MV401      0.0000 
     29 H          11.1976   31.4603  -10.1385 H         1 1MV401      0.0000 
     30 H          16.0754   30.7569   -7.0286 H         1 1MV401      0.0000 
     31 H          16.2879   26.4831   -8.5947 H         1 1MV401      0.0000 
     32 H          17.9142   24.9597   -7.6739 H         1 1MV401      0.0000 
     33 H          18.7437   27.6946   -4.6036 H         1 1MV401      0.0000 
     34 H          17.1111   29.2223   -5.5201 H         1 1MV401      0.0000 
     35 H          20.1284   25.0720   -6.2202 H         1 1MV401      0.0000 
     36 H          19.8592   25.6154   -4.7308 H         1 1MV401      0.0000 
     37 H          18.9819   24.4005   -5.3142 H         1 1MV401      0.0000 
@<TRIPOS>BOND
     1    2    1 ar   
     2    3    2 ar   
     3    4    2 ar   
     4    5    2 1    
     5    6    5 1    
     6   10    5 1    
     7   27    5 1    
     8    7    6 ar   
     9    8    6 ar   
    10    9    6 ar   
    11   11   10 1    
    12   28   10 1    
    13   12   11 ar   
    14   17   11 ar   
    15   13   12 ar   
    16   14   13 ar   
    17   29   13 1    
    18   15   14 ar   
    19   16   15 1    
    20   17   15 ar   
    21   19   16 1    
    22   18   17 1    
    23   19   18 2    
    24   30   18 1    
    25   20   19 1    
    26   21   20 ar   
    27   26   20 ar   
    28   22   21 ar   
    29   31   21 1    
    30   23   22 ar   
    31   32   22 1    
    32   24   23 1    
    33   25   23 ar   
    34   35   24 1    
    35   36   24 1    
    36   37   24 1    
    37   26   25 ar   
    38   33   25 1    
    39   34   26 1    
@<TRIPOS>SUBSTRUCTURE
     1 1MV401      1 GROUP   
@<TRIPOS>SET

