#    Name: 2ydx_TXP_11_INTS_M
#    Modification time : Tue Mar 25 08:44:45 2014

@<TRIPOS>MOLECULE
2ydx_TXP_11_INTS_M
  120     0    12     0     0
SMALL
NO_CHARGES


@<TRIPOS>ATOM
      1 NZ         -7.8505  -58.4670  -63.5775 N.4       3 LYC4        0.0000 
      2 NZ         -8.4740  -59.4720  -64.4910 N.4      11 LYL4        0.0000 
      3 NZ         -6.3730  -57.6270  -61.6610 N.4       7 LYP4        0.0000 
      4 N          -7.8505  -58.4670  -63.5775 N.am      2 SEC2        0.0000 
      5 N          -8.4740  -59.4720  -64.4910 N.am     10 SEL2        0.0000 
      6 N          -7.2270  -57.4620  -62.6640 N.am      6 SEP2        0.0000 
      7 N          -7.6620  -62.5870  -65.3585 N.am      2 SEC2        0.0000 
      8 N          -7.1930  -61.2140  -65.4200 N.am     10 SEL2        0.0000 
      9 N          -8.1310  -63.9600  -65.2970 N.am      6 SEP2        0.0000 
     10 CA         -9.3425  -61.5910  -67.3715 C.3       4 GLC5        0.0000 
     11 CA         -8.8370  -59.8470  -67.7630 C.3      12 GLL5        0.0000 
     12 CA         -9.8480  -63.3350  -66.9800 C.3       8 GLP5        0.0000 
     13 CA         -8.1325  -61.0235  -69.3935 C.3       4 GLC5        0.0000 
     14 CA         -7.4280  -62.2000  -71.0240 C.3       8 GLP5        0.0000 
     15 CA        -10.5155  -60.7085  -68.6655 C.3       4 GLC5        0.0000 
     16 CA         -9.5890  -58.9160  -68.6080 C.3      12 GLL5        0.0000 
     17 CA        -11.4420  -62.5010  -68.7230 C.3       8 GLP5        0.0000 
     18 CA         -8.5620  -59.9095  -70.2130 C.3       4 GLC5        0.0000 
     19 CA         -7.5350  -60.9030  -71.8180 C.3       8 GLP5        0.0000 
     20 CA         -8.7010  -55.6150  -66.2785 C.3       4 GLC5        0.0000 
     21 CA         -9.7490  -56.8370  -67.7890 C.3      12 GLL5        0.0000 
     22 CA         -7.6530  -54.3930  -64.7680 C.3       8 GLP5        0.0000 
     23 N         -10.1585  -54.5945  -67.1715 N.am      2 SEC2        0.0000 
     24 N          -9.5590  -55.5140  -67.8050 N.am     10 SEL2        0.0000 
     25 N         -10.7580  -53.6750  -66.5380 N.am      6 SEP2        0.0000 
     26 CA        -11.8380  -58.4200  -69.2430 C.3       4 GLC5        0.0000 
     27 CA        -11.1040  -57.3330  -67.8570 C.3      12 GLL5        0.0000 
     28 CA        -12.5720  -59.5070  -70.6290 C.3       8 GLP5        0.0000 
     29 CA        -12.8170  -58.3750  -68.7920 C.3       4 GLC5        0.0000 
     30 CA        -13.0620  -57.2430  -66.9550 C.3      12 GLL5        0.0000 
     31 CA        -12.7460  -59.1765  -65.8845 C.3       4 GLC5        0.0000 
     32 CA        -12.4300  -61.1100  -64.8140 C.3       8 GLP5        0.0000 
     33 CA        -14.7850  -57.5225  -62.7040 C.3       4 GLC5        0.0000 
     34 CA        -13.6910  -57.3010  -64.4400 C.3      12 GLL5        0.0000 
     35 CA        -15.8790  -57.7440  -60.9680 C.3       8 GLP5        0.0000 
     36 N         -13.3385  -58.8540  -61.5190 N.am      2 SEC2        0.0000 
     37 N         -12.2680  -58.0350  -61.8430 N.am     10 SEL2        0.0000 
     38 N         -14.4090  -59.6730  -61.1950 N.am      6 SEP2        0.0000 
     39 CA         -9.5520  -56.5810  -64.1690 C.3       4 GLC5        0.0000 
     40 CA        -11.3640  -56.9900  -65.2370 C.3      12 GLL5        0.0000 
     41 CA         -7.7400  -56.1720  -63.1010 C.3       8 GLP5        0.0000 
     42 NZ         -5.1995  -57.9370  -63.0130 N.4       3 LYC4        0.0000 
     43 NZ         -4.0260  -58.2470  -64.3650 N.4      11 LYL4        0.0000 
     44 NZ         -5.6610  -59.0355  -62.7410 N.4       3 LYC4        0.0000 
     45 NZ         -4.9490  -60.4440  -63.8210 N.4      11 LYL4        0.0000 
     46 N          -5.2205  -61.9380  -63.9310 N.am      2 SEC2        0.0000 
     47 N          -4.9490  -60.4440  -63.8210 N.am     10 SEL2        0.0000 
     48 N          -5.4920  -63.4320  -64.0410 N.am      6 SEP2        0.0000 
     49 CA         -3.3715  -59.5530  -69.6790 C.3       4 GLC5        0.0000 
     50 CA         -2.5160  -60.0800  -67.9770 C.3      12 GLL5        0.0000 
     51 CA         -4.2270  -59.0260  -71.3810 C.3       8 GLP5        0.0000 
     52 O          -0.3980  -62.9505  -67.7755 O.2       1 ALC1        0.0000 
     53 O          -1.3300  -61.9970  -67.9680 O.2       9 ALL1        0.0000 
     54 O           0.5340  -63.9040  -67.5830 O.2       5 ALP1        0.0000 
     55 CA         -1.8810  -61.0760  -69.9040 C.3       4 GLC5        0.0000 
     56 CA         -0.6720  -59.5140  -69.0510 C.3      12 GLL5        0.0000 
     57 CA         -3.0900  -62.6380  -70.7570 C.3       8 GLP5        0.0000 
     58 CA         -1.8415  -59.3510  -70.6625 C.3       4 GLC5        0.0000 
     59 CA         -3.0110  -59.1880  -72.2740 C.3       8 GLP5        0.0000 
     60 NZ          1.5290  -61.9805  -64.6800 N.4       3 LYC4        0.0000 
     61 NZ          1.6770  -61.1130  -65.7670 N.4      11 LYL4        0.0000 
     62 NZ          0.1050  -62.7750  -63.2410 N.4       7 LYP4        0.0000 
     63 N           1.5290  -61.9805  -64.6800 N.am      2 SEC2        0.0000 
     64 N           1.6770  -61.1130  -65.7670 N.am     10 SEL2        0.0000 
     65 N           1.3810  -62.8480  -63.5930 N.am      6 SEP2        0.0000 
     66 N           0.4825  -61.5215  -64.8115 N.am      2 SEC2        0.0000 
     67 N          -0.7120  -61.9300  -63.8560 N.am      6 SEP2        0.0000 
     68 N           1.7320  -63.1105  -67.4670 N.am      2 SEC2        0.0000 
     69 N           2.9300  -62.3170  -67.3510 N.am     10 SEL2        0.0000 
     70 N           0.5340  -63.9040  -67.5830 N.am      6 SEP2        0.0000 
     71 N           3.2730  -62.4885  -68.7585 N.am      2 SEC2        0.0000 
     72 N           3.6160  -62.6600  -70.1660 N.am      6 SEP2        0.0000 
     73 N           4.0535  -62.8810  -66.8040 N.am      2 SEC2        0.0000 
     74 N           5.1770  -63.4450  -66.2570 N.am      6 SEP2        0.0000 
     75 N           4.3110  -60.6430  -67.5860 N.am      2 SEC2        0.0000 
     76 N           3.0980  -60.0190  -67.1720 N.am     10 SEL2        0.0000 
     77 N           5.5240  -61.2670  -68.0000 N.am      6 SEP2        0.0000 
     78 CA         -1.1095  -58.8465  -71.5115 C.3       4 GLC5        0.0000 
     79 CA          0.7920  -58.5050  -70.7490 C.3      12 GLL5        0.0000 
     80 CA          2.9385  -59.7900  -71.5345 C.3       4 GLC5        0.0000 
     81 CA          1.7150  -59.2940  -72.7240 C.3      12 GLL5        0.0000 
     82 CA          4.1620  -60.2860  -70.3450 C.3       8 GLP5        0.0000 
     83 CA          3.3850  -58.8670  -74.0525 C.3       4 GLC5        0.0000 
     84 CA          5.0550  -58.4400  -75.3810 C.3       8 GLP5        0.0000 
     85 CA          0.7590  -58.9725  -74.3350 C.3       4 GLC5        0.0000 
     86 CA         -0.1970  -58.6510  -75.9460 C.3       8 GLP5        0.0000 
     87 N           2.5805  -57.9035  -74.4690 N.am      2 SEC2        0.0000 
     88 N           2.3370  -58.1430  -72.9680 N.am     10 SEL2        0.0000 
     89 N           2.8240  -57.6640  -75.9700 N.am      6 SEP2        0.0000 
     90 CA          1.2900  -57.1900  -74.1205 C.3       4 GLC5        0.0000 
     91 CA          2.1800  -57.1330  -72.0900 C.3      12 GLL5        0.0000 
     92 CA          0.4000  -57.2470  -76.1510 C.3       8 GLP5        0.0000 
     93 O           3.8310  -55.8295  -73.3545 O.2       1 ALC1        0.0000 
     94 O           2.8030  -55.8900  -72.3060 O.2       9 ALL1        0.0000 
     95 O           4.8590  -55.7690  -74.4030 O.2       5 ALP1        0.0000 
     96 CA        -10.9292  -58.8717  -69.6520 C.3       4 GLC5        0.0000 
     97 CA         -8.9840  -57.5570  -68.7420 C.3      12 GLL5        0.0000 
     98 CA         -7.8532  -56.2875  -69.0468 C.3       4 GLC5        0.0000 
     99 CA         -6.3400  -55.3780  -69.8280 C.3       8 GLP5        0.0000 
    100 CA        -10.4636  -55.6365  -69.2946 C.3       4 GLC5        0.0000 
    101 CA        -10.6920  -54.0080  -70.5280 C.3       8 GLP5        0.0000 
    102 CA        -14.5685  -55.6252  -67.4515 C.3       4 GLC5        0.0000 
    103 CA        -15.5680  -54.0710  -68.4900 C.3       8 GLP5        0.0000 
    104 CA        -14.5685  -58.2873  -67.2640 C.3       4 GLC5        0.0000 
    105 CA        -14.0760  -57.1160  -65.8710 C.3      12 GLL5        0.0000 
    106 CA        -15.5680  -59.3950  -68.1150 C.3       8 GLP5        0.0000 
    107 CA        -15.9878  -57.2088  -64.6358 C.3       4 GLC5        0.0000 
    108 CA        -18.0920  -57.2090  -64.1160 C.3       8 GLP5        0.0000 
    109 CA        -13.7112  -59.0648  -64.4972 C.3       4 GLC5        0.0000 
    110 CA        -13.5390  -60.9210  -63.8390 C.3       8 GLP5        0.0000 
    111 CA        -12.1178  -59.2025  -64.7707 C.3       4 GLC5        0.0000 
    112 CA        -12.2470  -57.6000  -64.2180 C.3      12 GLL5        0.0000 
    113 CA         -2.5192  -61.5355  -69.2265 C.3       4 GLC5        0.0000 
    114 CA         -2.8425  -61.7895  -66.4939 C.3       4 GLC5        0.0000 
    115 CA         -1.3810  -60.7860  -67.4150 C.3      12 GLL5        0.0000 
    116 CA         -3.5540  -63.3380  -65.5400 C.3       8 GLP5        0.0000 
    117 CA          2.9004  -58.9013  -70.9082 C.3       4 GLC5        0.0000 
    118 CA          0.6083  -55.9675  -72.2763 C.3       4 GLC5        0.0000 
    119 CA          1.4030  -57.2950  -70.9570 C.3      12 GLL5        0.0000 
    120 CA         -0.5750  -54.7210  -73.0290 C.3       8 GLP5        0.0000 
@<TRIPOS>BOND
@<TRIPOS>SUBSTRUCTURE
     1 ALC1       52 GROUP        1 X    ALC  0     ROOT ALC X 1
     2 SEC2        4 GROUP        1 X    SEC  0     **** SEC X 2
     3 LYC4        1 GROUP        1 X    LYC  0     **** LYC X 4
     4 GLC5       10 GROUP        1 X    GLC  0     **** GLC X 6
     5 ALP1       54 GROUP        1 Y    ALP  0     ROOT ALP Y 8
     6 SEP2        6 GROUP        1 Y    SEP  0     **** SEP Y 9
     7 LYP4        3 GROUP        1 Y    LYP  0     **** LYP Y 11
     8 GLP5       12 GROUP        1 Y    GLP  0     **** GLP Y 13
     9 ALL1       53 GROUP        1 Z    ALL  0     ROOT ALL Z 15
    10 SEL2        5 GROUP        1 Z    SEL  0     **** SEL Z 16
    11 LYL4        2 GROUP        1 Z    LYL  0     **** LYL Z 18
    12 GLL5       11 GROUP        1 Z    GLL  0     **** GLL Z 20
@<TRIPOS>SET

