#    Name: 2ydx_TXP_11_ligand
#    Modification time : Tue Mar 25 08:44:45 2014

@<TRIPOS>MOLECULE
2ydx_TXP_11_ligand
   77    81     1     0     0
SMALL
NO_CHARGES


@<TRIPOS>ATOM
      1 O2N        -8.4740  -59.4720  -64.4910 O.co2     1 TXP1339     0.0000 
      2 PN         -7.4610  -59.8020  -65.4460 P.3       1 TXP1339     0.0000 
      3 O1N        -7.1930  -61.2140  -65.4200 O.co2     1 TXP1339     0.0000 
      4 O5'A       -7.9800  -59.3160  -66.8190 O.3       1 TXP1339     0.0000 
      5 C5'A       -8.8370  -59.8470  -67.7630 C.3       1 TXP1339     0.0000 
      6 C4'A       -9.5890  -58.9160  -68.6080 C.3       1 TXP1339     0.0000 
      7 C3'A       -8.9840  -57.5570  -68.7420 C.3       1 TXP1339     0.0000 
      8 O3'A       -9.1230  -56.9870  -69.9830 O.3       1 TXP1339     0.0000 
      9 C2'A       -9.7490  -56.8370  -67.7890 C.3       1 TXP1339     0.0000 
     10 O2'A       -9.5590  -55.5140  -67.8050 O.3       1 TXP1339     0.0000 
     11 C1'A      -11.1040  -57.3330  -67.8570 C.3       1 TXP1339     0.0000 
     12 N1N       -11.7000  -57.1730  -66.6000 N.4       1 TXP1339     0.0000 
     13 C6N       -13.0620  -57.2430  -66.9550 C.3       1 TXP1339     0.0000 
     14 C5N       -14.0760  -57.1160  -65.8710 C.2       1 TXP1339     0.0000 
     15 C4N       -13.6910  -57.3010  -64.4400 C.2       1 TXP1339     0.0000 
     16 C3N       -12.2470  -57.6000  -64.2180 C.3       1 TXP1339     0.0000 
     17 C7N       -11.6020  -57.9710  -62.8620 C.2       1 TXP1339     0.0000 
     18 O7N       -12.2680  -58.0350  -61.8430 O.2       1 TXP1339     0.0000 
     19 N7N       -10.1850  -58.2470  -62.7780 N.am      1 TXP1339     0.0000 
     20 C2N       -11.3640  -56.9900  -65.2370 C.3       1 TXP1339     0.0000 
     21 O4'A      -10.7650  -58.7370  -67.9160 O.3       1 TXP1339     0.0000 
     22 O3         -6.1440  -58.9950  -65.3340 O.3       1 TXP1339     0.0000 
     23 PA         -4.7240  -59.4260  -64.8700 P.3       1 TXP1339     0.0000 
     24 O1A        -4.0260  -58.2470  -64.3650 O.co2     1 TXP1339     0.0000 
     25 O2A        -4.9490  -60.4440  -63.8210 O.co2     1 TXP1339     0.0000 
     26 O5'        -3.7300  -59.9620  -65.8800 O.3       1 TXP1339     0.0000 
     27 C5'        -3.2460  -59.3120  -66.9840 C.3       1 TXP1339     0.0000 
     28 C4'        -2.5160  -60.0800  -67.9770 C.3       1 TXP1339     0.0000 
     29 C3'        -1.3810  -60.7860  -67.4150 C.3       1 TXP1339     0.0000 
     30 O3'        -1.3300  -61.9970  -67.9680 O.3       1 TXP1339     0.0000 
     31 O4'        -1.9640  -59.1450  -68.8270 O.3       1 TXP1339     0.0000 
     32 C1'        -0.6720  -59.5140  -69.0510 C.3       1 TXP1339     0.0000 
     33 C2'        -0.1770  -60.1040  -67.7930 C.3       1 TXP1339     0.0000 
     34 O2'         0.9150  -60.9420  -67.9840 O.3       1 TXP1339     0.0000 
     35 P2          2.1820  -61.1130  -67.1130 P.3       1 TXP1339     0.0000 
     36 OP3         1.6770  -61.1130  -65.7670 O.co2     1 TXP1339     0.0000 
     37 OP2         2.9300  -62.3170  -67.3510 O.co2     1 TXP1339     0.0000 
     38 OP1         3.0980  -60.0190  -67.1720 O.co2     1 TXP1339     0.0000 
     39 N9A         0.1010  -58.4120  -69.6050 N.pl3     1 TXP1339     0.0000 
     40 C4A         0.7920  -58.5050  -70.7490 C.ar      1 TXP1339     0.0000 
     41 N3A         0.9730  -59.4810  -71.6400 N.ar      1 TXP1339     0.0000 
     42 C2A         1.7150  -59.2940  -72.7240 C.ar      1 TXP1339     0.0000 
     43 N1A         2.3370  -58.1430  -72.9680 N.ar      1 TXP1339     0.0000 
     44 C6A         2.1800  -57.1330  -72.0900 C.ar      1 TXP1339     0.0000 
     45 N6A         2.8030  -55.8900  -72.3060 N.pl3     1 TXP1339     0.0000 
     46 C5A         1.4030  -57.2950  -70.9570 C.ar      1 TXP1339     0.0000 
     47 N7A         1.0580  -56.5400  -69.9300 N.2       1 TXP1339     0.0000 
     48 C8A         0.2560  -57.2060  -69.1070 C.2       1 TXP1339     0.0000 
     49 H          -9.5938  -60.5486  -67.2708 H         1 TXP1339     0.0000 
     50 H          -8.2779  -60.5627  -68.4575 H         1 TXP1339     0.0000 
     51 H          -9.7669  -59.3380  -69.5661 H         1 TXP1339     0.0000 
     52 H          -7.9681  -57.6189  -68.3944 H         1 TXP1339     0.0000 
     53 H          -9.3591  -57.2493  -66.7601 H         1 TXP1339     0.0000 
     54 H         -11.6052  -57.0260  -68.6569 H         1 TXP1339     0.0000 
     55 H         -11.8027  -55.7494  -66.8404 H         1 TXP1339     0.0000 
     56 H         -13.2784  -58.2140  -67.5079 H         1 TXP1339     0.0000 
     57 H         -13.3078  -56.4577  -67.7412 H         1 TXP1339     0.0000 
     58 H         -15.0258  -56.9045  -66.1026 H         1 TXP1339     0.0000 
     59 H         -14.3200  -57.2331  -63.7250 H         1 TXP1339     0.0000 
     60 H         -12.2411  -58.8038  -64.7376 H         1 TXP1339     0.0000 
     61 H          -9.6679  -58.1568  -63.6292 H         1 TXP1339     0.0000 
     62 H          -9.8397  -58.5051  -61.8757 H         1 TXP1339     0.0000 
     63 H         -11.2803  -55.8804  -65.0003 H         1 TXP1339     0.0000 
     64 H         -10.3061  -57.3600  -65.0418 H         1 TXP1339     0.0000 
     65 H          -2.5777  -58.4310  -66.6729 H         1 TXP1339     0.0000 
     66 H          -4.0924  -58.7610  -67.5313 H         1 TXP1339     0.0000 
     67 H          -3.1588  -60.7436  -68.4941 H         1 TXP1339     0.0000 
     68 H          -1.4651  -60.8117  -66.3481 H         1 TXP1339     0.0000 
     69 H          -0.6734  -60.3485  -69.8087 H         1 TXP1339     0.0000 
     70 H          -0.0079  -59.2964  -67.1083 H         1 TXP1339     0.0000 
     71 H           1.8172  -60.0897  -73.4225 H         1 TXP1339     0.0000 
     72 H           3.3051  -55.7929  -73.1653 H         1 TXP1339     0.0000 
     73 H           2.6905  -55.2097  -71.5818 H         1 TXP1339     0.0000 
     74 H          -0.1377  -56.8589  -68.2918 H         1 TXP1339     0.0000 
     75 H          -9.4496  -56.0585  -69.8061 H         1 TXP1339     0.0000 
     76 H          -8.6272  -55.3823  -67.4667 H         1 TXP1339     0.0000 
     77 H          -0.4869  -62.4057  -67.6185 H         1 TXP1339     0.0000 
@<TRIPOS>BOND
     1    2    1 ar   
     2    3    2 ar   
     3    4    2 1    
     4   22    2 1    
     5    5    4 1    
     6    6    5 1    
     7   49    5 1    
     8   50    5 1    
     9    7    6 1    
    10   21    6 1    
    11   51    6 1    
    12    8    7 1    
    13    9    7 1    
    14   52    7 1    
    15   75    8 1    
    16   10    9 1    
    17   11    9 1    
    18   53    9 1    
    19   76   10 1    
    20   12   11 1    
    21   21   11 1    
    22   54   11 1    
    23   13   12 1    
    24   20   12 1    
    25   55   12 1    
    26   14   13 1    
    27   56   13 1    
    28   57   13 1    
    29   15   14 2    
    30   58   14 1    
    31   16   15 1    
    32   59   15 1    
    33   17   16 1    
    34   20   16 1    
    35   60   16 1    
    36   18   17 2    
    37   19   17 am   
    38   61   19 1    
    39   62   19 1    
    40   63   20 1    
    41   64   20 1    
    42   23   22 1    
    43   24   23 ar   
    44   25   23 ar   
    45   26   23 1    
    46   27   26 1    
    47   28   27 1    
    48   65   27 1    
    49   66   27 1    
    50   29   28 1    
    51   31   28 1    
    52   67   28 1    
    53   30   29 1    
    54   33   29 1    
    55   68   29 1    
    56   77   30 1    
    57   32   31 1    
    58   33   32 1    
    59   39   32 1    
    60   69   32 1    
    61   34   33 1    
    62   70   33 1    
    63   35   34 1    
    64   36   35 ar   
    65   37   35 ar   
    66   38   35 ar   
    67   40   39 1    
    68   48   39 1    
    69   41   40 ar   
    70   46   40 ar   
    71   42   41 ar   
    72   43   42 ar   
    73   71   42 1    
    74   44   43 ar   
    75   45   44 1    
    76   46   44 ar   
    77   72   45 1    
    78   73   45 1    
    79   47   46 1    
    80   48   47 2    
    81   74   48 1    
@<TRIPOS>SUBSTRUCTURE
     1 TXP1339     1 GROUP   
@<TRIPOS>SET

