#    Name: 3ho0_DKD_1_INTS_M
#    Modification time : Tue Mar 25 14:33:43 2014

@<TRIPOS>MOLECULE
3ho0_DKD_1_INTS_M
   71     0     6     0     0
SMALL
NO_CHARGES


@<TRIPOS>ATOM
      1 CA         18.1390   60.8305   20.4565 C.3       2 GLC5        0.0000 
      2 CA         18.6020   61.6700   18.5650 C.3       6 GLL5        0.0000 
      3 CA         17.6760   59.9910   22.3480 C.3       4 GLP5        0.0000 
      4 CA         18.9600   59.5155   18.3295 C.3       2 GLC5        0.0000 
      5 CA         19.3180   57.3610   18.0940 C.3       4 GLP5        0.0000 
      6 N          21.5360   61.9690   20.5080 N.am      1 SEC2        0.0000 
      7 N          20.5380   62.7070   20.9200 N.am      5 SEL2        0.0000 
      8 N          22.5340   61.2310   20.0960 N.am      3 SEP2        0.0000 
      9 N          20.5605   61.9100   22.0430 N.am      1 SEC2        0.0000 
     10 N          20.5830   61.1130   23.1660 N.am      3 SEP2        0.0000 
     11 N          18.0365   62.2035   22.0955 N.am      1 SEC2        0.0000 
     12 N          18.4050   63.2470   21.1230 N.am      5 SEL2        0.0000 
     13 N          17.6680   61.1600   23.0680 N.am      3 SEP2        0.0000 
     14 CA         20.2585   64.3220   16.3905 C.3       2 GLC5        0.0000 
     15 CA         21.1940   64.2550   18.3760 C.3       6 GLL5        0.0000 
     16 CA         19.3230   64.3890   14.4050 C.3       4 GLP5        0.0000 
     17 CA         19.0530   66.7260   17.9780 C.3       2 GLC5        0.0000 
     18 CA         20.5370   65.4430   18.6830 C.3       6 GLL5        0.0000 
     19 CA         17.5690   68.0090   17.2730 C.3       4 GLP5        0.0000 
     20 CA         19.8290   67.8985   18.2590 C.3       2 GLC5        0.0000 
     21 CA         21.2380   66.6430   18.7060 C.3       6 GLL5        0.0000 
     22 CA         18.4200   69.1540   17.8120 C.3       4 GLP5        0.0000 
     23 CA         21.1960   67.2250   20.8070 C.3       2 GLC5        0.0000 
     24 CA         21.1540   67.8070   22.9080 C.3       4 GLP5        0.0000 
     25 CA         23.3740   68.0700   16.1430 C.3       2 GLC5        0.0000 
     26 CA         23.3540   67.9930   18.3190 C.3       6 GLL5        0.0000 
     27 CA         23.3940   68.1470   13.9670 C.3       4 GLP5        0.0000 
     28 CA         20.4120   69.1730   18.0560 C.3       2 GLC5        0.0000 
     29 CA         22.4040   69.1920   18.3000 C.3       6 GLL5        0.0000 
     30 CA         25.0810   73.0575   18.8065 C.3       2 GLC5        0.0000 
     31 CA         23.7230   72.7590   17.9890 C.3       6 GLL5        0.0000 
     32 CA         26.4390   73.3560   19.6240 C.3       4 GLP5        0.0000 
     33 CA         25.6460   73.1010   17.4725 C.3       2 GLC5        0.0000 
     34 CA         24.3300   72.7230   16.7380 C.3       6 GLL5        0.0000 
     35 CA         26.9620   73.4790   18.2070 C.3       4 GLP5        0.0000 
     36 CA         18.1440   62.9012   15.1410 C.3       2 GLC5        0.0000 
     37 CA         17.0730   61.5000   16.5580 C.3       6 GLL5        0.0000 
     38 CA         16.6232   62.8655   17.9490 C.3       2 GLC5        0.0000 
     39 CA         15.5250   64.2290   19.0880 C.3       4 GLP5        0.0000 
     40 CA         18.9543   62.7767   14.4965 C.3       2 GLC5        0.0000 
     41 CA         17.9370   61.1620   14.3370 C.3       6 GLL5        0.0000 
     42 CA         20.0607   60.3798   13.4580 C.3       2 GLC5        0.0000 
     43 CA         19.2340   61.1670   14.8390 C.3       6 GLL5        0.0000 
     44 CA         21.5360   59.5950   12.3280 C.3       4 GLP5        0.0000 
     45 CA         17.9413   59.3384   14.0329 C.3       2 GLC5        0.0000 
     46 CA         17.5670   57.4710   13.2630 C.3       4 GLP5        0.0000 
     47 CA         19.1163   62.9045   15.5187 C.3       2 GLC5        0.0000 
     48 CA         19.4490   61.3360   16.2030 C.3       6 GLL5        0.0000 
     49 CA         16.4318   60.0174   17.1108 C.3       2 GLC5        0.0000 
     50 CA         18.3700   61.5040   17.0620 C.3       6 GLL5        0.0000 
     51 CA         15.1960   58.5760   17.7520 C.3       4 GLP5        0.0000 
     52 CA         17.2280   63.2835   18.9143 C.3       2 GLC5        0.0000 
     53 CA         23.2160   64.2080   19.6985 C.3       2 GLC5        0.0000 
     54 CA         24.5560   64.1490   21.1570 C.3       4 GLP5        0.0000 
     55 CA         23.7420   65.1105   19.7123 C.3       2 GLC5        0.0000 
     56 CA         23.2580   65.4780   18.1200 C.3       6 GLL5        0.0000 
     57 CA         24.5635   69.6868   18.3978 C.3       2 GLC5        0.0000 
     58 CA         26.2480   70.7810   18.4860 C.3       4 GLP5        0.0000 
     59 CA         22.4473   72.1262   16.6668 C.3       2 GLC5        0.0000 
     60 CA         23.1050   70.4420   17.7650 C.3       6 GLL5        0.0000 
     61 CA         21.7860   73.2210   15.2000 C.3       4 GLP5        0.0000 
     62 CA         24.6782   70.9062   18.3098 C.3       2 GLC5        0.0000 
     63 CA         23.1120   71.6210   18.5020 C.3       6 GLL5        0.0000 
     64 CA         22.9062   72.9810   16.2817 C.3       2 GLC5        0.0000 
     65 CA         24.9465   73.0905   15.0678 C.3       2 GLC5        0.0000 
     66 CA         25.5650   74.0470   13.7660 C.3       4 GLP5        0.0000 
     67 CA         23.6309   69.5660   15.2689 C.3       2 GLC5        0.0000 
     68 CA         24.3260   71.5450   16.0010 C.3       6 GLL5        0.0000 
     69 CA         22.9030   72.0988   15.7293 C.3       2 GLC5        0.0000 
     70 CA         23.7140   70.4080   16.5160 C.3       6 GLL5        0.0000 
     71 CA         25.1340   70.8788   17.3723 C.3       2 GLC5        0.0000 
@<TRIPOS>BOND
@<TRIPOS>SUBSTRUCTURE
     1 SEC2        6 GROUP        1 X    SEC  0     ROOT SEC X 2
     2 GLC5        1 GROUP        1 X    GLC  0     **** GLC X 6
     3 SEP2        8 GROUP        1 Y    SEP  0     ROOT SEP Y 9
     4 GLP5        3 GROUP        1 Y    GLP  0     **** GLP Y 13
     5 SEL2        7 GROUP        1 Z    SEL  0     ROOT SEL Z 16
     6 GLL5        2 GROUP        1 Z    GLL  0     **** GLL Z 20
@<TRIPOS>SET

