#    Name: 3ho0_DKD_1_ligand
#    Modification time : Tue Mar 25 14:33:43 2014

@<TRIPOS>MOLECULE
3ho0_DKD_1_ligand
   47    49     1     0     0
SMALL
NO_CHARGES


@<TRIPOS>ATOM
      1 CAK        17.0730   61.5000   16.5580 C.ar      1 DKD1        0.0000 
      2 CAG        16.8570   61.3270   15.1960 C.ar      1 DKD1        0.0000 
      3 CAD        17.9370   61.1620   14.3370 C.ar      1 DKD1        0.0000 
      4 CAH        19.2340   61.1670   14.8390 C.ar      1 DKD1        0.0000 
      5 CAL        19.4490   61.3360   16.2030 C.ar      1 DKD1        0.0000 
      6 CAX        18.3700   61.5040   17.0620 C.ar      1 DKD1        0.0000 
      7 CAS        18.6020   61.6700   18.5650 C.3       1 DKD1        0.0000 
      8 CAZ        19.2600   63.0060   18.9160 C.3       1 DKD1        0.0000 
      9 CAU        19.4210   62.9950   20.4380 C.2       1 DKD1        0.0000 
     10 OAB        20.5380   62.7070   20.9200 O.co2     1 DKD1        0.0000 
     11 OAA        18.4050   63.2470   21.1230 O.co2     1 DKD1        0.0000 
     12 OAT        20.5180   63.0840   18.2260 O.3       1 DKD1        0.0000 
     13 CAY        21.1940   64.2550   18.3760 C.ar      1 DKD1        0.0000 
     14 CAP        22.5580   64.2790   18.1040 C.ar      1 DKD1        0.0000 
     15 CAN        23.2580   65.4780   18.1200 C.ar      1 DKD1        0.0000 
     16 CAO        20.5370   65.4430   18.6830 C.ar      1 DKD1        0.0000 
     17 CAM        21.2380   66.6430   18.7060 C.ar      1 DKD1        0.0000 
     18 CAW        22.5980   66.6660   18.4150 C.ar      1 DKD1        0.0000 
     19 CAR        23.3540   67.9930   18.3190 C.3       1 DKD1        0.0000 
     20 CAQ        22.4040   69.1920   18.3000 C.3       1 DKD1        0.0000 
     21 CAV        23.1050   70.4420   17.7650 C.ar      1 DKD1        0.0000 
     22 CAI        23.1120   71.6210   18.5020 C.ar      1 DKD1        0.0000 
     23 CAE        23.7230   72.7590   17.9890 C.ar      1 DKD1        0.0000 
     24 CAC        24.3300   72.7230   16.7380 C.ar      1 DKD1        0.0000 
     25 CAF        24.3260   71.5450   16.0010 C.ar      1 DKD1        0.0000 
     26 CAJ        23.7140   70.4080   16.5160 C.ar      1 DKD1        0.0000 
     27 H          16.2747   61.6251   17.1940 H         1 DKD1        0.0000 
     28 H          15.8983   61.3211   14.8239 H         1 DKD1        0.0000 
     29 H          17.7773   61.0360   13.3284 H         1 DKD1        0.0000 
     30 H          20.0323   61.0461   14.2036 H         1 DKD1        0.0000 
     31 H          20.4081   61.3365   16.5752 H         1 DKD1        0.0000 
     32 H          19.2397   60.8526   18.9212 H         1 DKD1        0.0000 
     33 H          17.6402   61.5972   19.0858 H         1 DKD1        0.0000 
     34 H          18.5878   63.7818   18.6446 H         1 DKD1        0.0000 
     35 H          23.0520   63.3990   17.8890 H         1 DKD1        0.0000 
     36 H          24.2660   65.4886   17.9135 H         1 DKD1        0.0000 
     37 H          19.5295   65.4320   18.8934 H         1 DKD1        0.0000 
     38 H          20.7489   67.5190   18.9394 H         1 DKD1        0.0000 
     39 H          23.9550   67.9975   17.4060 H         1 DKD1        0.0000 
     40 H          24.0283   68.0836   19.1744 H         1 DKD1        0.0000 
     41 H          22.0497   69.3849   19.3121 H         1 DKD1        0.0000 
     42 H          21.5484   68.9616   17.6661 H         1 DKD1        0.0000 
     43 H          22.6644   71.6507   19.4279 H         1 DKD1        0.0000 
     44 H          23.7266   73.6312   18.5360 H         1 DKD1        0.0000 
     45 H          24.7801   73.5657   16.3603 H         1 DKD1        0.0000 
     46 H          24.7745   71.5141   15.0769 H         1 DKD1        0.0000 
     47 H          23.7119   69.5344   15.9682 H         1 DKD1        0.0000 
@<TRIPOS>BOND
     1    2    1 ar   
     2    6    1 ar   
     3   27    1 1    
     4    3    2 ar   
     5   28    2 1    
     6    4    3 ar   
     7   29    3 1    
     8    5    4 ar   
     9   30    4 1    
    10    6    5 ar   
    11   31    5 1    
    12    7    6 1    
    13    8    7 1    
    14   32    7 1    
    15   33    7 1    
    16    9    8 1    
    17   12    8 1    
    18   34    8 1    
    19   10    9 ar   
    20   11    9 ar   
    21   13   12 1    
    22   14   13 ar   
    23   16   13 ar   
    24   15   14 ar   
    25   35   14 1    
    26   18   15 ar   
    27   36   15 1    
    28   17   16 ar   
    29   37   16 1    
    30   18   17 ar   
    31   38   17 1    
    32   19   18 1    
    33   20   19 1    
    34   39   19 1    
    35   40   19 1    
    36   21   20 1    
    37   41   20 1    
    38   42   20 1    
    39   22   21 ar   
    40   26   21 ar   
    41   23   22 ar   
    42   43   22 1    
    43   24   23 ar   
    44   44   23 1    
    45   25   24 ar   
    46   45   24 1    
    47   26   25 ar   
    48   46   25 1    
    49   47   26 1    
@<TRIPOS>SUBSTRUCTURE
     1 DKD1        1 GROUP   
@<TRIPOS>SET

