#    Name: 1q8u_H52_1_INTS_M
#    Modification time : Mon Mar 24 23:14:36 2014

@<TRIPOS>MOLECULE
1q8u_H52_1_INTS_M
   55     0     9     0     0
SMALL
NO_CHARGES


@<TRIPOS>ATOM
      1 CA         10.1605    4.9655    2.3715 C.3       3 GLC5        0.0000 
      2 CA          9.5510    6.9010    2.9710 C.3       9 GLL5        0.0000 
      3 CA         10.7700    3.0300    1.7720 C.3       6 GLP5        0.0000 
      4 CA          8.2265    6.0905    4.0775 C.3       3 GLC5        0.0000 
      5 CA          6.9020    5.2800    5.1840 C.3       6 GLP5        0.0000 
      6 CA          8.2350    6.5110    1.3145 C.3       3 GLC5        0.0000 
      7 CA          6.9190    6.1210   -0.3420 C.3       6 GLP5        0.0000 
      8 OD1        12.1500    7.5690    5.6835 O.co2     2 ASC3        0.0000 
      9 OD1        12.8840    8.2120    4.2120 O.co2     8 ASL3        0.0000 
     10 OD1        11.4160    6.9260    7.1550 O.co2     5 ASP3        0.0000 
     11 CA         11.8940   11.8180    5.2205 C.3       3 GLC5        0.0000 
     12 CA         12.2700   10.6190    3.5870 C.3       9 GLL5        0.0000 
     13 CA         11.5180   13.0170    6.8540 C.3       6 GLP5        0.0000 
     14 CA          6.2100    9.1425    7.5040 C.3       3 GLC5        0.0000 
     15 CA          6.0680   10.0340    6.2580 C.3       9 GLL5        0.0000 
     16 CA          6.3520    8.2510    8.7500 C.3       6 GLP5        0.0000 
     17 CA          5.0870   10.2855   -0.6145 C.3       3 GLC5        0.0000 
     18 CA          5.4370    9.7960    1.2000 C.3       9 GLL5        0.0000 
     19 CA          4.7370   10.7750   -2.4290 C.3       6 GLP5        0.0000 
     20 CA          6.1825   10.9930   -0.6185 C.3       3 GLC5        0.0000 
     21 CA          6.7620    9.8350    0.8680 C.3       9 GLL5        0.0000 
     22 CA          5.6030   12.1510   -2.1050 C.3       6 GLP5        0.0000 
     23 CA          8.5460   11.7520    1.9415 C.3       3 GLC5        0.0000 
     24 CA          7.7460    9.8780    1.8860 C.3       9 GLL5        0.0000 
     25 CA          9.3460   13.6260    1.9970 C.3       6 GLP5        0.0000 
     26 CA          1.6345   10.3010    3.5160 C.3       3 GLC5        0.0000 
     27 CA          3.6240    9.7490    2.8360 C.3       9 GLL5        0.0000 
     28 CA         -0.3550   10.8530    4.1960 C.3       6 GLP5        0.0000 
     29 CA          2.2725    8.1460    2.9770 C.3       3 GLC5        0.0000 
     30 CA          0.9210    6.5430    3.1180 C.3       6 GLP5        0.0000 
     31 N           1.8235    9.1955    4.5075 N.am      1 SEC2        0.0000 
     32 N           3.1610    9.7220    4.0620 N.am      7 SEL2        0.0000 
     33 N           0.4860    8.6690    4.9530 N.am      4 SEP2        0.0000 
     34 CA          2.2125    8.5605    5.2885 C.3       3 GLC5        0.0000 
     35 CA          4.0030    9.8280    5.1100 C.3       9 GLL5        0.0000 
     36 CA          0.4220    7.2930    5.4670 C.3       6 GLP5        0.0000 
     37 CA         10.5128   12.0300    2.5700 C.3       3 GLC5        0.0000 
     38 CA         11.0890   10.2490    2.6990 C.3       9 GLL5        0.0000 
     39 CA          6.9635   11.8983    3.3788 C.3       3 GLC5        0.0000 
     40 CA          7.3940    9.9380    3.2180 C.3       9 GLL5        0.0000 
     41 CA          7.2410   13.8800    3.3390 C.3       6 GLP5        0.0000 
     42 CA          5.9055    8.2613    3.6967 C.3       3 GLC5        0.0000 
     43 CA          5.1250    6.6060    3.9750 C.3       6 GLP5        0.0000 
     44 CA          5.4055    7.8930    1.1342 C.3       3 GLC5        0.0000 
     45 CA          5.0230    9.8180    2.5610 C.3       9 GLL5        0.0000 
     46 CA          5.5810    5.9790    0.3880 C.3       6 GLP5        0.0000 
     47 CA          7.0865    7.9888    0.5175 C.3       3 GLC5        0.0000 
     48 CA          3.8555   11.4365    2.6831 C.3       3 GLC5        0.0000 
     49 CA          3.2840   13.0950    3.0080 C.3       6 GLP5        0.0000 
     50 CA          4.7760    8.1920    3.1666 C.3       3 GLC5        0.0000 
     51 CA          4.8157   11.7711    6.1736 C.3       3 GLC5        0.0000 
     52 CA          5.3680    9.9110    4.9390 C.3       9 GLL5        0.0000 
     53 CA          4.7710   13.6420    6.9930 C.3       6 GLP5        0.0000 
     54 CA          4.0610   11.4803    3.8513 C.3       3 GLC5        0.0000 
     55 CA          4.9928    8.2531    4.6646 C.3       3 GLC5        0.0000 
@<TRIPOS>BOND
@<TRIPOS>SUBSTRUCTURE
     1 SEC2       31 GROUP        1 X    SEC  0     ROOT SEC X 2
     2 ASC3        8 GROUP        1 X    ASC  0     **** ASC X 3
     3 GLC5        1 GROUP        1 X    GLC  0     **** GLC X 6
     4 SEP2       33 GROUP        1 Y    SEP  0     ROOT SEP Y 9
     5 ASP3       10 GROUP        1 Y    ASP  0     **** ASP Y 10
     6 GLP5        3 GROUP        1 Y    GLP  0     **** GLP Y 13
     7 SEL2       32 GROUP        1 Z    SEL  0     ROOT SEL Z 16
     8 ASL3        9 GROUP        1 Z    ASL  0     **** ASL Z 17
     9 GLL5        2 GROUP        1 Z    GLL  0     **** GLL Z 20
@<TRIPOS>SET

