#    Name: 1q8u_H52_1_ligand
#    Modification time : Mon Mar 24 23:14:36 2014

@<TRIPOS>MOLECULE
1q8u_H52_1_ligand
   42    44     1     0     0
SMALL
NO_CHARGES


@<TRIPOS>ATOM
      1 O1          9.0020   11.3030    4.8480 O.2       1 H52961      0.0000 
      2 S5          8.8080    9.9310    4.3060 S.o2      1 H52961      0.0000 
      3 O2          8.5320    8.8530    5.2640 O.2       1 H52961      0.0000 
      4 N21        10.1290    9.3450    3.3860 N.pl3     1 H52961      0.0000 
      5 C22        10.5140    7.8890    3.6060 C.3       1 H52961      0.0000 
      6 C2M         9.5510    6.9010    2.9710 C.3       1 H52961      0.0000 
      7 C23        11.9540    7.5010    3.2490 C.3       1 H52961      0.0000 
      8 N24        12.8840    8.2120    4.2120 N.4       1 H52961      0.0000 
      9 C25        13.3440    9.5160    3.5810 C.3       1 H52961      0.0000 
     10 C26        12.2700   10.6190    3.5870 C.3       1 H52961      0.0000 
     11 C27        11.0890   10.2490    2.6990 C.3       1 H52961      0.0000 
     12 C5          7.3940    9.9380    3.2180 C.ar      1 H52961      0.0000 
     13 C10         5.9780    9.8950    3.6190 C.ar      1 H52961      0.0000 
     14 C4          5.3680    9.9110    4.9390 C.ar      1 H52961      0.0000 
     15 CM          6.0680   10.0340    6.2580 C.3       1 H52961      0.0000 
     16 C9          5.0230    9.8180    2.5610 C.ar      1 H52961      0.0000 
     17 C8          5.4370    9.7960    1.2000 C.ar      1 H52961      0.0000 
     18 C7          6.7620    9.8350    0.8680 C.ar      1 H52961      0.0000 
     19 C6          7.7460    9.8780    1.8860 C.ar      1 H52961      0.0000 
     20 C1          3.6240    9.7490    2.8360 C.ar      1 H52961      0.0000 
     21 N2          3.1610    9.7220    4.0620 N.ar      1 H52961      0.0000 
     22 C3          4.0030    9.8280    5.1100 C.ar      1 H52961      0.0000 
     23 H          10.4261    7.6981    4.7296 H         1 H52961      0.0000 
     24 H          12.1645    7.8118    2.2387 H         1 H52961      0.0000 
     25 H          12.0685    6.4339    3.3488 H         1 H52961      0.0000 
     26 H          13.6484    9.3293    2.5397 H         1 H52961      0.0000 
     27 H          14.2305    9.8875    4.1176 H         1 H52961      0.0000 
     28 H          12.7166   11.5476    3.2305 H         1 H52961      0.0000 
     29 H          11.9236   10.7679    4.6101 H         1 H52961      0.0000 
     30 H          10.5799   11.1739    2.3902 H         1 H52961      0.0000 
     31 H          11.4735    9.7673    1.7879 H         1 H52961      0.0000 
     32 H           4.7064    9.7497    0.4700 H         1 H52961      0.0000 
     33 H           7.0674    9.8339   -0.1137 H         1 H52961      0.0000 
     34 H           8.7425    9.8634    1.6085 H         1 H52961      0.0000 
     35 H           2.9902    9.7213    2.0001 H         1 H52961      0.0000 
     36 H           3.6210    9.8489    6.0875 H         1 H52961      0.0000 
     37 H           9.4931    7.0233    1.9802 H         1 H52961      0.0000 
     38 H           9.8292    5.9544    3.1338 H         1 H52961      0.0000 
     39 H           8.6242    7.0006    3.3332 H         1 H52961      0.0000 
     40 H           6.7185    9.2887    6.4042 H         1 H52961      0.0000 
     41 H           6.5816   10.8892    6.3275 H         1 H52961      0.0000 
     42 H           5.4244   10.0156    7.0231 H         1 H52961      0.0000 
@<TRIPOS>BOND
     1    2    1 2    
     2    3    2 2    
     3    4    2 1    
     4   12    2 1    
     5    5    4 1    
     6   11    4 1    
     7    6    5 1    
     8    7    5 1    
     9   23    5 1    
    10   37    6 1    
    11   38    6 1    
    12   39    6 1    
    13    8    7 1    
    14   24    7 1    
    15   25    7 1    
    16    9    8 1    
    17   10    9 1    
    18   26    9 1    
    19   27    9 1    
    20   11   10 1    
    21   28   10 1    
    22   29   10 1    
    23   30   11 1    
    24   31   11 1    
    25   13   12 ar   
    26   19   12 ar   
    27   14   13 ar   
    28   16   13 ar   
    29   15   14 1    
    30   22   14 ar   
    31   40   15 1    
    32   41   15 1    
    33   42   15 1    
    34   17   16 ar   
    35   20   16 ar   
    36   18   17 ar   
    37   32   17 1    
    38   19   18 ar   
    39   33   18 1    
    40   34   19 1    
    41   21   20 ar   
    42   35   20 1    
    43   22   21 ar   
    44   36   22 1    
@<TRIPOS>SUBSTRUCTURE
     1 H52961      1 GROUP   
@<TRIPOS>SET

