#    Name: 3a25_SAM_1_INTS_M
#    Modification time : Tue Mar 25 11:29:50 2014

@<TRIPOS>MOLECULE
3a25_SAM_1_INTS_M
   64     0     9     0     0
SMALL
NO_CHARGES


@<TRIPOS>ATOM
      1 CA         -7.2140  -27.5260  -40.5475 C.3       3 GLC5        0.0000 
      2 CA         -8.2010  -27.0600  -38.6120 C.3       9 GLL5        0.0000 
      3 CA         -6.2270  -27.9920  -42.4830 C.3       6 GLP5        0.0000 
      4 N          -9.5030  -23.8465  -40.3405 N.am      2 SEC2        0.0000 
      5 N          -9.2710  -25.0560  -39.4010 N.am      8 SEL2        0.0000 
      6 N          -9.7350  -22.6370  -41.2800 N.am      5 SEP2        0.0000 
      7 N         -10.1170  -24.9240  -40.8215 N.am      2 SEC2        0.0000 
      8 N         -10.9630  -24.7920  -42.2420 N.am      5 SEP2        0.0000 
      9 CA         -5.1855  -27.2270  -39.3340 C.3       3 GLC5        0.0000 
     10 CA         -5.9210  -28.0130  -37.6620 C.3       9 GLL5        0.0000 
     11 CA         -4.4500  -26.4410  -41.0060 C.3       6 GLP5        0.0000 
     12 CA         -3.1770  -26.1600  -34.8500 C.3       3 GLC5        0.0000 
     13 CA         -3.8790  -26.7360  -36.2610 C.3       9 GLL5        0.0000 
     14 CA         -2.4750  -25.5840  -33.4390 C.3       6 GLP5        0.0000 
     15 CA         -5.5160  -25.4500  -35.5130 C.3       3 GLC5        0.0000 
     16 CA         -7.1530  -24.1640  -34.7650 C.3       6 GLP5        0.0000 
     17 CA         -3.6175  -31.6385  -36.6585 C.3       3 GLC5        0.0000 
     18 CA         -3.6480  -29.5650  -36.4820 C.3       9 GLL5        0.0000 
     19 CA         -3.5870  -33.7120  -36.8350 C.3       6 GLP5        0.0000 
     20 CA         -3.2180  -30.6050  -33.9850 C.3       3 GLC5        0.0000 
     21 CA         -2.3580  -29.4060  -35.6290 C.3       9 GLL5        0.0000 
     22 CA         -4.0780  -31.8040  -32.3410 C.3       6 GLP5        0.0000 
     23 CA         -2.4165  -27.4950  -34.5340 C.3       3 GLC5        0.0000 
     24 O          -0.3340  -27.7070  -34.4815 O.2       1 ALC1        0.0000 
     25 O          -0.7370  -27.6780  -35.8140 O.2       7 ALL1        0.0000 
     26 O           0.0690  -27.7360  -33.1490 O.2       4 ALP1        0.0000 
     27 O           0.6485  -27.7065  -34.9615 O.2       1 ALC1        0.0000 
     28 O           2.0340  -27.7350  -34.1090 O.2       4 ALP1        0.0000 
     29 O           0.6390  -28.4695  -34.4735 O.2       1 ALC1        0.0000 
     30 O           1.2090  -29.2030  -35.7980 O.2       7 ALL1        0.0000 
     31 O           1.6215  -28.4690  -34.9535 O.2       1 ALC1        0.0000 
     32 CA         -1.6965  -32.1910  -34.0015 C.3       3 GLC5        0.0000 
     33 CA         -0.4950  -30.5320  -34.7950 C.3       9 GLL5        0.0000 
     34 CA         -2.8980  -33.8500  -33.2080 C.3       6 GLP5        0.0000 
     35 CA          3.0455  -34.4925  -31.0930 C.3       3 GLC5        0.0000 
     36 CA          1.4530  -34.4090  -32.5240 C.3       9 GLL5        0.0000 
     37 CA          4.6380  -34.5760  -29.6620 C.3       6 GLP5        0.0000 
     38 O           2.6475  -36.4115  -31.5425 O.2       1 ALC1        0.0000 
     39 O           1.8480  -35.6670  -32.6970 O.2       7 ALL1        0.0000 
     40 O           3.4470  -37.1560  -30.3880 O.2       4 ALP1        0.0000 
     41 N           1.9915  -34.4740  -30.0240 N.am      2 SEC2        0.0000 
     42 N           1.5700  -33.8310  -31.2780 N.am      8 SEL2        0.0000 
     43 N           2.4130  -35.1170  -28.7700 N.am      5 SEP2        0.0000 
     44 CA          1.2845  -32.0685  -29.1805 C.3       3 GLC5        0.0000 
     45 CA          1.1550  -32.5240  -31.0940 C.3       9 GLL5        0.0000 
     46 CA          1.4140  -31.6130  -27.2670 C.3       6 GLP5        0.0000 
     47 CA          1.3710  -30.4780  -30.6855 C.3       3 GLC5        0.0000 
     48 CA          1.5870  -28.4320  -30.2770 C.3       6 GLP5        0.0000 
     49 CA          2.6165  -32.0660  -31.9875 C.3       3 GLC5        0.0000 
     50 CA          4.0780  -31.6080  -32.8810 C.3       6 GLP5        0.0000 
     51 CA          2.8965  -33.5500  -30.3780 C.3       3 GLC5        0.0000 
     52 CA          0.5905  -33.9150  -29.5970 C.3       3 GLC5        0.0000 
     53 CA          0.0260  -35.3060  -28.1000 C.3       6 GLP5        0.0000 
     54 N           1.8530  -30.7875  -31.8880 N.am      2 SEC2        0.0000 
     55 N           0.6420  -31.7970  -32.1540 N.am      8 SEL2        0.0000 
     56 N           3.0640  -29.7780  -31.6220 N.am      5 SEP2        0.0000 
     57 CA         -1.3345  -31.7160  -32.3515 C.3       3 GLC5        0.0000 
     58 CA          0.5360  -32.3590  -33.3820 C.3       9 GLL5        0.0000 
     59 CA         -3.2050  -31.0730  -31.3210 C.3       6 GLP5        0.0000 
     60 CA         -7.5740  -25.5992  -37.0425 C.3       3 GLC5        0.0000 
     61 CA         -7.3230  -27.4290  -37.3900 C.3       9 GLL5        0.0000 
     62 CA         -7.3860  -23.9540  -36.0840 C.3       6 GLP5        0.0000 
     63 CA          2.4706  -32.4040  -33.0499 C.3       3 GLC5        0.0000 
     64 CA          0.9280  -33.6730  -33.5870 C.3       9 GLL5        0.0000 
@<TRIPOS>BOND
@<TRIPOS>SUBSTRUCTURE
     1 ALC1       24 GROUP        1 X    ALC  0     ROOT ALC X 1
     2 SEC2        4 GROUP        1 X    SEC  0     **** SEC X 2
     3 GLC5        1 GROUP        1 X    GLC  0     **** GLC X 6
     4 ALP1       26 GROUP        1 Y    ALP  0     ROOT ALP Y 8
     5 SEP2        6 GROUP        1 Y    SEP  0     **** SEP Y 9
     6 GLP5        3 GROUP        1 Y    GLP  0     **** GLP Y 13
     7 ALL1       25 GROUP        1 Z    ALL  0     ROOT ALL Z 15
     8 SEL2        5 GROUP        1 Z    SEL  0     **** SEL Z 16
     9 GLL5        2 GROUP        1 Z    GLL  0     **** GLL Z 20
@<TRIPOS>SET

