#    Name: 3a25_SAM_1_ligand
#    Modification time : Tue Mar 25 11:29:50 2014

@<TRIPOS>MOLECULE
3a25_SAM_1_ligand
   50    52     1     0     0
SMALL
NO_CHARGES


@<TRIPOS>ATOM
      1 N          -7.4150  -26.9330  -39.8390 N.4       1 SAM279      0.0000 
      2 CA         -8.2010  -27.0600  -38.6120 C.3       1 SAM279      0.0000 
      3 C          -9.1350  -25.8360  -38.4500 C.2       1 SAM279      0.0000 
      4 O          -9.2710  -25.0560  -39.4010 O.co2     1 SAM279      0.0000 
      5 OXT        -9.7950  -25.6030  -37.4140 O.co2     1 SAM279      0.0000 
      6 CB         -7.3230  -27.4290  -37.3900 C.3       1 SAM279      0.0000 
      7 CG         -5.9210  -28.0130  -37.6620 C.3       1 SAM279      0.0000 
      8 SD         -4.8870  -28.2430  -36.1710 S.3       1 SAM279      0.0000 
      9 CE         -3.8790  -26.7360  -36.2610 C.3       1 SAM279      0.0000 
     10 C5'        -3.6480  -29.5650  -36.4820 C.3       1 SAM279      0.0000 
     11 C4'        -2.3580  -29.4060  -35.6290 C.3       1 SAM279      0.0000 
     12 O4'        -1.9170  -30.5770  -34.9370 O.3       1 SAM279      0.0000 
     13 C3'        -1.1220  -28.9060  -36.3830 C.3       1 SAM279      0.0000 
     14 O3'        -0.7370  -27.6780  -35.8140 O.3       1 SAM279      0.0000 
     15 C2'         0.0020  -29.8780  -36.0670 C.3       1 SAM279      0.0000 
     16 O2'         1.2090  -29.2030  -35.7980 O.3       1 SAM279      0.0000 
     17 C1'        -0.4950  -30.5320  -34.7950 C.3       1 SAM279      0.0000 
     18 N9          0.0690  -31.8760  -34.5790 N.pl3     1 SAM279      0.0000 
     19 C8          0.1810  -32.8820  -35.5060 C.2       1 SAM279      0.0000 
     20 N7          0.7130  -33.9660  -34.8920 N.2       1 SAM279      0.0000 
     21 C5          0.9280  -33.6730  -33.5870 C.ar      1 SAM279      0.0000 
     22 C6          1.4530  -34.4090  -32.5240 C.ar      1 SAM279      0.0000 
     23 N6          1.8480  -35.6670  -32.6970 N.pl3     1 SAM279      0.0000 
     24 N1          1.5700  -33.8310  -31.2780 N.ar      1 SAM279      0.0000 
     25 C2          1.1550  -32.5240  -31.0940 C.ar      1 SAM279      0.0000 
     26 N3          0.6420  -31.7970  -32.1540 N.ar      1 SAM279      0.0000 
     27 C4          0.5360  -32.3590  -33.3820 C.ar      1 SAM279      0.0000 
     28 H          -8.8973  -27.9465  -38.7683 H         1 SAM279      0.0000 
     29 H          -7.8907  -28.1537  -36.7594 H         1 SAM279      0.0000 
     30 H          -7.2087  -26.5182  -36.7556 H         1 SAM279      0.0000 
     31 H          -5.3031  -27.3703  -38.2691 H         1 SAM279      0.0000 
     32 H          -5.9481  -29.0092  -38.0747 H         1 SAM279      0.0000 
     33 H          -3.4735  -29.4677  -37.5326 H         1 SAM279      0.0000 
     34 H          -4.2005  -30.4507  -36.2499 H         1 SAM279      0.0000 
     35 H          -2.5682  -28.6120  -34.8603 H         1 SAM279      0.0000 
     36 H          -1.3010  -28.8786  -37.3956 H         1 SAM279      0.0000 
     37 H           0.0523  -30.6025  -36.8201 H         1 SAM279      0.0000 
     38 H          -0.2336  -29.8756  -33.9709 H         1 SAM279      0.0000 
     39 H          -0.0761  -32.8181  -36.4275 H         1 SAM279      0.0000 
     40 H           1.7391  -36.0396  -33.6186 H         1 SAM279      0.0000 
     41 H           2.2183  -36.1269  -31.8899 H         1 SAM279      0.0000 
     42 H           1.2284  -32.0882  -30.1602 H         1 SAM279      0.0000 
     43 H          -7.5840  -27.6914  -40.4684 H         1 SAM279      0.0000 
     44 H          -7.6295  -26.0897  -40.3318 H         1 SAM279      0.0000 
     45 H          -6.4328  -26.9211  -39.6514 H         1 SAM279      0.0000 
     46 H          -3.3579  -26.5870  -35.4206 H         1 SAM279      0.0000 
     47 H          -3.2196  -26.7745  -37.0118 H         1 SAM279      0.0000 
     48 H          -4.4408  -25.9215  -36.4058 H         1 SAM279      0.0000 
     49 H          -0.4816  -27.8979  -34.8725 H         1 SAM279      0.0000 
     50 H           1.0160  -28.6375  -34.9962 H         1 SAM279      0.0000 
@<TRIPOS>BOND
     1    2    1 1    
     2   43    1 1    
     3   44    1 1    
     4   45    1 1    
     5    3    2 1    
     6    6    2 1    
     7   28    2 1    
     8    4    3 ar   
     9    5    3 ar   
    10    7    6 1    
    11   29    6 1    
    12   30    6 1    
    13    8    7 1    
    14   31    7 1    
    15   32    7 1    
    16    9    8 1    
    17   10    8 1    
    18   46    9 1    
    19   47    9 1    
    20   48    9 1    
    21   11   10 1    
    22   33   10 1    
    23   34   10 1    
    24   12   11 1    
    25   13   11 1    
    26   35   11 1    
    27   17   12 1    
    28   14   13 1    
    29   15   13 1    
    30   36   13 1    
    31   49   14 1    
    32   16   15 1    
    33   17   15 1    
    34   37   15 1    
    35   50   16 1    
    36   18   17 1    
    37   38   17 1    
    38   19   18 1    
    39   27   18 1    
    40   20   19 2    
    41   39   19 1    
    42   21   20 1    
    43   22   21 ar   
    44   27   21 ar   
    45   23   22 1    
    46   24   22 ar   
    47   40   23 1    
    48   41   23 1    
    49   25   24 ar   
    50   26   25 ar   
    51   42   25 1    
    52   27   26 ar   
@<TRIPOS>SUBSTRUCTURE
     1 SAM279      1 GROUP   
@<TRIPOS>SET

