#    Name: 2eba_FAD_2_INTS_M
#    Modification time : Tue Mar 25 10:50:59 2014

@<TRIPOS>MOLECULE
2eba_FAD_2_INTS_M
  123     0    12     0     0
SMALL
NO_CHARGES


@<TRIPOS>ATOM
      1 NZ         74.1845   -7.6245  -18.6580 N.4       3 LYC4        0.0000 
      2 NZ         72.4630   -7.4970  -18.2010 N.4      11 LYL4        0.0000 
      3 NZ         75.9060   -7.7520  -19.1150 N.4       7 LYP4        0.0000 
      4 N          71.3405   -8.6025  -14.4835 N.am      2 SEC2        0.0000 
      5 N          71.5770   -7.7110  -15.7350 N.am     10 SEL2        0.0000 
      6 N          71.1040   -9.4940  -13.2320 N.am      6 SEP2        0.0000 
      7 N          70.3830   -7.5290  -14.8670 N.am      2 SEC2        0.0000 
      8 N          69.1890   -7.3470  -13.9990 N.am      6 SEP2        0.0000 
      9 CA         72.3885   -4.8240  -19.8765 C.3       4 GLC5        0.0000 
     10 CA         71.0350   -4.8390  -18.1850 C.3      12 GLL5        0.0000 
     11 CA         73.7420   -4.8090  -21.5680 C.3       8 GLP5        0.0000 
     12 CA         70.0405   -2.3070  -19.4515 C.3       4 GLC5        0.0000 
     13 CA         69.7710   -4.1020  -18.5540 C.3      12 GLL5        0.0000 
     14 CA         70.3100   -0.5120  -20.3490 C.3       8 GLP5        0.0000 
     15 O          67.2975   -1.7745  -16.4795 O.2       1 ALC1        0.0000 
     16 O          68.3080   -2.4670  -17.5780 O.2       9 ALL1        0.0000 
     17 O          66.2870   -1.0820  -15.3810 O.2       5 ALP1        0.0000 
     18 N          67.0870   -3.8425  -14.5960 N.am      2 SEC2        0.0000 
     19 N          66.9890   -3.8350  -16.0530 N.am     10 SEL2        0.0000 
     20 N          67.1850   -3.8500  -13.1390 N.am      6 SEP2        0.0000 
     21 O          66.6380   -2.4585  -15.7170 O.2       1 ALC1        0.0000 
     22 O          66.9890   -3.8350  -16.0530 O.2       9 ALL1        0.0000 
     23 CA         68.0760   -6.6680  -19.0020 C.3       4 GLC5        0.0000 
     24 CA         67.5390   -5.0600  -17.8720 C.3      12 GLL5        0.0000 
     25 CA         68.6130   -8.2760  -20.1320 C.3       8 GLP5        0.0000 
     26 CA         66.5255   -4.7615  -19.6155 C.3       4 GLC5        0.0000 
     27 CA         65.5120   -4.4630  -21.3590 C.3       8 GLP5        0.0000 
     28 N          67.9270   -9.7180  -17.3380 N.am      2 SEC2        0.0000 
     29 N          66.9160   -8.5320  -16.9410 N.am     10 SEL2        0.0000 
     30 N          68.9380  -10.9040  -17.7350 N.am      6 SEP2        0.0000 
     31 O          63.2905  -11.0705  -17.2690 O.2       1 ALC1        0.0000 
     32 O          64.2170  -10.0790  -17.0240 O.2       9 ALL1        0.0000 
     33 O          62.3640  -12.0620  -17.5140 O.2       5 ALP1        0.0000 
     34 N          61.8295   -8.3310  -17.9895 N.am      2 SEC2        0.0000 
     35 N          63.2880   -8.0970  -17.8320 N.am     10 SEL2        0.0000 
     36 N          60.3710   -8.5650  -18.1470 N.am      6 SEP2        0.0000 
     37 CA         62.1195   -6.8320  -16.4325 C.3       4 GLC5        0.0000 
     38 CA         63.4000   -6.7850  -18.2110 C.3      12 GLL5        0.0000 
     39 CA         60.8390   -6.8790  -14.6540 C.3       8 GLP5        0.0000 
     40 CA         63.6405   -7.6480  -19.7665 C.3       4 GLC5        0.0000 
     41 CA         63.8810   -8.5110  -21.3220 C.3       8 GLP5        0.0000 
     42 CA         62.2205   -5.0590  -18.7295 C.3       4 GLC5        0.0000 
     43 CA         61.0410   -3.3330  -19.2480 C.3       8 GLP5        0.0000 
     44 CA         64.4560   -5.6240  -19.7850 C.3       4 GLC5        0.0000 
     45 CA         64.8075   -7.6595  -19.5185 C.3       4 GLC5        0.0000 
     46 CA         65.7340   -6.8080  -17.7150 C.3      12 GLL5        0.0000 
     47 CA         65.6230   -5.6355  -19.5370 C.3       4 GLC5        0.0000 
     48 N          76.6410   -7.9210   -8.4950 N.am      2 SEC2        0.0000 
     49 N          77.1700   -7.0730   -7.5760 N.am     10 SEL2        0.0000 
     50 N          76.1120   -8.7690   -9.4140 N.am      6 SEP2        0.0000 
     51 N          77.7450  -10.4760   -6.2330 N.am      2 SEC2        0.0000 
     52 N          77.0310   -9.0160   -6.4090 N.am     10 SEL2        0.0000 
     53 N          78.4590  -11.9360   -6.0570 N.am      6 SEP2        0.0000 
     54 N          77.1650  -10.0930   -7.4845 N.am      2 SEC2        0.0000 
     55 N          77.2990  -11.1700   -8.5600 N.am      6 SEP2        0.0000 
     56 N          76.5715   -8.8925   -7.9115 N.am      2 SEC2        0.0000 
     57 O          79.0365   -8.3045   -4.7305 O.2       1 ALC1        0.0000 
     58 O          78.1880   -7.3260   -5.4550 O.2       9 ALL1        0.0000 
     59 O          79.8850   -9.2830   -4.0060 O.2       5 ALP1        0.0000 
     60 N          80.8130   -5.1645   -4.8805 N.am      2 SEC2        0.0000 
     61 N          79.3580   -5.6130   -4.5570 N.am     10 SEL2        0.0000 
     62 N          82.2680   -4.7160   -5.2040 N.am      6 SEP2        0.0000 
     63 N          79.7985   -3.1430   -5.6475 N.am      2 SEC2        0.0000 
     64 N          78.8970   -3.9360   -6.7370 N.am     10 SEL2        0.0000 
     65 N          80.7000   -2.3500   -4.5580 N.am      6 SEP2        0.0000 
     66 CA         79.6810    1.3305   -7.6200 C.3       4 GLC5        0.0000 
     67 CA         79.6430    0.2890   -9.1150 C.3      12 GLL5        0.0000 
     68 CA         79.7190    2.3720   -6.1250 C.3       8 GLP5        0.0000 
     69 CA         80.0835    1.0770  -10.7955 C.3       4 GLC5        0.0000 
     70 CA         80.5240    1.8650  -12.4760 C.3       8 GLP5        0.0000 
     71 CA         77.5775   -1.3570  -13.0440 C.3       4 GLC5        0.0000 
     72 CA         77.9220   -0.8330  -11.4580 C.3      12 GLL5        0.0000 
     73 CA         77.2330   -1.8810  -14.6300 C.3       8 GLP5        0.0000 
     74 CA         79.2230    0.5160  -11.9670 C.3       4 GLC5        0.0000 
     75 CA         76.8855   -7.4760  -10.0235 C.3       4 GLC5        0.0000 
     76 CA         76.5730   -5.6230   -9.8870 C.3      12 GLL5        0.0000 
     77 CA         77.1980   -9.3290  -10.1600 C.3       8 GLP5        0.0000 
     78 CA         78.4520   -5.2695  -10.4180 C.3       4 GLC5        0.0000 
     79 CA         80.3310   -4.9160  -10.9490 C.3       8 GLP5        0.0000 
     80 CA         74.8215   -3.6180   -8.8670 C.3       4 GLC5        0.0000 
     81 CA         75.2230   -4.9820  -10.0870 C.3      12 GLL5        0.0000 
     82 CA         74.4200   -2.2540   -7.6470 C.3       8 GLP5        0.0000 
     83 CA         75.9550   -7.0890  -11.5835 C.3       4 GLC5        0.0000 
     84 CA         74.8270   -5.2300  -11.5280 C.3      12 GLL5        0.0000 
     85 CA         77.0830   -8.9480  -11.6390 C.3       8 GLP5        0.0000 
     86 CA         71.2435   -4.1605  -13.1110 C.3       4 GLC5        0.0000 
     87 CA         72.9790   -5.0750  -13.2020 C.3      12 GLL5        0.0000 
     88 CA         69.5080   -3.2460  -13.0200 C.3       8 GLP5        0.0000 
     89 N          73.5315   -7.9540  -13.9610 N.am      2 SEC2        0.0000 
     90 N          73.2640   -6.2470  -13.9220 N.am     10 SEL2        0.0000 
     91 N          73.7990   -9.6610  -14.0000 N.am      6 SEP2        0.0000 
     92 N          75.5735   -3.6580  -15.0975 N.am      2 SEC2        0.0000 
     93 N          75.2390   -5.1530  -15.0410 N.am     10 SEL2        0.0000 
     94 N          75.9080   -2.1630  -15.1540 N.am      6 SEP2        0.0000 
     95 N          74.3350   -8.6705  -14.6105 N.am      2 SEC2        0.0000 
     96 N          74.8710   -7.6800  -15.2210 N.am     10 SEL2        0.0000 
     97 N          75.0160   -8.1525  -16.8370 N.am      2 SEC2        0.0000 
     98 N          75.1610   -8.6250  -18.4530 N.am      6 SEP2        0.0000 
     99 CA         70.5430   -5.8187  -19.7257 C.3       4 GLC5        0.0000 
    100 CA         70.6830   -7.1670  -21.0820 C.3       8 GLP5        0.0000 
    101 CA         69.0595   -3.6307  -14.9510 C.3       4 GLC5        0.0000 
    102 CA         69.1480   -3.5370  -17.1670 C.3      12 GLL5        0.0000 
    103 CA         67.1532   -7.8787  -18.8250 C.3       4 GLC5        0.0000 
    104 CA         64.6202   -9.5950  -18.9400 C.3       4 GLC5        0.0000 
    105 CA         65.6530   -8.1550  -17.3210 C.3      12 GLL5        0.0000 
    106 CA         64.2270  -10.7120  -20.5260 C.3       8 GLP5        0.0000 
    107 CA         79.6322   -3.7150   -9.4255 C.3       4 GLC5        0.0000 
    108 CA         78.6580   -3.1640   -7.8580 C.3      12 GLL5        0.0000 
    109 CA         81.1775   -1.9715   -8.8692 C.3       4 GLC5        0.0000 
    110 CA         79.2090   -1.8640   -7.9460 C.3      12 GLL5        0.0000 
    111 CA         83.2520   -2.4710   -9.2160 C.3       8 GLP5        0.0000 
    112 CA         79.4652   -3.1265  -10.2957 C.3       4 GLC5        0.0000 
    113 CA         78.9970   -1.0800   -9.0990 C.3      12 GLL5        0.0000 
    114 CA         78.1010    0.5542   -8.7999 C.3       4 GLC5        0.0000 
    115 CA         76.8290    1.7000   -8.7810 C.3       8 GLP5        0.0000 
    116 CA         77.4455    0.2432   -9.8015 C.3       4 GLC5        0.0000 
    117 CA         78.2020   -1.5940  -10.1860 C.3      12 GLL5        0.0000 
    118 CA         79.0487   -4.1018  -10.2315 C.3       4 GLC5        0.0000 
    119 CA         77.6600   -2.8750  -10.0900 C.3      12 GLL5        0.0000 
    120 CA         76.1914   -2.7037   -8.4455 C.3       4 GLC5        0.0000 
    121 CA         77.8730   -3.7000   -8.9380 C.3      12 GLL5        0.0000 
    122 CA         73.3229   -3.3364  -12.5633 C.3       4 GLC5        0.0000 
    123 CA         73.1200   -1.5010  -12.7060 C.3       8 GLP5        0.0000 
@<TRIPOS>BOND
@<TRIPOS>SUBSTRUCTURE
     1 ALC1       15 GROUP        1 X    ALC  0     ROOT ALC X 1
     2 SEC2        4 GROUP        1 X    SEC  0     **** SEC X 2
     3 LYC4        1 GROUP        1 X    LYC  0     **** LYC X 4
     4 GLC5        9 GROUP        1 X    GLC  0     **** GLC X 6
     5 ALP1       17 GROUP        1 Y    ALP  0     ROOT ALP Y 8
     6 SEP2        6 GROUP        1 Y    SEP  0     **** SEP Y 9
     7 LYP4        3 GROUP        1 Y    LYP  0     **** LYP Y 11
     8 GLP5       11 GROUP        1 Y    GLP  0     **** GLP Y 13
     9 ALL1       16 GROUP        1 Z    ALL  0     ROOT ALL Z 15
    10 SEL2        5 GROUP        1 Z    SEL  0     **** SEL Z 16
    11 LYL4        2 GROUP        1 Z    LYL  0     **** LYL Z 18
    12 GLL5       10 GROUP        1 Z    GLL  0     **** GLL Z 20
@<TRIPOS>SET

