#    Name: 2eba_FAD_2_ligand
#    Modification time : Tue Mar 25 10:50:59 2014

@<TRIPOS>MOLECULE
2eba_FAD_2_ligand
   84    89     1     0     0
SMALL
NO_CHARGES


@<TRIPOS>ATOM
      1 PA         72.0610   -6.8820  -16.8770 P.3       1 FAD2001     0.0000 
      2 O1A        72.4630   -7.4970  -18.2010 O.co2     1 FAD2001     0.0000 
      3 O2A        71.5770   -7.7110  -15.7350 O.co2     1 FAD2001     0.0000 
      4 O5B        70.9900   -5.7140  -17.1880 O.3       1 FAD2001     0.0000 
      5 C5B        71.0350   -4.8390  -18.1850 C.3       1 FAD2001     0.0000 
      6 C4B        69.7710   -4.1020  -18.5540 C.3       1 FAD2001     0.0000 
      7 O4B        68.5650   -5.1300  -18.6990 O.3       1 FAD2001     0.0000 
      8 C3B        69.1480   -3.5370  -17.1670 C.3       1 FAD2001     0.0000 
      9 O3B        68.3080   -2.4670  -17.5780 O.3       1 FAD2001     0.0000 
     10 C2B        68.0740   -4.4940  -16.5970 C.3       1 FAD2001     0.0000 
     11 O2B        66.9890   -3.8350  -16.0530 O.3       1 FAD2001     0.0000 
     12 C1B        67.5390   -5.0600  -17.8720 C.3       1 FAD2001     0.0000 
     13 N9A        67.0340   -6.4670  -17.5660 N.pl3     1 FAD2001     0.0000 
     14 C8A        67.7570   -7.4700  -17.0880 C.2       1 FAD2001     0.0000 
     15 N7A        66.9160   -8.5320  -16.9410 N.2       1 FAD2001     0.0000 
     16 C5A        65.6530   -8.1550  -17.3210 C.ar      1 FAD2001     0.0000 
     17 C6A        64.3740   -8.8010  -17.3870 C.ar      1 FAD2001     0.0000 
     18 N6A        64.2170  -10.0790  -17.0240 N.pl3     1 FAD2001     0.0000 
     19 N1A        63.2880   -8.0970  -17.8320 N.ar      1 FAD2001     0.0000 
     20 C2A        63.4000   -6.7850  -18.2110 C.ar      1 FAD2001     0.0000 
     21 N3A        64.5990   -6.1420  -18.1590 N.ar      1 FAD2001     0.0000 
     22 C4A        65.7340   -6.8080  -17.7150 C.ar      1 FAD2001     0.0000 
     23 N1         77.1700   -7.0730   -7.5760 N.2       1 FAD2001     0.0000 
     24 C2         77.4470   -7.8410   -6.4780 C.2       1 FAD2001     0.0000 
     25 O2         77.0310   -9.0160   -6.4090 O.2       1 FAD2001     0.0000 
     26 N3         78.1880   -7.3260   -5.4550 N.am      1 FAD2001     0.0000 
     27 C4         78.6750   -6.0410   -5.5070 C.2       1 FAD2001     0.0000 
     28 O4         79.3580   -5.6130   -4.5570 O.2       1 FAD2001     0.0000 
     29 C4X        78.4070   -5.2280   -6.6360 C.2       1 FAD2001     0.0000 
     30 N5         78.8970   -3.9360   -6.7370 N.2       1 FAD2001     0.0000 
     31 C5X        78.6580   -3.1640   -7.8580 C.ar      1 FAD2001     0.0000 
     32 C6         79.2090   -1.8640   -7.9460 C.ar      1 FAD2001     0.0000 
     33 C7         78.9970   -1.0800   -9.0990 C.ar      1 FAD2001     0.0000 
     34 C7M        79.6430    0.2890   -9.1150 C.3       1 FAD2001     0.0000 
     35 C8         78.2020   -1.5940  -10.1860 C.ar      1 FAD2001     0.0000 
     36 C8M        77.9220   -0.8330  -11.4580 C.3       1 FAD2001     0.0000 
     37 C9         77.6600   -2.8750  -10.0900 C.ar      1 FAD2001     0.0000 
     38 C9A        77.8730   -3.7000   -8.9380 C.ar      1 FAD2001     0.0000 
     39 N10        77.3650   -5.0090   -8.8220 N.pl3     1 FAD2001     0.0000 
     40 C10        77.6280   -5.7720   -7.6960 C.2       1 FAD2001     0.0000 
     41 C1'        76.5730   -5.6230   -9.8870 C.3       1 FAD2001     0.0000 
     42 C2'        75.2230   -4.9820  -10.0870 C.3       1 FAD2001     0.0000 
     43 O2'        74.3100   -5.5280   -9.1340 O.3       1 FAD2001     0.0000 
     44 C3'        74.8270   -5.2300  -11.5280 C.3       1 FAD2001     0.0000 
     45 O3'        75.3620   -4.1750  -12.3390 O.3       1 FAD2001     0.0000 
     46 C4'        73.3180   -5.3070  -11.7500 C.3       1 FAD2001     0.0000 
     47 O4'        72.8290   -6.6090  -11.3960 O.3       1 FAD2001     0.0000 
     48 C5'        72.9790   -5.0750  -13.2020 C.3       1 FAD2001     0.0000 
     49 O5'        73.2640   -6.2470  -13.9220 O.3       1 FAD2001     0.0000 
     50 P          74.2750   -6.2890  -15.1400 P.3       1 FAD2001     0.0000 
     51 O1P        75.2390   -5.1530  -15.0410 O.co2     1 FAD2001     0.0000 
     52 O2P        74.8710   -7.6800  -15.2210 O.co2     1 FAD2001     0.0000 
     53 O3P        73.2990   -5.9730  -16.3830 O.3       1 FAD2001     0.0000 
     54 H          71.4113   -5.3084  -19.1638 H         1 FAD2001     0.0000 
     55 H          71.8260   -4.0228  -18.0169 H         1 FAD2001     0.0000 
     56 H          69.7543   -3.4313  -19.2162 H         1 FAD2001     0.0000 
     57 H          69.8507   -3.3036  -16.5146 H         1 FAD2001     0.0000 
     58 H          68.5115   -5.2332  -16.0509 H         1 FAD2001     0.0000 
     59 H          66.7259   -4.4695  -18.1957 H         1 FAD2001     0.0000 
     60 H          68.6927   -7.4706  -16.8787 H         1 FAD2001     0.0000 
     61 H          64.8459  -10.4181  -16.3243 H         1 FAD2001     0.0000 
     62 H          63.4849  -10.5805  -17.4849 H         1 FAD2001     0.0000 
     63 H          62.5531   -6.2754  -18.5432 H         1 FAD2001     0.0000 
     64 H          78.3913   -7.9129   -4.6171 H         1 FAD2001     0.0000 
     65 H          79.7624   -1.4934   -7.1702 H         1 FAD2001     0.0000 
     66 H          77.0869   -3.2546  -10.8617 H         1 FAD2001     0.0000 
     67 H          76.4194   -6.7028   -9.6755 H         1 FAD2001     0.0000 
     68 H          77.1267   -5.5793  -10.8492 H         1 FAD2001     0.0000 
     69 H          75.3525   -3.9146   -9.9496 H         1 FAD2001     0.0000 
     70 H          75.2608   -6.1824  -11.8417 H         1 FAD2001     0.0000 
     71 H          72.8418   -4.5453  -11.1602 H         1 FAD2001     0.0000 
     72 H          73.5679   -4.2197  -13.5539 H         1 FAD2001     0.0000 
     73 H          71.9193   -4.8000  -13.2617 H         1 FAD2001     0.0000 
     74 H          80.6377    0.2313   -9.0301 H         1 FAD2001     0.0000 
     75 H          79.4493    0.7812   -9.9637 H         1 FAD2001     0.0000 
     76 H          79.3174    0.8621   -8.3630 H         1 FAD2001     0.0000 
     77 H          78.7638   -0.6045  -11.9470 H         1 FAD2001     0.0000 
     78 H          77.3509   -1.3596  -12.0878 H         1 FAD2001     0.0000 
     79 H          77.4444    0.0271  -11.2787 H         1 FAD2001     0.0000 
     80 H          67.8768   -2.1391  -16.7374 H         1 FAD2001     0.0000 
     81 H          67.2690   -2.8765  -15.9989 H         1 FAD2001     0.0000 
     82 H          73.6205   -6.0043   -9.6797 H         1 FAD2001     0.0000 
     83 H          75.3171   -4.5210  -13.2762 H         1 FAD2001     0.0000 
     84 H          72.9680   -7.1685  -12.2131 H         1 FAD2001     0.0000 
@<TRIPOS>BOND
     1    2    1 ar   
     2    3    1 ar   
     3    4    1 1    
     4   53    1 1    
     5    5    4 1    
     6    6    5 1    
     7   54    5 1    
     8   55    5 1    
     9    7    6 1    
    10    8    6 1    
    11   56    6 1    
    12   12    7 1    
    13    9    8 1    
    14   10    8 1    
    15   57    8 1    
    16   80    9 1    
    17   11   10 1    
    18   12   10 1    
    19   58   10 1    
    20   81   11 1    
    21   13   12 1    
    22   59   12 1    
    23   14   13 1    
    24   22   13 1    
    25   15   14 2    
    26   60   14 1    
    27   16   15 1    
    28   17   16 ar   
    29   22   16 ar   
    30   18   17 1    
    31   19   17 ar   
    32   61   18 1    
    33   62   18 1    
    34   20   19 ar   
    35   21   20 ar   
    36   63   20 1    
    37   22   21 ar   
    38   24   23 1    
    39   40   23 2    
    40   25   24 2    
    41   26   24 am   
    42   27   26 am   
    43   64   26 1    
    44   28   27 2    
    45   29   27 1    
    46   30   29 2    
    47   40   29 1    
    48   31   30 1    
    49   32   31 ar   
    50   38   31 ar   
    51   33   32 ar   
    52   65   32 1    
    53   34   33 1    
    54   35   33 ar   
    55   74   34 1    
    56   75   34 1    
    57   76   34 1    
    58   36   35 1    
    59   37   35 ar   
    60   77   36 1    
    61   78   36 1    
    62   79   36 1    
    63   38   37 ar   
    64   66   37 1    
    65   39   38 1    
    66   40   39 1    
    67   41   39 1    
    68   42   41 1    
    69   67   41 1    
    70   68   41 1    
    71   43   42 1    
    72   44   42 1    
    73   69   42 1    
    74   82   43 1    
    75   45   44 1    
    76   46   44 1    
    77   70   44 1    
    78   83   45 1    
    79   47   46 1    
    80   48   46 1    
    81   71   46 1    
    82   84   47 1    
    83   49   48 1    
    84   72   48 1    
    85   73   48 1    
    86   50   49 1    
    87   51   50 ar   
    88   52   50 ar   
    89   53   50 1    
@<TRIPOS>SUBSTRUCTURE
     1 FAD2001     1 GROUP   
@<TRIPOS>SET

