#    Name: 3N4L_2_CAVITY_N1_6.mol2
#    Modification time : Tue Mar 11 15:37:36 2014

@<TRIPOS>MOLECULE
3N4L_2_CAVITY_N1_6.mol2
   94     0     6     0     0
SMALL
NO_CHARGES


@<TRIPOS>ATOM
      1 NZ         65.5505  -42.5725   21.5714 N.2       3 LYS4        0.0000 
      2 OG         64.9195  -44.5324   22.0819 O.2       1 SER1        0.0000 
      3 N          65.6707  -43.9252   20.9343 N.2       2 ALA2        0.0000 
      4 NZ         66.4219  -43.3179   19.7867 N.2       3 LYS4        0.0000 
      5 OG         64.2885  -46.4923   22.5924 O.2       1 SER1        0.0000 
      6 OG         65.0397  -45.8851   21.4448 O.2       1 SER1        0.0000 
      7 N          65.7909  -45.2778   20.2972 N.2       2 ALA2        0.0000 
      8 N          66.5421  -44.6705   19.1496 N.2       2 ALA2        0.0000 
      9 CA         67.2933  -44.0633   18.0021 C.3       5 GLY6        0.0000 
     10 OG         64.4088  -47.8450   21.9553 O.2       1 SER1        0.0000 
     11 N          65.1600  -47.2377   20.8077 N.2       2 ALA2        0.0000 
     12 N          65.9112  -46.6305   19.6601 N.2       2 ALA2        0.0000 
     13 N          66.6623  -46.0232   18.5125 N.2       2 ALA2        0.0000 
     14 CA         67.4135  -45.4159   17.3650 C.3       5 GLY6        0.0000 
     15 CA         68.1647  -44.8087   16.2174 C.3       5 GLY6        0.0000 
     16 DU         64.5290  -49.1976   21.3182 H         6 CUB7        0.0000 
     17 DU         65.2802  -48.5904   20.1706 H         6 CUB7        0.0000 
     18 N          66.0314  -47.9831   19.0230 N.2       2 ALA2        0.0000 
     19 DU         66.7826  -47.3758   17.8755 H         6 CUB7        0.0000 
     20 CA         67.5338  -46.7686   16.7279 C.3       5 GLY6        0.0000 
     21 CZ         68.2850  -46.1613   15.5803 C.ar      4 PHE5        0.0000 
     22 DU         65.4004  -49.9430   19.5335 H         6 CUB7        0.0000 
     23 DU         66.1516  -49.3358   18.3859 H         6 CUB7        0.0000 
     24 CA         66.9028  -48.7285   17.2384 C.3       5 GLY6        0.0000 
     25 CZ         67.6540  -48.1212   16.0908 C.ar      4 PHE5        0.0000 
     26 DU         64.7694  -51.9029   20.0440 H         6 CUB7        0.0000 
     27 DU         65.5206  -51.2957   18.8964 H         6 CUB7        0.0000 
     28 CA         66.2718  -50.6884   17.7488 C.3       5 GLY6        0.0000 
     29 CA         65.6408  -52.6483   18.2593 C.3       5 GLY6        0.0000 
     30 CA         69.2787  -50.6243   21.7117 C.3       5 GLY6        0.0000 
     31 O          69.3989  -51.9769   21.0746 O.2       2 ALA2        0.0000 
     32 CA         66.1208  -45.1888   16.6389 C.3       5 GLY6        0.0000 
     33 N          64.7386  -47.7560   18.2970 N.2       2 ALA2        0.0000 
     34 N          65.4898  -47.1487   17.1494 N.2       2 ALA2        0.0000 
     35 OG         63.3564  -50.3232   19.9550 O.2       1 SER1        0.0000 
     36 N          64.1076  -49.7159   18.8074 N.2       2 ALA2        0.0000 
     37 DU         64.8588  -49.1087   17.6599 H         6 CUB7        0.0000 
     38 CA         65.6100  -48.5014   16.5123 C.3       5 GLY6        0.0000 
     39 CA         66.3612  -47.8941   15.3647 C.3       5 GLY6        0.0000 
     40 N          63.4766  -51.6758   19.3179 N.2       2 ALA2        0.0000 
     41 N          64.2278  -51.0686   18.1703 N.2       2 ALA2        0.0000 
     42 N          64.9790  -50.4613   17.0228 N.2       2 ALA2        0.0000 
     43 CA         65.7302  -49.8540   15.8752 C.3       5 GLY6        0.0000 
     44 N          64.3480  -52.4212   17.5332 N.2       2 ALA2        0.0000 
     45 N          64.1970  -46.9217   16.4233 N.2       2 ALA2        0.0000 
     46 OG         62.8148  -49.4888   18.0814 O.2       1 SER1        0.0000 
     47 N          63.5660  -48.8816   16.9338 N.2       2 ALA2        0.0000 
     48 O          64.3172  -48.2743   15.7862 O.2       2 ALA2        0.0000 
     49 O          67.7455  -47.6919   22.2598 O.2       2 ALA2        0.0000 
     50 CA         68.4967  -47.0846   21.1123 C.3       5 GLY6        0.0000 
     51 CA         69.2479  -46.4774   19.9647 C.3       5 GLY6        0.0000 
     52 CZ         69.9991  -45.8701   18.8171 C.ar      4 PHE5        0.0000 
     53 CA         67.1145  -49.6518   22.7703 C.3       5 GLY6        0.0000 
     54 O          67.8657  -49.0445   21.6227 O.2       2 ALA2        0.0000 
     55 O          68.6169  -48.4373   20.4752 O.2       2 ALA2        0.0000 
     56 CZ         69.3681  -47.8300   19.3276 C.ar      4 PHE5        0.0000 
     57 CZ         70.1193  -47.2227   18.1800 C.ar      4 PHE5        0.0000 
     58 O          67.2347  -51.0045   22.1332 O.2       2 ALA2        0.0000 
     59 CA         67.9859  -50.3972   20.9856 C.3       5 GLY6        0.0000 
     60 N          68.7371  -49.7899   19.8381 N.2       2 ALA2        0.0000 
     61 N          69.4883  -49.1827   18.6905 N.2       2 ALA2        0.0000 
     62 O          68.1061  -51.7498   20.3485 O.2       2 ALA2        0.0000 
     63 N          68.8573  -51.1426   19.2010 N.2       2 ALA2        0.0000 
     64 N          69.6085  -50.5353   18.0534 N.2       2 ALA2        0.0000 
     65 CA         68.9775  -52.4952   18.5639 C.3       5 GLY6        0.0000 
     66 CZ         66.8433  -42.7996   22.2975 C.ar      4 PHE5        0.0000 
     67 CA         66.9635  -44.1522   21.6604 C.3       5 GLY6        0.0000 
     68 CZ         67.7147  -43.5450   20.5128 C.ar      4 PHE5        0.0000 
     69 CA         66.3325  -46.1122   22.1709 C.3       5 GLY6        0.0000 
     70 CA         67.0837  -45.5049   21.0233 C.3       5 GLY6        0.0000 
     71 CA         67.8349  -44.8976   19.8757 C.3       5 GLY6        0.0000 
     72 CZ         68.5861  -44.2904   18.7281 C.ar      4 PHE5        0.0000 
     73 OG         65.7015  -48.0721   22.6813 O.2       1 SER1        0.0000 
     74 OG         66.4527  -47.4648   21.5338 O.2       1 SER1        0.0000 
     75 DU         67.2039  -46.8575   20.3862 H         6 CUB7        0.0000 
     76 DU         67.9551  -46.2503   19.2386 H         6 CUB7        0.0000 
     77 CZ         68.7063  -45.6430   18.0910 C.ar      4 PHE5        0.0000 
     78 OG         65.0705  -50.0320   23.1918 O.2       1 SER1        0.0000 
     79 OG         65.8217  -49.4247   22.0442 O.2       1 SER1        0.0000 
     80 DU         66.5729  -48.8175   20.8967 H         6 CUB7        0.0000 
     81 DU         68.0753  -47.6029   18.6015 H         6 CUB7        0.0000 
     82 CZ         68.8265  -46.9957   17.4539 C.ar      4 PHE5        0.0000 
     83 CZ         69.5777  -46.3884   16.3064 C.ar      4 PHE5        0.0000 
     84 DU         65.9420  -50.7774   21.4071 H         6 CUB7        0.0000 
     85 DU         66.6931  -50.1701   20.2596 H         6 CUB7        0.0000 
     86 DU         67.4443  -49.5628   19.1120 H         6 CUB7        0.0000 
     87 N          68.1955  -48.9556   17.9644 N.2       2 ALA2        0.0000 
     88 N          68.9467  -48.3483   16.8168 N.2       2 ALA2        0.0000 
     89 O          66.0622  -52.1300   20.7701 O.2       2 ALA2        0.0000 
     90 DU         66.8134  -51.5228   19.6225 H         6 CUB7        0.0000 
     91 CA         67.5646  -50.9155   18.4749 C.3       5 GLY6        0.0000 
     92 CA         68.3158  -50.3082   17.3273 C.3       5 GLY6        0.0000 
     93 DU         66.9336  -52.8754   18.9854 H         6 CUB7        0.0000 
     94 CA         67.6848  -52.2681   17.8378 C.3       5 GLY6        0.0000 
@<TRIPOS>BOND
@<TRIPOS>SUBSTRUCTURE
     1 SER1        2 GROUP   
     2 ALA2        3 GROUP   
     3 LYS4        1 GROUP   
     4 PHE5       21 GROUP   
     5 GLY6        9 GROUP   
     6 CUB7       16 GROUP   
@<TRIPOS>SET

