#    Name: 3n4l_842_2_INTS_M
#    Modification time : Tue Mar 25 00:40:59 2014

@<TRIPOS>MOLECULE
3n4l_842_2_INTS_M
   75     0    12     0     0
SMALL
NO_CHARGES


@<TRIPOS>ATOM
      1 CA         65.4905  -46.4740   23.1175 C.3       4 GLC5        0.0000 
      2 CA         65.1310  -47.3940   21.2520 C.3      12 GLL5        0.0000 
      3 CA         65.8500  -45.5540   24.9830 C.3       8 GLP5        0.0000 
      4 CA         63.1735  -46.5120   20.8565 C.3       4 GLC5        0.0000 
      5 CA         61.2160  -45.6300   20.4610 C.3       8 GLP5        0.0000 
      6 O          64.4080  -45.2740   19.7155 O.2       1 ALC1        0.0000 
      7 O          65.5800  -45.0520   20.9320 O.2       9 ALL1        0.0000 
      8 O          63.2360  -45.4960   18.4990 O.2       5 ALP1        0.0000 
      9 CA         64.1330  -42.9270   19.3770 C.3       4 GLC5        0.0000 
     10 CA         65.5880  -42.5690   20.9100 C.3      12 GLL5        0.0000 
     11 CA         62.6780  -43.2850   17.8440 C.3       8 GLP5        0.0000 
     12 CA         65.3265  -44.1005   23.5980 C.3       4 GLC5        0.0000 
     13 CA         64.8030  -42.6470   22.2130 C.3      12 GLL5        0.0000 
     14 OD1        63.4175  -41.2455   21.4785 O.co2     3 ASC3        0.0000 
     15 OD1        64.6350  -41.3480   22.8260 O.co2    11 ASL3        0.0000 
     16 OD1        62.2000  -41.1430   20.1310 O.co2     7 ASP3        0.0000 
     17 OD1        63.2005  -41.8210   22.3935 O.co2     3 ASC3        0.0000 
     18 OD1        61.7660  -42.2940   21.9610 O.co2     7 ASP3        0.0000 
     19 N          67.8195  -37.3020   25.4760 N.am      2 SEC2        0.0000 
     20 N          68.5740  -37.7540   24.4680 N.am     10 SEL2        0.0000 
     21 N          67.0650  -36.8500   26.4840 N.am      6 SEP2        0.0000 
     22 CA         72.6285  -36.8635   23.6345 C.3       4 GLC5        0.0000 
     23 CA         70.6040  -37.8010   23.4700 C.3      12 GLL5        0.0000 
     24 CA         74.6530  -35.9260   23.7990 C.3       8 GLP5        0.0000 
     25 N          67.9235  -46.0420   23.3060 N.am      2 SEC2        0.0000 
     26 N          67.1110  -46.3600   22.0260 N.am     10 SEL2        0.0000 
     27 N          68.7360  -45.7240   24.5860 N.am      6 SEP2        0.0000 
     28 CA         64.6040  -43.5930   18.4215 C.3       4 GLC5        0.0000 
     29 CA         66.5300  -43.9010   18.9990 C.3      12 GLL5        0.0000 
     30 CA         71.0480  -45.5430   19.8755 C.3       4 GLC5        0.0000 
     31 CA         70.2720  -47.1030   19.2520 C.3      12 GLL5        0.0000 
     32 CA         71.8240  -43.9830   20.4990 C.3       8 GLP5        0.0000 
     33 CA         71.3985  -47.9105   20.5970 C.3       4 GLC5        0.0000 
     34 CA         72.5250  -48.7180   21.9420 C.3       8 GLP5        0.0000 
     35 CA         71.3485  -46.7570   18.3305 C.3       4 GLC5        0.0000 
     36 CA         72.4250  -46.4110   17.4090 C.3       8 GLP5        0.0000 
     37 CA         67.2970  -49.9730   15.7390 C.3       4 GLC5        0.0000 
     38 CA         66.7580  -48.0030   16.2810 C.3      12 GLL5        0.0000 
     39 CA         67.8360  -51.9430   15.1970 C.3       8 GLP5        0.0000 
     40 CA         67.6885  -48.1260   14.9180 C.3       4 GLC5        0.0000 
     41 CA         68.6190  -48.2490   13.5550 C.3       8 GLP5        0.0000 
     42 O          66.5260  -40.9965   19.7105 O.2       1 ALC1        0.0000 
     43 O          66.4470  -41.4310   21.0340 O.2       9 ALL1        0.0000 
     44 O          66.6050  -40.5620   18.3870 O.2       5 ALP1        0.0000 
     45 CA         64.7435  -38.1150   25.1022 C.3       4 GLC5        0.0000 
     46 CA         64.1250  -39.8470   24.6630 C.3      12 GLL5        0.0000 
     47 CA         65.4230  -36.4740   24.7860 C.3       8 GLP5        0.0000 
     48 CA         63.1578  -38.8320   27.9690 C.3       4 GLC5        0.0000 
     49 CA         64.0030  -39.6650   26.1740 C.3      12 GLL5        0.0000 
     50 CA         62.7120  -37.4340   29.4290 C.3       8 GLP5        0.0000 
     51 CA         62.2605  -39.3983   25.5846 C.3       4 GLC5        0.0000 
     52 CA         63.2040  -40.7950   26.8440 C.3      12 GLL5        0.0000 
     53 CA         60.8870  -38.5210   25.0380 C.3       8 GLP5        0.0000 
     54 CA         61.5403  -41.9498   26.7858 C.3       4 GLC5        0.0000 
     55 CA         59.5410  -42.4450   26.8840 C.3       8 GLP5        0.0000 
     56 CA         64.8550  -43.8745   25.3780 C.3       4 GLC5        0.0000 
     57 CA         63.8750  -42.1140   26.5310 C.3      12 GLL5        0.0000 
     58 CA         69.4818  -42.9922   24.6530 C.3       4 GLC5        0.0000 
     59 CA         68.0960  -42.2480   25.8350 C.3      12 GLL5        0.0000 
     60 CA         70.4780  -44.2770   23.6680 C.3       8 GLP5        0.0000 
     61 CA         66.5609  -43.7807   25.2235 C.3       4 GLC5        0.0000 
     62 CA         69.3748  -38.3625   21.8143 C.3       4 GLC5        0.0000 
     63 CA         70.2590  -39.1230   23.6950 C.3      12 GLL5        0.0000 
     64 CA         68.3180  -38.2630   20.0460 C.3       8 GLP5        0.0000 
     65 CA         72.0052  -39.1840   22.6898 C.3       4 GLC5        0.0000 
     66 CA         73.5790  -39.9060   21.7970 C.3       8 GLP5        0.0000 
     67 CA         68.1502  -43.0051   20.4506 C.3       4 GLC5        0.0000 
     68 CA         70.0550  -42.4510   21.0450 C.3       8 GLP5        0.0000 
     69 CA         67.8282  -43.3317   17.4772 C.3       4 GLC5        0.0000 
     70 CA         68.7800  -42.1270   16.1790 C.3       8 GLP5        0.0000 
     71 CA         69.4370  -45.4150   20.5785 C.3       4 GLC5        0.0000 
     72 CA         68.4530  -45.5520   19.0930 C.3      12 GLL5        0.0000 
     73 CA         70.1000  -44.6830   22.2590 C.3       8 GLP5        0.0000 
     74 CA         66.4579  -46.5259   15.2888 C.3       4 GLC5        0.0000 
     75 CA         66.0490  -45.7480   13.7390 C.3       8 GLP5        0.0000 
@<TRIPOS>BOND
@<TRIPOS>SUBSTRUCTURE
     1 ALC1        6 GROUP        1 X    ALC  0     ROOT ALC X 1
     2 SEC2       19 GROUP        1 X    SEC  0     **** SEC X 2
     3 ASC3       14 GROUP        1 X    ASC  0     **** ASC X 3
     4 GLC5        1 GROUP        1 X    GLC  0     **** GLC X 6
     5 ALP1        8 GROUP        1 Y    ALP  0     ROOT ALP Y 8
     6 SEP2       21 GROUP        1 Y    SEP  0     **** SEP Y 9
     7 ASP3       16 GROUP        1 Y    ASP  0     **** ASP Y 10
     8 GLP5        3 GROUP        1 Y    GLP  0     **** GLP Y 13
     9 ALL1        7 GROUP        1 Z    ALL  0     ROOT ALL Z 15
    10 SEL2       20 GROUP        1 Z    SEL  0     **** SEL Z 16
    11 ASL3       15 GROUP        1 Z    ASL  0     **** ASL Z 17
    12 GLL5        2 GROUP        1 Z    GLL  0     **** GLL Z 20
@<TRIPOS>SET

