#    Name: 3n4l_842_2_ligand
#    Modification time : Tue Mar 25 00:40:59 2014

@<TRIPOS>MOLECULE
3n4l_842_2_ligand
   66    69     1     0     0
SMALL
NO_CHARGES


@<TRIPOS>ATOM
      1 C1         65.1310  -47.3940   21.2520 C.3       1 842407      0.0000 
      2 C2         66.0420  -46.2180   21.4340 C.2       1 842407      0.0000 
      3 N3         65.5800  -45.0520   20.9320 N.am      1 842407      0.0000 
      4 C4         66.3340  -43.8660   20.5170 C.3       1 842407      0.0000 
      5 C5         65.5880  -42.5690   20.9100 C.3       1 842407      0.0000 
      6 C6         64.8030  -42.6470   22.2130 C.3       1 842407      0.0000 
      7 N7         64.6350  -41.3480   22.8260 N.4       1 842407      0.0000 
      8 C8         64.6960  -41.2160   24.2840 C.3       1 842407      0.0000 
      9 C9         64.1250  -39.8470   24.6630 C.3       1 842407      0.0000 
     10 C10        64.0030  -39.6650   26.1740 C.3       1 842407      0.0000 
     11 C11        63.2040  -40.7950   26.8440 C.3       1 842407      0.0000 
     12 C12        63.8750  -42.1140   26.5310 C.3       1 842407      0.0000 
     13 C13        63.8450  -42.2760   25.0150 C.3       1 842407      0.0000 
     14 C14        66.1620  -41.2530   24.7100 C.ar      1 842407      0.0000 
     15 C15        67.0000  -40.1840   24.3350 C.ar      1 842407      0.0000 
     16 C16        68.3520  -40.1010   24.6790 C.ar      1 842407      0.0000 
     17 C17        68.8750  -41.1670   25.4410 C.ar      1 842407      0.0000 
     18 C18        68.0960  -42.2480   25.8350 C.ar      1 842407      0.0000 
     19 C19        66.7330  -42.2810   25.4760 C.ar      1 842407      0.0000 
     20 N20        69.0620  -39.0480   24.2860 N.pl3     1 842407      0.0000 
     21 N21        68.5740  -37.7540   24.4680 N.2       1 842407      0.0000 
     22 C22        69.5780  -36.9810   23.9400 C.2       1 842407      0.0000 
     23 C23        70.6040  -37.8010   23.4700 C.2       1 842407      0.0000 
     24 C24        70.2590  -39.1230   23.6950 C.2       1 842407      0.0000 
     25 O25        67.1110  -46.3600   22.0260 O.2       1 842407      0.0000 
     26 C26        66.5300  -43.9010   18.9990 C.3       1 842407      0.0000 
     27 C27        67.2230  -45.1720   18.5520 C.ar      1 842407      0.0000 
     28 C28        68.4530  -45.5520   19.0930 C.ar      1 842407      0.0000 
     29 C29        69.0950  -46.7420   18.7030 C.ar      1 842407      0.0000 
     30 C30        68.5190  -47.5650   17.7500 C.ar      1 842407      0.0000 
     31 C31        67.3030  -47.1940   17.1980 C.ar      1 842407      0.0000 
     32 C32        66.6480  -46.0150   17.5940 C.ar      1 842407      0.0000 
     33 F33        70.2720  -47.1030   19.2520 F         1 842407      0.0000 
     34 F34        66.7580  -48.0030   16.2810 F         1 842407      0.0000 
     35 O35        66.4470  -41.4310   21.0340 O.3       1 842407      0.0000 
     36 H          64.5059  -44.9377   20.8024 H         1 842407      0.0000 
     37 H          67.3043  -43.8495   20.9810 H         1 842407      0.0000 
     38 H          64.8423  -42.3606   20.1118 H         1 842407      0.0000 
     39 H          65.3361  -43.3377   22.8898 H         1 842407      0.0000 
     40 H          63.8249  -43.1099   21.9930 H         1 842407      0.0000 
     41 H          63.1359  -39.7341   24.2061 H         1 842407      0.0000 
     42 H          64.7757  -39.0645   24.2579 H         1 842407      0.0000 
     43 H          63.5088  -38.7100   26.3841 H         1 842407      0.0000 
     44 H          65.0050  -39.6306   26.6158 H         1 842407      0.0000 
     45 H          62.1963  -40.7917   26.4545 H         1 842407      0.0000 
     46 H          63.1915  -40.6312   27.9118 H         1 842407      0.0000 
     47 H          63.3304  -42.9196   26.9876 H         1 842407      0.0000 
     48 H          64.8947  -42.0956   26.8686 H         1 842407      0.0000 
     49 H          64.2194  -43.2706   24.7482 H         1 842407      0.0000 
     50 H          62.8106  -42.1993   24.6616 H         1 842407      0.0000 
     51 H          66.5804  -39.4080   23.7648 H         1 842407      0.0000 
     52 H          69.8792  -41.1342   25.7127 H         1 842407      0.0000 
     53 H          68.4966  -43.0129   26.3775 H         1 842407      0.0000 
     54 H          66.1497  -43.0730   25.7820 H         1 842407      0.0000 
     55 H          69.5849  -36.0216   23.8951 H         1 842407      0.0000 
     56 H          71.4088  -37.4955   23.0616 H         1 842407      0.0000 
     57 H          70.7672  -39.8738   23.4734 H         1 842407      0.0000 
     58 H          67.1263  -43.0347   18.6989 H         1 842407      0.0000 
     59 H          65.5525  -43.8277   18.5140 H         1 842407      0.0000 
     60 H          68.9081  -44.9459   19.7995 H         1 842407      0.0000 
     61 H          68.9803  -48.4280   17.4593 H         1 842407      0.0000 
     62 H          65.7414  -45.7728   17.1759 H         1 842407      0.0000 
     63 H          64.9495  -47.5771   20.2858 H         1 842407      0.0000 
     64 H          65.5205  -48.2291   21.6405 H         1 842407      0.0000 
     65 H          64.2458  -47.2500   21.6944 H         1 842407      0.0000 
     66 H          66.5572  -41.0872   20.1014 H         1 842407      0.0000 
@<TRIPOS>BOND
     1    2    1 1    
     2   63    1 1    
     3   64    1 1    
     4   65    1 1    
     5    3    2 am   
     6   25    2 2    
     7    4    3 1    
     8   36    3 1    
     9    5    4 1    
    10   26    4 1    
    11   37    4 1    
    12    6    5 1    
    13   35    5 1    
    14   38    5 1    
    15    7    6 1    
    16   39    6 1    
    17   40    6 1    
    18    8    7 1    
    19    9    8 1    
    20   13    8 1    
    21   14    8 1    
    22   10    9 1    
    23   41    9 1    
    24   42    9 1    
    25   11   10 1    
    26   43   10 1    
    27   44   10 1    
    28   12   11 1    
    29   45   11 1    
    30   46   11 1    
    31   13   12 1    
    32   47   12 1    
    33   48   12 1    
    34   49   13 1    
    35   50   13 1    
    36   15   14 ar   
    37   19   14 ar   
    38   16   15 ar   
    39   51   15 1    
    40   17   16 ar   
    41   20   16 1    
    42   18   17 ar   
    43   52   17 1    
    44   19   18 ar   
    45   53   18 1    
    46   54   19 1    
    47   21   20 1    
    48   24   20 1    
    49   22   21 2    
    50   23   22 1    
    51   55   22 1    
    52   24   23 2    
    53   56   23 1    
    54   57   24 1    
    55   27   26 1    
    56   58   26 1    
    57   59   26 1    
    58   28   27 ar   
    59   32   27 ar   
    60   29   28 ar   
    61   60   28 1    
    62   30   29 ar   
    63   33   29 1    
    64   31   30 ar   
    65   61   30 1    
    66   32   31 ar   
    67   34   31 1    
    68   62   32 1    
    69   66   35 1    
@<TRIPOS>SUBSTRUCTURE
     1 842407      1 GROUP   
@<TRIPOS>SET

