#    Name: 3oil_VZ5_1_INTS_M
#    Modification time : Tue Mar 25 04:41:42 2014

@<TRIPOS>MOLECULE
3oil_VZ5_1_INTS_M
   32     0    12     0     0
SMALL
NO_CHARGES


@<TRIPOS>ATOM
      1 O          -4.2475   -1.6205   16.7330 O.2       1 ALC1        0.0000 
      2 O          -5.1030   -0.8310   15.9800 O.2       9 ALL1        0.0000 
      3 O          -3.3920   -2.4100   17.4860 O.2       5 ALP1        0.0000 
      4 Zn         -5.8160   -1.3575   15.5765 Zn        3 ZIC7        0.0000 
      5 Zn         -5.1030   -0.8310   15.9800 Zn       11 ZIL7        0.0000 
      6 Zn         -6.5290   -1.8840   15.1730 Zn        7 ZIP7        0.0000 
      7 N          -3.8710    0.3210   18.4720 N.am      2 SEC2        0.0000 
      8 N          -5.2400    0.6650   17.9910 N.am     10 SEL2        0.0000 
      9 N          -2.5020   -0.0230   18.9530 N.am      6 SEP2        0.0000 
     10 CA         -0.5270    0.5080    9.2790 C.3       4 GLC5        0.0000 
     11 CA         -2.2280    1.3260   10.1770 C.3      12 GLL5        0.0000 
     12 CA          1.1740   -0.3100    8.3810 C.3       8 GLP5        0.0000 
     13 CA          0.1100    1.3750    8.1865 C.3       4 GLC5        0.0000 
     14 CA         -0.9540    3.0600    7.9920 C.3      12 GLL5        0.0000 
     15 CA         -7.9245    3.4935   14.9155 C.3       4 GLC5        0.0000 
     16 CA         -6.0520    3.9110   15.0080 C.3      12 GLL5        0.0000 
     17 CA         -9.7970    3.0760   14.8230 C.3       8 GLP5        0.0000 
     18 CA         -7.6690    5.4440   15.3045 C.3       4 GLC5        0.0000 
     19 CA         -5.7630    5.3810   15.0740 C.3      12 GLL5        0.0000 
     20 CA         -9.5750    5.5070   15.5350 C.3       8 GLP5        0.0000 
     21 CA         -5.8110    7.0580   14.7940 C.3       4 GLC5        0.0000 
     22 CA         -5.8590    8.7350   14.5140 C.3       8 GLP5        0.0000 
     23 CA         -6.3085    6.2405   16.8110 C.3       4 GLC5        0.0000 
     24 CA         -6.8540    7.1000   18.5480 C.3       8 GLP5        0.0000 
     25 CA         -1.9311   -0.0760   13.3338 C.3       4 GLC5        0.0000 
     26 CA         -3.5860    1.2630   13.8100 C.3      12 GLL5        0.0000 
     27 CA         -0.8860   -1.2980   14.3130 C.3       8 GLP5        0.0000 
     28 CA         -4.9217    4.7155   16.7515 C.3       4 GLC5        0.0000 
     29 CA         -3.9360    4.7850   18.4620 C.3       8 GLP5        0.0000 
     30 CA         -2.2735    2.6901    6.5411 C.3       4 GLC5        0.0000 
     31 CA         -2.2560    3.3520    8.6650 C.3      12 GLL5        0.0000 
     32 CA         -2.9730    1.5060    5.4110 C.3       8 GLP5        0.0000 
@<TRIPOS>BOND
@<TRIPOS>SUBSTRUCTURE
     1 ALC1        1 GROUP        1 X    ALC  0     ROOT ALC X 1
     2 SEC2        7 GROUP        1 X    SEC  0     **** SEC X 2
     3 ZIC7        4 GROUP        1 X    ZIC  0     **** ZIC X 5
     4 GLC5       10 GROUP        1 X    GLC  0     **** GLC X 6
     5 ALP1        3 GROUP        1 Y    ALP  0     ROOT ALP Y 8
     6 SEP2        9 GROUP        1 Y    SEP  0     **** SEP Y 9
     7 ZIP7        6 GROUP        1 Y    ZIP  0     **** ZIP Y 12
     8 GLP5       12 GROUP        1 Y    GLP  0     **** GLP Y 13
     9 ALL1        2 GROUP        1 Z    ALL  0     ROOT ALL Z 15
    10 SEL2        8 GROUP        1 Z    SEL  0     **** SEL Z 16
    11 ZIL7        5 GROUP        1 Z    ZIL  0     **** ZIL Z 19
    12 GLL5       11 GROUP        1 Z    GLL  0     **** GLL Z 20
@<TRIPOS>SET

