#    Name: 3oil_VZ5_1_ligand
#    Modification time : Tue Mar 25 04:41:42 2014

@<TRIPOS>MOLECULE
3oil_VZ5_1_ligand
   54    57     1     0     0
SMALL
NO_CHARGES


@<TRIPOS>ATOM
      1 C1         -3.5860    1.2630   13.8100 C.ar      1 VZ5263      0.0000 
      2 N1         -5.1030   -0.8310   15.9800 N.pl3     1 VZ5263      0.0000 
      3 O1         -5.2400    0.6650   17.9910 O.2       1 VZ5263      0.0000 
      4 S1         -5.4820    0.6300   16.5590 S.o2      1 VZ5263      0.0000 
      5 C2         -4.4280    1.9930   14.6510 C.ar      1 VZ5263      0.0000 
      6 O2         -6.8600    1.0740   16.2980 O.2       1 VZ5263      0.0000 
      7 C3         -5.1300    3.1210   14.1520 C.ar      1 VZ5263      0.0000 
      8 O3         -4.5310    1.6200   15.9960 O.3       1 VZ5263      0.0000 
      9 C4         -4.9990    3.4470   12.7880 C.ar      1 VZ5263      0.0000 
     10 C5         -4.1180    2.7290   11.9370 C.ar      1 VZ5263      0.0000 
     11 C6         -3.4270    1.6270   12.4360 C.ar      1 VZ5263      0.0000 
     12 C7         -2.4460    0.8470   11.5860 C.3       1 VZ5263      0.0000 
     13 C8         -2.2280    1.3260   10.1770 C.3       1 VZ5263      0.0000 
     14 C9         -2.4980    2.7930   10.0750 C.3       1 VZ5263      0.0000 
     15 C10        -3.9200    3.1390   10.5040 C.3       1 VZ5263      0.0000 
     16 C11        -4.3650    4.5450   10.1120 C.3       1 VZ5263      0.0000 
     17 C12        -3.3120    5.4570    9.6020 C.3       1 VZ5263      0.0000 
     18 C13        -2.3030    4.8260    8.6000 C.3       1 VZ5263      0.0000 
     19 C14        -2.2560    3.3520    8.6650 C.3       1 VZ5263      0.0000 
     20 C15        -0.9540    3.0600    7.9920 C.3       1 VZ5263      0.0000 
     21 C16        -0.9480    4.0730    6.8700 C.3       1 VZ5263      0.0000 
     22 C17        -2.1380    5.0120    7.1580 C.3       1 VZ5263      0.0000 
     23 O17        -1.8300    6.2900    6.7770 O.3       1 VZ5263      0.0000 
     24 C18        -1.1170    5.4390    9.2000 C.3       1 VZ5263      0.0000 
     25 C19        -6.0520    3.9110   15.0080 C.3       1 VZ5263      0.0000 
     26 C20        -5.7630    5.3810   15.0740 C.3       1 VZ5263      0.0000 
     27 H          -3.0678    0.4521   14.1682 H         1 VZ5263      0.0000 
     28 H          -4.3695   -1.3162   16.4559 H         1 VZ5263      0.0000 
     29 H          -5.5522    4.2223   12.3947 H         1 VZ5263      0.0000 
     30 H          -2.7756   -0.2236   11.5570 H         1 VZ5263      0.0000 
     31 H          -1.4592    0.8225   12.1163 H         1 VZ5263      0.0000 
     32 H          -2.8937    0.7808    9.5020 H         1 VZ5263      0.0000 
     33 H          -1.1960    1.1196    9.8799 H         1 VZ5263      0.0000 
     34 H          -1.8180    3.3308   10.7544 H         1 VZ5263      0.0000 
     35 H          -4.5767    2.4186    9.8904 H         1 VZ5263      0.0000 
     36 H          -4.8636    5.0083   11.0006 H         1 VZ5263      0.0000 
     37 H          -5.1784    4.4482    9.3492 H         1 VZ5263      0.0000 
     38 H          -2.7226    5.8735   10.4480 H         1 VZ5263      0.0000 
     39 H          -3.7749    6.3338    9.0985 H         1 VZ5263      0.0000 
     40 H          -3.0577    2.9869    7.9916 H         1 VZ5263      0.0000 
     41 H          -0.9549    2.0800    7.5909 H         1 VZ5263      0.0000 
     42 H          -0.1457    3.2479    8.6497 H         1 VZ5263      0.0000 
     43 H          -1.1047    3.5890    5.9322 H         1 VZ5263      0.0000 
     44 H          -0.0444    4.6400    6.8868 H         1 VZ5263      0.0000 
     45 H          -2.9775    4.5757    6.6502 H         1 VZ5263      0.0000 
     46 H          -6.0384    3.4966   16.0440 H         1 VZ5263      0.0000 
     47 H          -7.0994    3.7678   14.6509 H         1 VZ5263      0.0000 
     48 H          -0.2719    5.0564    8.8265 H         1 VZ5263      0.0000 
     49 H          -1.0878    6.4257    9.0401 H         1 VZ5263      0.0000 
     50 H          -1.0885    5.3015   10.1901 H         1 VZ5263      0.0000 
     51 H          -4.8490    5.5639   15.4362 H         1 VZ5263      0.0000 
     52 H          -5.8121    5.8100   14.1720 H         1 VZ5263      0.0000 
     53 H          -6.4132    5.8613   15.6628 H         1 VZ5263      0.0000 
     54 H          -2.7070    6.7076    6.5395 H         1 VZ5263      0.0000 
@<TRIPOS>BOND
     1    5    1 ar   
     2   11    1 ar   
     3   27    1 1    
     4    4    2 1    
     5   28    2 1    
     6    4    3 2    
     7    6    4 2    
     8    8    4 1    
     9    7    5 ar   
    10    8    5 1    
    11    9    7 ar   
    12   25    7 1    
    13   10    9 ar   
    14   29    9 1    
    15   11   10 ar   
    16   15   10 1    
    17   12   11 1    
    18   13   12 1    
    19   30   12 1    
    20   31   12 1    
    21   14   13 1    
    22   32   13 1    
    23   33   13 1    
    24   15   14 1    
    25   19   14 1    
    26   34   14 1    
    27   16   15 1    
    28   35   15 1    
    29   17   16 1    
    30   36   16 1    
    31   37   16 1    
    32   18   17 1    
    33   38   17 1    
    34   39   17 1    
    35   19   18 1    
    36   22   18 1    
    37   24   18 1    
    38   20   19 1    
    39   40   19 1    
    40   21   20 1    
    41   41   20 1    
    42   42   20 1    
    43   22   21 1    
    44   43   21 1    
    45   44   21 1    
    46   23   22 1    
    47   45   22 1    
    48   54   23 1    
    49   48   24 1    
    50   49   24 1    
    51   50   24 1    
    52   26   25 1    
    53   46   25 1    
    54   47   25 1    
    55   51   26 1    
    56   52   26 1    
    57   53   26 1    
@<TRIPOS>SUBSTRUCTURE
     1 VZ5263      1 GROUP   
@<TRIPOS>SET

