#    Name: 1be4_PCG_2_INTS_M
#    Modification time : Mon Mar 24 19:31:41 2014

@<TRIPOS>MOLECULE
1be4_PCG_2_INTS_M
   41     0    12     0     0
SMALL
NO_CHARGES


@<TRIPOS>ATOM
      1 NZ         50.2375   83.3215   -4.2805 N.4       3 LYC4        0.0000 
      2 NZ         50.4520   82.0660   -4.8660 N.4      11 LYL4        0.0000 
      3 NZ         50.0230   84.5770   -3.6950 N.4       7 LYP4        0.0000 
      4 N          50.2375   83.3215   -4.2805 N.am      2 SEC2        0.0000 
      5 N          50.4520   82.0660   -4.8660 N.am     10 SEL2        0.0000 
      6 N          50.0230   84.5770   -3.6950 N.am      6 SEP2        0.0000 
      7 N          51.3145   83.0065   -5.4990 N.am      2 SEC2        0.0000 
      8 N          52.1770   83.9470   -6.1320 N.am      6 SEP2        0.0000 
      9 N          51.3015   80.8585   -4.4560 N.am      2 SEC2        0.0000 
     10 N          52.1510   79.6510   -4.0460 N.am      6 SEP2        0.0000 
     11 N          50.7015   79.8175   -4.1490 N.am      2 SEC2        0.0000 
     12 N          49.2520   79.9840   -4.2520 N.am     10 SEL2        0.0000 
     13 CA         49.3605   85.0415   -7.3765 C.3       4 GLC5        0.0000 
     14 CA         48.4660   83.0270   -6.9500 C.3      12 GLL5        0.0000 
     15 CA         50.2550   87.0560   -7.8030 C.3       8 GLP5        0.0000 
     16 N          48.9555   83.3100   -4.1840 N.am      2 SEC2        0.0000 
     17 N          47.8880   82.0430   -4.6730 N.am     10 SEL2        0.0000 
     18 CA         44.4330   84.2500   -5.6925 C.3       4 GLC5        0.0000 
     19 CA         46.5440   83.8790   -6.0250 C.3      12 GLL5        0.0000 
     20 CA         42.3220   84.6210   -5.3600 C.3       8 GLP5        0.0000 
     21 N          48.4955   84.7565   -4.4145 N.am      2 SEC2        0.0000 
     22 N          46.9680   84.9360   -5.1340 N.am     10 SEL2        0.0000 
     23 O          45.7495   85.6630   -4.5490 O.2       1 ALC1        0.0000 
     24 O          46.9680   84.9360   -5.1340 O.2       9 ALL1        0.0000 
     25 O          44.5310   86.3900   -3.9640 O.2       5 ALP1        0.0000 
     26 CA         46.4290   84.3715   -9.4690 C.3       4 GLC5        0.0000 
     27 CA         46.8290   84.4540   -7.4060 C.3      12 GLL5        0.0000 
     28 CA         46.0290   84.2890  -11.5320 C.3       8 GLP5        0.0000 
     29 CA         48.5420   85.7550   -7.6045 C.3       4 GLC5        0.0000 
     30 O          42.8565   89.7060   -7.6180 O.2       1 ALC1        0.0000 
     31 O          43.3090   88.6690   -8.5820 O.2       9 ALL1        0.0000 
     32 O          42.4040   90.7430   -6.6540 O.2       5 ALP1        0.0000 
     33 CA         44.9790   86.7605  -10.1850 C.3       4 GLC5        0.0000 
     34 CA         44.6390   85.4330   -8.4820 C.3      12 GLL5        0.0000 
     35 CA         45.3190   88.0880  -11.8880 C.3       8 GLP5        0.0000 
     36 CA         50.6827   82.8325   -7.7510 C.3       4 GLC5        0.0000 
     37 CA         52.4720   83.1980   -8.2960 C.3       8 GLP5        0.0000 
     38 CA         46.0285   81.9415   -5.3625 C.3       4 GLC5        0.0000 
     39 CA         47.3500   82.5750   -5.9970 C.3      12 GLL5        0.0000 
     40 CA         45.1100   80.6560   -4.7140 C.3       8 GLP5        0.0000 
     41 CA         43.2415   84.8395   -7.0977 C.3       4 GLC5        0.0000 
@<TRIPOS>BOND
@<TRIPOS>SUBSTRUCTURE
     1 ALC1       23 GROUP        1 X    ALC  0     ROOT ALC X 1
     2 SEC2        4 GROUP        1 X    SEC  0     **** SEC X 2
     3 LYC4        1 GROUP        1 X    LYC  0     **** LYC X 4
     4 GLC5       13 GROUP        1 X    GLC  0     **** GLC X 6
     5 ALP1       25 GROUP        1 Y    ALP  0     ROOT ALP Y 8
     6 SEP2        6 GROUP        1 Y    SEP  0     **** SEP Y 9
     7 LYP4        3 GROUP        1 Y    LYP  0     **** LYP Y 11
     8 GLP5       15 GROUP        1 Y    GLP  0     **** GLP Y 13
     9 ALL1       24 GROUP        1 Z    ALL  0     ROOT ALL Z 15
    10 SEL2        5 GROUP        1 Z    SEL  0     **** SEL Z 16
    11 LYL4        2 GROUP        1 Z    LYL  0     **** LYL Z 18
    12 GLL5       14 GROUP        1 Z    GLL  0     **** GLL Z 20
@<TRIPOS>SET

