#    Name: 1be4_PCG_2_ligand
#    Modification time : Mon Mar 24 19:31:41 2014

@<TRIPOS>MOLECULE
1be4_PCG_2_ligand
   34    37     1     0     0
SMALL
NO_CHARGES


@<TRIPOS>ATOM
      1 PA         49.1650   81.2760   -5.0120 P.3       1 PCG160      0.0000 
      2 O1A        50.4520   82.0660   -4.8660 O.co2     1 PCG160      0.0000 
      3 O2A        49.2520   79.9840   -4.2520 O.co2     1 PCG160      0.0000 
      4 O5'        49.1300   80.8980   -6.4680 O.3       1 PCG160      0.0000 
      5 C5'        49.3210   81.9070   -7.4620 C.3       1 PCG160      0.0000 
      6 C4'        48.4660   83.0270   -6.9500 C.3       1 PCG160      0.0000 
      7 O4'        47.7170   83.5680   -8.0410 O.3       1 PCG160      0.0000 
      8 C3'        47.3500   82.5750   -5.9970 C.3       1 PCG160      0.0000 
      9 O3'        47.8880   82.0430   -4.6730 O.3       1 PCG160      0.0000 
     10 C2'        46.5440   83.8790   -6.0250 C.3       1 PCG160      0.0000 
     11 O2'        46.9680   84.9360   -5.1340 O.3       1 PCG160      0.0000 
     12 C1'        46.8290   84.4540   -7.4060 C.3       1 PCG160      0.0000 
     13 N9         45.6230   84.5170   -8.1820 N.pl3     1 PCG160      0.0000 
     14 C8         45.2300   83.2770   -8.6100 C.2       1 PCG160      0.0000 
     15 N7         44.0900   83.3420   -9.2410 N.2       1 PCG160      0.0000 
     16 C5         43.6830   84.6830   -9.1890 C.2       1 PCG160      0.0000 
     17 C6         42.4960   85.3010   -9.7450 C.2       1 PCG160      0.0000 
     18 O6         41.5200   84.7790  -10.4390 O.2       1 PCG160      0.0000 
     19 N1         42.5620   86.6870   -9.3970 N.am      1 PCG160      0.0000 
     20 C2         43.5590   87.3520   -8.6820 C.2       1 PCG160      0.0000 
     21 N2         43.3090   88.6690   -8.5820 N.pl3     1 PCG160      0.0000 
     22 N3         44.6570   86.7750   -8.1490 N.2       1 PCG160      0.0000 
     23 C4         44.6390   85.4330   -8.4820 C.2       1 PCG160      0.0000 
     24 H          48.9581   81.5994   -8.4203 H         1 PCG160      0.0000 
     25 H          50.3379   82.2361   -7.5088 H         1 PCG160      0.0000 
     26 H          49.0354   83.7758   -6.4773 H         1 PCG160      0.0000 
     27 H          46.7870   81.8345   -6.5407 H         1 PCG160      0.0000 
     28 H          45.5136   83.6781   -5.9781 H         1 PCG160      0.0000 
     29 H          47.2642   85.4202   -7.2810 H         1 PCG160      0.0000 
     30 H          45.7640   82.4637   -8.4450 H         1 PCG160      0.0000 
     31 H          41.7277   87.2844   -9.7368 H         1 PCG160      0.0000 
     32 H          43.1855   89.0243   -7.6554 H         1 PCG160      0.0000 
     33 H          43.2688   89.1759   -9.4431 H         1 PCG160      0.0000 
     34 H          46.1236   85.3927   -4.8541 H         1 PCG160      0.0000 
@<TRIPOS>BOND
     1    2    1 ar   
     2    3    1 ar   
     3    4    1 1    
     4    9    1 1    
     5    5    4 1    
     6    6    5 1    
     7   24    5 1    
     8   25    5 1    
     9    7    6 1    
    10    8    6 1    
    11   26    6 1    
    12   12    7 1    
    13    9    8 1    
    14   10    8 1    
    15   27    8 1    
    16   11   10 1    
    17   12   10 1    
    18   28   10 1    
    19   34   11 1    
    20   13   12 1    
    21   29   12 1    
    22   14   13 1    
    23   23   13 1    
    24   15   14 2    
    25   30   14 1    
    26   16   15 1    
    27   17   16 1    
    28   23   16 2    
    29   18   17 2    
    30   19   17 am   
    31   20   19 1    
    32   31   19 1    
    33   21   20 1    
    34   22   20 2    
    35   32   21 1    
    36   33   21 1    
    37   23   22 1    
@<TRIPOS>SUBSTRUCTURE
     1 PCG160      1 GROUP   
@<TRIPOS>SET

