#    Name: 1dxy_NAD_1_INTS_M
#    Modification time : Mon Mar 24 22:34:09 2014

@<TRIPOS>MOLECULE
1dxy_NAD_1_INTS_M
   93     0     9     0     0
SMALL
NO_CHARGES


@<TRIPOS>ATOM
      1 N          77.9410   44.8870  -11.8730 N.am      2 SEC2        0.0000 
      2 N          78.4260   45.1580  -10.4890 N.am      8 SEL2        0.0000 
      3 N          77.4560   44.6160  -13.2570 N.am      5 SEP2        0.0000 
      4 CA         83.8380   42.7990  -10.6250 C.3       3 GLC5        0.0000 
      5 CA         81.6650   42.9300  -10.1200 C.3       9 GLL5        0.0000 
      6 CA         86.0110   42.6680  -11.1300 C.3       6 GLP5        0.0000 
      7 CA         82.3455   40.5245  -11.9100 C.3       3 GLC5        0.0000 
      8 CA         81.4880   41.4310  -10.2450 C.3       9 GLL5        0.0000 
      9 CA         83.2030   39.6180  -13.5750 C.3       6 GLP5        0.0000 
     10 O          80.2080   39.0735  -10.6715 O.2       1 ALC1        0.0000 
     11 O          79.5740   40.0580   -9.8590 O.2       7 ALL1        0.0000 
     12 O          80.8420   38.0890  -11.4840 O.2       4 ALP1        0.0000 
     13 O          80.9630   37.6295   -8.9130 O.2       1 ALC1        0.0000 
     14 O          80.9990   38.5760   -7.9890 O.2       7 ALL1        0.0000 
     15 O          80.9270   36.6830   -9.8370 O.2       4 ALP1        0.0000 
     16 CA         82.9190   39.6135  -11.4845 C.3       3 GLC5        0.0000 
     17 CA         82.6350   39.6090   -9.3940 C.3       9 GLL5        0.0000 
     18 CA         83.2660   37.5970   -9.2060 C.3       3 GLC5        0.0000 
     19 CA         83.8970   35.5850   -9.0180 C.3       6 GLP5        0.0000 
     20 N          86.9875   40.0040   -7.3470 N.am      2 SEC2        0.0000 
     21 N          85.8240   39.1010   -7.6760 N.am      8 SEL2        0.0000 
     22 N          88.1510   40.9070   -7.0180 N.am      5 SEP2        0.0000 
     23 CA         88.9700   37.3605   -9.6735 C.3       3 GLC5        0.0000 
     24 CA         87.0490   37.7140   -9.3130 C.3       9 GLL5        0.0000 
     25 CA         90.8910   37.0070  -10.0340 C.3       6 GLP5        0.0000 
     26 O          88.6780   38.1925   -7.5855 O.2       1 ALC1        0.0000 
     27 O          88.0750   37.3750   -8.5170 O.2       7 ALL1        0.0000 
     28 O          89.2810   39.0100   -6.6540 O.2       4 ALP1        0.0000 
     29 CA         86.6560   37.8665  -13.2345 C.3       3 GLC5        0.0000 
     30 CA         85.8150   37.3410  -11.3180 C.3       9 GLL5        0.0000 
     31 CA         87.4970   38.3920  -15.1510 C.3       6 GLP5        0.0000 
     32 CA         84.5090   38.4795  -12.4465 C.3       3 GLC5        0.0000 
     33 CA         84.2070   36.2200  -11.5025 C.3       3 GLC5        0.0000 
     34 CA         82.5990   35.0990  -11.6870 C.3       6 GLP5        0.0000 
     35 CA         84.8560   36.4630  -10.1680 C.3       3 GLC5        0.0000 
     36 CA         86.2640   38.8810  -11.6250 C.3       3 GLC5        0.0000 
     37 CA         86.7130   40.4210  -11.9320 C.3       6 GLP5        0.0000 
     38 CA         84.0090   39.1235  -11.6125 C.3       3 GLC5        0.0000 
     39 CA         84.8150   38.6290   -9.6500 C.3       9 GLL5        0.0000 
     40 N          79.8100   46.0485  -14.1505 N.am      2 SEC2        0.0000 
     41 N          80.6970   45.8690  -12.9790 N.am      8 SEL2        0.0000 
     42 N          78.9230   46.2280  -15.3220 N.am      5 SEP2        0.0000 
     43 N          78.3450   47.7800  -11.4105 N.am      2 SEC2        0.0000 
     44 N          79.9420   47.9580  -11.7140 N.am      8 SEL2        0.0000 
     45 N          76.7480   47.6020  -11.1070 N.am      5 SEP2        0.0000 
     46 CA         86.6155   46.8790  -12.6065 C.3       3 GLC5        0.0000 
     47 CA         84.8080   47.2250  -11.9250 C.3       9 GLL5        0.0000 
     48 CA         88.4230   46.5330  -13.2880 C.3       6 GLP5        0.0000 
     49 CA         85.4775   46.2265   -9.2035 C.3       3 GLC5        0.0000 
     50 CA         84.8100   47.6580  -10.4600 C.3       9 GLL5        0.0000 
     51 CA         86.1450   44.7950   -7.9470 C.3       6 GLP5        0.0000 
     52 O          86.6010   46.1605  -10.2535 O.2       1 ALC1        0.0000 
     53 O          86.1510   47.5650   -9.9580 O.2       7 ALL1        0.0000 
     54 O          87.0510   44.7560  -10.5490 O.2       4 ALP1        0.0000 
     55 CA         86.9765   48.7775  -12.6645 C.3       3 GLC5        0.0000 
     56 CA         85.3210   49.5290  -11.7190 C.3       9 GLL5        0.0000 
     57 CA         88.6320   48.0260  -13.6100 C.3       6 GLP5        0.0000 
     58 CA         87.3860   49.7515  -13.3495 C.3       3 GLC5        0.0000 
     59 CA         86.1400   51.4770  -13.0890 C.3       9 GLL5        0.0000 
     60 CA         84.8510   52.5615  -15.3760 C.3       3 GLC5        0.0000 
     61 CA         85.9800   52.7660  -13.6390 C.3       9 GLL5        0.0000 
     62 CA         83.7220   52.3570  -17.1130 C.3       6 GLP5        0.0000 
     63 N          86.1415   55.2285  -16.4015 N.am      2 SEC2        0.0000 
     64 N          86.9060   54.6340  -15.0010 N.am      8 SEL2        0.0000 
     65 N          85.3770   55.8230  -17.8020 N.am      5 SEP2        0.0000 
     66 O          88.1085   51.4205  -15.1475 O.2       1 ALC1        0.0000 
     67 O          88.1670   52.7820  -14.8980 O.2       7 ALL1        0.0000 
     68 O          88.0500   50.0590  -15.3970 O.2       4 ALP1        0.0000 
     69 O          89.1130   53.2890  -16.1430 O.2       1 ALC1        0.0000 
     70 O          90.0590   53.7960  -17.3880 O.2       4 ALP1        0.0000 
     71 CA         84.3950   55.0370  -14.6235 C.3       3 GLC5        0.0000 
     72 CA         84.7560   53.4110  -13.3020 C.3       9 GLL5        0.0000 
     73 CA         84.0340   56.6630  -15.9450 C.3       6 GLP5        0.0000 
     74 CA         82.9390   50.3555  -13.3300 C.3       3 GLC5        0.0000 
     75 CA         83.9060   51.5750  -11.9570 C.3       9 GLL5        0.0000 
     76 CA         81.9720   49.1360  -14.7030 C.3       6 GLP5        0.0000 
     77 CA         83.2252   42.4772   -9.2812 C.3       3 GLC5        0.0000 
     78 CA         84.8740   42.7740   -8.3800 C.3       6 GLP5        0.0000 
     79 CA         79.7146   41.9386  -11.1831 C.3       3 GLC5        0.0000 
     80 CA         78.3340   42.3990  -12.6860 C.3       6 GLP5        0.0000 
     81 CA         83.4828   41.2508   -8.6345 C.3       3 GLC5        0.0000 
     82 CA         81.5480   39.8460   -8.3840 C.3       9 GLL5        0.0000 
     83 CA         85.1320   40.6722   -8.8198 C.3       3 GLC5        0.0000 
     84 CA         85.9650   38.5120   -8.8690 C.3       9 GLL5        0.0000 
     85 CA         84.7790   36.9780   -9.1943 C.3       3 GLC5        0.0000 
     86 CA         86.1870   39.3960  -10.6513 C.3       3 GLC5        0.0000 
     87 CA         83.0685   47.9977  -13.3993 C.3       3 GLC5        0.0000 
     88 CA         83.5220   46.4940  -12.2660 C.3       9 GLL5        0.0000 
     89 CA         84.8110   45.3598  -13.4032 C.3       3 GLC5        0.0000 
     90 CA         85.4570   43.8600  -14.7110 C.3       6 GLP5        0.0000 
     91 CA         83.4018   52.9885  -14.6215 C.3       3 GLC5        0.0000 
     92 CA         83.7390   52.8490  -12.4860 C.3       9 GLL5        0.0000 
     93 CA         82.5560   52.8470  -16.3490 C.3       6 GLP5        0.0000 
@<TRIPOS>BOND
@<TRIPOS>SUBSTRUCTURE
     1 ALC1       10 GROUP        1 X    ALC  0     ROOT ALC X 1
     2 SEC2        1 GROUP        1 X    SEC  0     **** SEC X 2
     3 GLC5        4 GROUP        1 X    GLC  0     **** GLC X 6
     4 ALP1       12 GROUP        1 Y    ALP  0     ROOT ALP Y 8
     5 SEP2        3 GROUP        1 Y    SEP  0     **** SEP Y 9
     6 GLP5        6 GROUP        1 Y    GLP  0     **** GLP Y 13
     7 ALL1       11 GROUP        1 Z    ALL  0     ROOT ALL Z 15
     8 SEL2        2 GROUP        1 Z    SEL  0     **** SEL Z 16
     9 GLL5        5 GROUP        1 Z    GLL  0     **** GLL Z 20
@<TRIPOS>SET

