#    Name: 1dxy_NAD_1_ligand
#    Modification time : Mon Mar 24 22:34:09 2014

@<TRIPOS>MOLECULE
1dxy_NAD_1_ligand
   70    74     1     0     0
SMALL
NO_CHARGES


@<TRIPOS>ATOM
      1 PA         79.7930   44.8760   -9.9500 P.3       1 NAD336      0.0000 
      2 O1A        80.0010   44.8880   -8.4590 O.co2     1 NAD336      0.0000 
      3 O2A        78.4260   45.1580  -10.4890 O.co2     1 NAD336      0.0000 
      4 O5B        80.4040   43.4800  -10.5080 O.3       1 NAD336      0.0000 
      5 C5B        81.6650   42.9300  -10.1200 C.3       1 NAD336      0.0000 
      6 C4B        81.4880   41.4310  -10.2450 C.3       1 NAD336      0.0000 
      7 O4B        82.7670   40.8020  -10.1670 O.3       1 NAD336      0.0000 
      8 C3B        80.6140   40.7760   -9.1780 C.3       1 NAD336      0.0000 
      9 O3B        79.5740   40.0580   -9.8590 O.3       1 NAD336      0.0000 
     10 C2B        81.5480   39.8460   -8.3840 C.3       1 NAD336      0.0000 
     11 O2B        80.9990   38.5760   -7.9890 O.3       1 NAD336      0.0000 
     12 C1B        82.6350   39.6090   -9.3940 C.3       1 NAD336      0.0000 
     13 N9A        83.9430   39.2450   -8.8550 N.pl3     1 NAD336      0.0000 
     14 C8A        84.5430   39.5110   -7.6740 C.2       1 NAD336      0.0000 
     15 N7A        85.8240   39.1010   -7.6760 N.2       1 NAD336      0.0000 
     16 C5A        85.9650   38.5120   -8.8690 C.ar      1 NAD336      0.0000 
     17 C6A        87.0490   37.7140   -9.3130 C.ar      1 NAD336      0.0000 
     18 N6A        88.0750   37.3750   -8.5170 N.pl3     1 NAD336      0.0000 
     19 N1A        86.9140   37.1600  -10.5630 N.ar      1 NAD336      0.0000 
     20 C2A        85.8150   37.3410  -11.3180 C.ar      1 NAD336      0.0000 
     21 N3A        84.7700   38.0540  -10.8880 N.ar      1 NAD336      0.0000 
     22 C4A        84.8150   38.6290   -9.6500 C.ar      1 NAD336      0.0000 
     23 O3         80.8600   45.9040  -10.5710 O.3       1 NAD336      0.0000 
     24 PN         80.9180   46.8370  -11.8650 P.3       1 NAD336      0.0000 
     25 O1N        80.6970   45.8690  -12.9790 O.co2     1 NAD336      0.0000 
     26 O2N        79.9420   47.9580  -11.7140 O.co2     1 NAD336      0.0000 
     27 O5D        82.4510   47.3520  -11.8350 O.3       1 NAD336      0.0000 
     28 C5D        83.5220   46.4940  -12.2660 C.3       1 NAD336      0.0000 
     29 C4D        84.8080   47.2250  -11.9250 C.3       1 NAD336      0.0000 
     30 O4D        85.0480   48.4520  -12.6810 O.3       1 NAD336      0.0000 
     31 C3D        84.8100   47.6580  -10.4600 C.3       1 NAD336      0.0000 
     32 O3D        86.1510   47.5650   -9.9580 O.3       1 NAD336      0.0000 
     33 C2D        84.4670   49.1490  -10.4880 C.3       1 NAD336      0.0000 
     34 O2D        84.8650   49.6520   -9.1870 O.3       1 NAD336      0.0000 
     35 C1D        85.3210   49.5290  -11.7190 C.3       1 NAD336      0.0000 
     36 N1N        85.1220   50.9040  -12.2650 N.pl3     1 NAD336      0.0000 
     37 C2N        86.1400   51.4770  -13.0890 C.ar      1 NAD336      0.0000 
     38 C3N        85.9800   52.7660  -13.6390 C.ar      1 NAD336      0.0000 
     39 C7N        87.0620   53.4790  -14.5560 C.2       1 NAD336      0.0000 
     40 O7N        86.9060   54.6340  -15.0010 O.2       1 NAD336      0.0000 
     41 N7N        88.1670   52.7820  -14.8980 N.am      1 NAD336      0.0000 
     42 C4N        84.7560   53.4110  -13.3020 C.ar      1 NAD336      0.0000 
     43 C5N        83.7390   52.8490  -12.4860 C.ar      1 NAD336      0.0000 
     44 C6N        83.9060   51.5750  -11.9570 C.ar      1 NAD336      0.0000 
     45 H          81.9095   43.1619   -9.0965 H         1 NAD336      0.0000 
     46 H          82.4601   43.2372  -10.7792 H         1 NAD336      0.0000 
     47 H          81.0432   41.2106  -11.2192 H         1 NAD336      0.0000 
     48 H          80.2492   41.5329   -8.5380 H         1 NAD336      0.0000 
     49 H          81.9719   40.4033   -7.5845 H         1 NAD336      0.0000 
     50 H          82.2870   38.8054  -10.0698 H         1 NAD336      0.0000 
     51 H          84.0977   39.9481   -6.9131 H         1 NAD336      0.0000 
     52 H          88.2814   38.0086   -7.7713 H         1 NAD336      0.0000 
     53 H          88.5413   36.5192   -8.7407 H         1 NAD336      0.0000 
     54 H          85.7812   36.9036  -12.2813 H         1 NAD336      0.0000 
     55 H          83.4958   46.3259  -13.3334 H         1 NAD336      0.0000 
     56 H          83.5148   45.5495  -11.7406 H         1 NAD336      0.0000 
     57 H          85.6521   46.5490  -12.0471 H         1 NAD336      0.0000 
     58 H          84.1105   47.1414   -9.9216 H         1 NAD336      0.0000 
     59 H          83.4600   49.2242  -10.7173 H         1 NAD336      0.0000 
     60 H          86.3766   49.4075  -11.3910 H         1 NAD336      0.0000 
     61 H          86.9905   50.9398  -13.2769 H         1 NAD336      0.0000 
     62 H          88.2320   51.8533  -14.5329 H         1 NAD336      0.0000 
     63 H          88.8221   53.2565  -15.4859 H         1 NAD336      0.0000 
     64 H          84.5944   54.3778  -13.6879 H         1 NAD336      0.0000 
     65 H          82.8932   53.3898  -12.2966 H         1 NAD336      0.0000 
     66 H          83.2119   51.1358  -11.3838 H         1 NAD336      0.0000 
     67 H          80.0522   39.4017  -10.4426 H         1 NAD336      0.0000 
     68 H          81.0777   37.9966   -8.8002 H         1 NAD336      0.0000 
     69 H          86.4271   46.6196  -10.1312 H         1 NAD336      0.0000 
     70 H          85.6174   49.0593   -8.8997 H         1 NAD336      0.0000 
@<TRIPOS>BOND
     1    2    1 ar   
     2    3    1 ar   
     3    4    1 1    
     4   23    1 1    
     5    5    4 1    
     6    6    5 1    
     7   45    5 1    
     8   46    5 1    
     9    7    6 1    
    10    8    6 1    
    11   47    6 1    
    12   12    7 1    
    13    9    8 1    
    14   10    8 1    
    15   48    8 1    
    16   67    9 1    
    17   11   10 1    
    18   12   10 1    
    19   49   10 1    
    20   68   11 1    
    21   13   12 1    
    22   50   12 1    
    23   14   13 1    
    24   22   13 1    
    25   15   14 2    
    26   51   14 1    
    27   16   15 1    
    28   17   16 ar   
    29   22   16 ar   
    30   18   17 1    
    31   19   17 ar   
    32   52   18 1    
    33   53   18 1    
    34   20   19 ar   
    35   21   20 ar   
    36   54   20 1    
    37   22   21 ar   
    38   24   23 1    
    39   25   24 ar   
    40   26   24 ar   
    41   27   24 1    
    42   28   27 1    
    43   29   28 1    
    44   55   28 1    
    45   56   28 1    
    46   30   29 1    
    47   31   29 1    
    48   57   29 1    
    49   35   30 1    
    50   32   31 1    
    51   33   31 1    
    52   58   31 1    
    53   69   32 1    
    54   34   33 1    
    55   35   33 1    
    56   59   33 1    
    57   70   34 1    
    58   36   35 1    
    59   60   35 1    
    60   37   36 ar   
    61   44   36 ar   
    62   38   37 ar   
    63   61   37 1    
    64   39   38 1    
    65   42   38 ar   
    66   40   39 2    
    67   41   39 am   
    68   62   41 1    
    69   63   41 1    
    70   43   42 ar   
    71   64   42 1    
    72   44   43 ar   
    73   65   43 1    
    74   66   44 1    
@<TRIPOS>SUBSTRUCTURE
     1 NAD336      1 GROUP   
@<TRIPOS>SET

