#    Name: 2xir_00J_1_INTS_M
#    Modification time : Tue Mar 25 06:03:54 2014

@<TRIPOS>MOLECULE
2xir_00J_1_INTS_M
   83     0     6     0     0
SMALL
NO_CHARGES


@<TRIPOS>ATOM
      1 N          23.4145   22.5025   34.4290 N.am      1 SEC2        0.0000 
      2 N          24.1390   22.7260   35.4360 N.am      5 SEL2        0.0000 
      3 N          22.6900   22.2790   33.4220 N.am      3 SEP2        0.0000 
      4 CA         27.6970   20.3895   35.7365 C.3       2 GLC5        0.0000 
      5 CA         26.6990   21.7980   34.8340 C.3       6 GLL5        0.0000 
      6 CA         28.6950   18.9810   36.6390 C.3       4 GLP5        0.0000 
      7 CA         28.1035   23.0560   34.6515 C.3       2 GLC5        0.0000 
      8 CA         29.5080   24.3140   34.4690 C.3       4 GLP5        0.0000 
      9 CA         24.8200   24.7465   36.5255 C.3       2 GLC5        0.0000 
     10 CA         24.4620   22.9140   37.7440 C.3       6 GLL5        0.0000 
     11 CA         25.1780   26.5790   35.3070 C.3       4 GLP5        0.0000 
     12 CA         21.1550   21.6375   36.8240 C.3       2 GLC5        0.0000 
     13 CA         22.0350   23.5980   37.2590 C.3       6 GLL5        0.0000 
     14 CA         20.2750   19.6770   36.3890 C.3       4 GLP5        0.0000 
     15 CA         25.7020   21.5005   40.7680 C.3       2 GLC5        0.0000 
     16 CA         26.6430   22.4770   39.3810 C.3       6 GLL5        0.0000 
     17 CA         24.7610   20.5240   42.1550 C.3       4 GLP5        0.0000 
     18 CA         28.1020   22.9290   38.0920 C.3       2 GLC5        0.0000 
     19 CA         29.5610   23.3810   36.8030 C.3       4 GLP5        0.0000 
     20 CA         28.1435   22.5495   40.2485 C.3       2 GLC5        0.0000 
     21 CA         29.6440   22.6220   41.1160 C.3       4 GLP5        0.0000 
     22 CA         21.8655   25.5095   41.6640 C.3       2 GLC5        0.0000 
     23 CA         22.0360   24.0120   40.0550 C.3       6 GLL5        0.0000 
     24 CA         21.6950   27.0070   43.2730 C.3       4 GLP5        0.0000 
     25 CA         20.6155   25.8675   37.1670 C.3       2 GLC5        0.0000 
     26 CA         20.8880   24.0480   37.9090 C.3       6 GLL5        0.0000 
     27 CA         20.3430   27.6870   36.4250 C.3       4 GLP5        0.0000 
     28 CA         20.5955   24.2980   36.0840 C.3       2 GLC5        0.0000 
     29 CA         20.3030   24.5480   34.2590 C.3       4 GLP5        0.0000 
     30 CA         18.5475   29.7145   39.4365 C.3       2 GLC5        0.0000 
     31 CA         18.2040   27.9210   40.7340 C.3       6 GLL5        0.0000 
     32 CA         18.8910   31.5080   38.1390 C.3       4 GLP5        0.0000 
     33 N          19.4130   30.2350   40.5300 N.am      1 SEC2        0.0000 
     34 N          19.2490   28.7690   40.5680 N.am      5 SEL2        0.0000 
     35 N          19.5770   31.7010   40.4920 N.am      3 SEP2        0.0000 
     36 CA         20.8450   29.9620   41.2210 C.3       2 GLC5        0.0000 
     37 CA         20.4520   28.3170   40.1850 C.3       6 GLL5        0.0000 
     38 CA         21.2380   31.6070   42.2570 C.3       4 GLP5        0.0000 
     39 CA         19.6715   29.9125   39.1620 C.3       2 GLC5        0.0000 
     40 CA         15.6820   27.1000   43.2095 C.3       2 GLC5        0.0000 
     41 CA         15.8860   27.5440   41.2920 C.3       6 GLL5        0.0000 
     42 CA         15.4780   26.6560   45.1270 C.3       4 GLP5        0.0000 
     43 CA         14.3945   29.1515   40.2040 C.3       2 GLC5        0.0000 
     44 CA         14.4800   29.3380   42.1650 C.3       6 GLL5        0.0000 
     45 CA         14.3090   28.9650   38.2430 C.3       4 GLP5        0.0000 
     46 CA         12.9390   29.5555   39.8405 C.3       2 GLC5        0.0000 
     47 CA         11.5690   30.1460   41.4380 C.3       6 GLL5        0.0000 
     48 CA         22.3190   24.2623   35.8790 C.3       2 GLC5        0.0000 
     49 CA         23.1670   23.3590   38.0250 C.3       6 GLL5        0.0000 
     50 CA         22.0370   25.0460   34.1160 C.3       4 GLP5        0.0000 
     51 CA         23.6052   25.3317   40.1312 C.3       2 GLC5        0.0000 
     52 CA         23.1650   23.5610   39.3960 C.3       6 GLL5        0.0000 
     53 CA         24.6100   26.8770   40.5370 C.3       4 GLP5        0.0000 
     54 CA         24.0439   21.3127   39.0148 C.3       2 GLC5        0.0000 
     55 CA         23.7210   19.5220   39.2070 C.3       4 GLP5        0.0000 
     56 CA         26.4322   24.4733   39.4570 C.3       2 GLC5        0.0000 
     57 CA         25.2440   22.8580   39.0050 C.3       6 GLL5        0.0000 
     58 CA         26.9210   26.2790   39.7210 C.3       4 GLP5        0.0000 
     59 CA         21.1134   22.6936   40.6349 C.3       2 GLC5        0.0000 
     60 CA         20.4810   21.3690   41.7610 C.3       4 GLP5        0.0000 
     61 CA         22.5810   27.2572   40.3030 C.3       2 GLC5        0.0000 
     62 CA         20.6520   26.9580   39.9530 C.3       6 GLL5        0.0000 
     63 CA         20.4475   27.6623   38.2470 C.3       2 GLC5        0.0000 
     64 CA         19.9877   27.1210   41.9473 C.3       2 GLC5        0.0000 
     65 CA         18.3570   26.5490   40.5090 C.3       6 GLL5        0.0000 
     66 CA         16.5005   25.1918   42.5395 C.3       2 GLC5        0.0000 
     67 CA         17.2850   25.6750   40.6750 C.3       6 GLL5        0.0000 
     68 CA         16.3340   24.4570   44.2080 C.3       4 GLP5        0.0000 
     69 CA         19.0921   24.7100   41.7943 C.3       2 GLC5        0.0000 
     70 CA         20.0530   23.4310   43.0940 C.3       4 GLP5        0.0000 
     71 CA         18.0388   27.0760   38.6936 C.3       2 GLC5        0.0000 
     72 CA         19.5980   26.0570   40.1190 C.3       6 GLL5        0.0000 
     73 CA         17.9100   27.1970   36.7730 C.3       4 GLP5        0.0000 
     74 CA         20.9918   27.2096   41.6917 C.3       2 GLC5        0.0000 
     75 CA         17.7631   27.1060   42.7221 C.3       2 GLC5        0.0000 
     76 CA         17.9050   26.3850   44.5720 C.3       4 GLP5        0.0000 
     77 CA         15.2727   28.0224   39.6901 C.3       2 GLC5        0.0000 
     78 CA         16.9620   28.4190   41.1230 C.3       6 GLL5        0.0000 
     79 CA         14.6655   28.0150   43.8635 C.3       2 GLC5        0.0000 
     80 CA         15.2160   30.3815   43.5050 C.3       2 GLC5        0.0000 
     81 CA         16.5790   31.3890   44.4100 C.3       4 GLP5        0.0000 
     82 CA         11.9633   31.2480   39.7843 C.3       2 GLC5        0.0000 
     83 CA         13.0010   32.5430   38.4940 C.3       4 GLP5        0.0000 
@<TRIPOS>BOND
@<TRIPOS>SUBSTRUCTURE
     1 SEC2        1 GROUP        1 X    SEC  0     ROOT SEC X 2
     2 GLC5        4 GROUP        1 X    GLC  0     **** GLC X 6
     3 SEP2        3 GROUP        1 Y    SEP  0     ROOT SEP Y 9
     4 GLP5        6 GROUP        1 Y    GLP  0     **** GLP Y 13
     5 SEL2        2 GROUP        1 Z    SEL  0     ROOT SEL Z 16
     6 GLL5        5 GROUP        1 Z    GLL  0     **** GLL Z 20
@<TRIPOS>SET

