#    Name: 2xir_00J_1_ligand
#    Modification time : Tue Mar 25 06:03:54 2014

@<TRIPOS>MOLECULE
2xir_00J_1_ligand
   62    66     1     0     0
SMALL
NO_CHARGES


@<TRIPOS>ATOM
      1 O30        24.1390   22.7260   35.4360 O.2       1 00J2169     0.0000 
      2 C26        24.9110   22.5830   36.3600 C.2       1 00J2169     0.0000 
      3 N28        26.1460   22.1490   36.1350 N.am      1 00J2169     0.0000 
      4 C2         26.6990   21.7980   34.8340 C.3       1 00J2169     0.0000 
      5 C25        24.4620   22.9140   37.7440 C.2       1 00J2169     0.0000 
      6 C21        23.1670   23.3590   38.0250 C.ar      1 00J2169     0.0000 
      7 C6         22.0350   23.5980   37.2590 C.ar      1 00J2169     0.0000 
      8 C24        23.1650   23.5610   39.3960 C.ar      1 00J2169     0.0000 
      9 O31        24.4120   23.2660   40.0040 O.3       1 00J2169     0.0000 
     10 C17        25.2440   22.8580   39.0050 C.2       1 00J2169     0.0000 
     11 C1         26.6430   22.4770   39.3810 C.3       1 00J2169     0.0000 
     12 C10        22.0360   24.0120   40.0550 C.ar      1 00J2169     0.0000 
     13 C19        20.8910   24.2500   39.2920 C.ar      1 00J2169     0.0000 
     14 C4         20.8880   24.0480   37.9090 C.ar      1 00J2169     0.0000 
     15 O34        19.7570   24.7070   39.9020 O.3       1 00J2169     0.0000 
     16 C22        19.5980   26.0570   40.1190 C.ar      1 00J2169     0.0000 
     17 C7         20.6520   26.9580   39.9530 C.ar      1 00J2169     0.0000 
     18 C20        18.3570   26.5490   40.5090 C.ar      1 00J2169     0.0000 
     19 C5         17.2850   25.6750   40.6750 C.ar      1 00J2169     0.0000 
     20 C23        18.2040   27.9210   40.7340 C.ar      1 00J2169     0.0000 
     21 N27        19.2490   28.7690   40.5680 N.ar      1 00J2169     0.0000 
     22 C8         20.4520   28.3170   40.1850 C.ar      1 00J2169     0.0000 
     23 C9         16.9620   28.4190   41.1230 C.ar      1 00J2169     0.0000 
     24 C18        15.8860   27.5440   41.2920 C.ar      1 00J2169     0.0000 
     25 C3         16.0490   26.1780   41.0670 C.ar      1 00J2169     0.0000 
     26 O33        14.6540   28.0070   41.6800 O.3       1 00J2169     0.0000 
     27 C16        14.4800   29.3380   42.1650 C.3       1 00J2169     0.0000 
     28 C15        13.2260   29.4100   43.0350 C.3       1 00J2169     0.0000 
     29 N29        12.0280   29.0180   42.2750 N.4       1 00J2169     0.0000 
     30 C11        11.5690   30.1460   41.4380 C.3       1 00J2169     0.0000 
     31 C12        10.9790   28.6130   43.2300 C.3       1 00J2169     0.0000 
     32 C14         9.6910   28.2700   42.4820 C.3       1 00J2169     0.0000 
     33 O32         9.2930   29.3840   41.6750 O.3       1 00J2169     0.0000 
     34 C13        10.2820   29.7600   40.7110 C.3       1 00J2169     0.0000 
     35 H          26.8321   22.0301   36.9466 H         1 00J2169     0.0000 
     36 H          22.0399   23.4502   36.2553 H         1 00J2169     0.0000 
     37 H          22.0332   24.1662   41.0557 H         1 00J2169     0.0000 
     38 H          20.0312   24.2336   37.3688 H         1 00J2169     0.0000 
     39 H          21.5755   26.6167   39.6594 H         1 00J2169     0.0000 
     40 H          17.4068   24.6723   40.5098 H         1 00J2169     0.0000 
     41 H          21.2535   28.9647   40.0542 H         1 00J2169     0.0000 
     42 H          16.8366   29.4233   41.2850 H         1 00J2169     0.0000 
     43 H          15.2506   25.5403   41.1918 H         1 00J2169     0.0000 
     44 H          14.3604   30.0572   41.3465 H         1 00J2169     0.0000 
     45 H          15.3298   29.6629   42.7764 H         1 00J2169     0.0000 
     46 H          13.1254   30.4355   43.4106 H         1 00J2169     0.0000 
     47 H          13.3674   28.7493   43.8989 H         1 00J2169     0.0000 
     48 H          12.2737   28.1753   41.6402 H         1 00J2169     0.0000 
     49 H          12.3236   30.4033   40.6946 H         1 00J2169     0.0000 
     50 H          11.3701   31.0235   42.0534 H         1 00J2169     0.0000 
     51 H          10.7662   29.4211   43.9326 H         1 00J2169     0.0000 
     52 H          11.2939   27.7349   43.7972 H         1 00J2169     0.0000 
     53 H           8.9289   28.0161   43.2260 H         1 00J2169     0.0000 
     54 H           9.8828   27.3787   41.8756 H         1 00J2169     0.0000 
     55 H          10.5157   28.9386   40.0285 H         1 00J2169     0.0000 
     56 H           9.9620   30.6196   40.1161 H         1 00J2169     0.0000 
     57 H          27.6500   21.4968   34.9037 H         1 00J2169     0.0000 
     58 H          26.1875   21.0558   34.4010 H         1 00J2169     0.0000 
     59 H          26.6825   22.5729   34.2021 H         1 00J2169     0.0000 
     60 H          27.3206   23.0494   38.9193 H         1 00J2169     0.0000 
     61 H          26.8018   22.5698   40.3639 H         1 00J2169     0.0000 
     62 H          26.8472   21.5284   39.1394 H         1 00J2169     0.0000 
@<TRIPOS>BOND
     1    2    1 2    
     2    3    2 am   
     3    5    2 1    
     4    4    3 1    
     5   35    3 1    
     6   57    4 1    
     7   58    4 1    
     8   59    4 1    
     9    6    5 1    
    10   10    5 2    
    11    7    6 ar   
    12    8    6 ar   
    13   14    7 ar   
    14   36    7 1    
    15    9    8 1    
    16   12    8 ar   
    17   10    9 1    
    18   11   10 1    
    19   60   11 1    
    20   61   11 1    
    21   62   11 1    
    22   13   12 ar   
    23   37   12 1    
    24   14   13 ar   
    25   15   13 1    
    26   38   14 1    
    27   16   15 1    
    28   17   16 ar   
    29   18   16 ar   
    30   22   17 ar   
    31   39   17 1    
    32   19   18 ar   
    33   20   18 ar   
    34   25   19 ar   
    35   40   19 1    
    36   21   20 ar   
    37   23   20 ar   
    38   22   21 ar   
    39   41   22 1    
    40   24   23 ar   
    41   42   23 1    
    42   25   24 ar   
    43   26   24 1    
    44   43   25 1    
    45   27   26 1    
    46   28   27 1    
    47   44   27 1    
    48   45   27 1    
    49   29   28 1    
    50   46   28 1    
    51   47   28 1    
    52   30   29 1    
    53   31   29 1    
    54   48   29 1    
    55   34   30 1    
    56   49   30 1    
    57   50   30 1    
    58   32   31 1    
    59   51   31 1    
    60   52   31 1    
    61   33   32 1    
    62   53   32 1    
    63   54   32 1    
    64   34   33 1    
    65   55   34 1    
    66   56   34 1    
@<TRIPOS>SUBSTRUCTURE
     1 00J2169     1 GROUP   
@<TRIPOS>SET

