#    Name: 2fl2_N4T_2_INTS_M
#    Modification time : Tue Mar 25 12:52:12 2014

@<TRIPOS>MOLECULE
2fl2_N4T_2_INTS_M
   66     0     3     0     0
SMALL
NO_CHARGES


@<TRIPOS>ATOM
      1 CA         39.7115   18.2205   53.1715 C.3       1 GLC5        0.0000 
      2 CA         38.4120   16.5030   52.8040 C.3       3 GLL5        0.0000 
      3 CA         41.0110   19.9380   53.5390 C.3       2 GLP5        0.0000 
      4 CA         37.5740   16.6945   50.3730 C.3       1 GLC5        0.0000 
      5 CA         38.3720   15.4190   51.8930 C.3       3 GLL5        0.0000 
      6 CA         36.7760   17.9700   48.8530 C.3       2 GLP5        0.0000 
      7 CA         35.1655   13.1950   52.7935 C.3       1 GLC5        0.0000 
      8 CA         36.0050   14.8830   52.5970 C.3       3 GLL5        0.0000 
      9 CA         34.3260   11.5070   52.9900 C.3       2 GLP5        0.0000 
     10 CA         42.0730   11.2285   48.8200 C.3       1 GLC5        0.0000 
     11 CA         41.7480   12.9020   47.4250 C.3       3 GLL5        0.0000 
     12 CA         42.3980    9.5550   50.2150 C.3       2 GLP5        0.0000 
     13 CA         43.5535   12.3145   48.3395 C.3       1 GLC5        0.0000 
     14 CA         45.3590   11.7270   49.2540 C.3       2 GLP5        0.0000 
     15 CA         40.6710   11.6715   44.9065 C.3       1 GLC5        0.0000 
     16 CA         40.7600   13.6910   45.3100 C.3       3 GLL5        0.0000 
     17 CA         40.5820    9.6520   44.5030 C.3       2 GLP5        0.0000 
     18 CA         38.3245   12.5130   51.8850 C.3       1 GLC5        0.0000 
     19 CA         37.0480   13.6030   51.0030 C.3       3 GLL5        0.0000 
     20 CA         39.6010   11.4230   52.7670 C.3       2 GLP5        0.0000 
     21 CA         37.0330   12.3825   49.5410 C.3       1 GLC5        0.0000 
     22 CA         37.0180   11.1620   48.0790 C.3       2 GLP5        0.0000 
     23 CA         35.9575   15.0850   50.3090 C.3       1 GLC5        0.0000 
     24 CA         34.8670   16.5670   49.6150 C.3       2 GLP5        0.0000 
     25 CA         36.8995   19.5780   54.4900 C.3       1 GLC5        0.0000 
     26 CA         37.2810   17.6920   54.4520 C.3       3 GLL5        0.0000 
     27 CA         36.5180   21.4640   54.5280 C.3       2 GLP5        0.0000 
     28 CA         38.7215   19.0595   54.5755 C.3       1 GLC5        0.0000 
     29 CA         40.1620   20.4270   54.6990 C.3       2 GLP5        0.0000 
     30 CA         39.2862   13.3515   52.1220 C.3       1 GLC5        0.0000 
     31 CA         37.6295   13.1852   53.0780 C.3       1 GLC5        0.0000 
     32 CA         37.1550   14.6480   51.8350 C.3       3 GLL5        0.0000 
     33 CA         38.6790   11.6050   53.9400 C.3       2 GLP5        0.0000 
     34 CA         35.4713   13.3302   50.8020 C.3       1 GLC5        0.0000 
     35 CA         33.8410   12.5350   50.1850 C.3       2 GLP5        0.0000 
     36 CA         35.5975   15.9619   51.2315 C.3       1 GLC5        0.0000 
     37 CA         40.0655   12.7402   51.3992 C.3       1 GLC5        0.0000 
     38 CA         40.0060   13.9520   50.4860 C.3       3 GLL5        0.0000 
     39 CA         42.8640   14.2035   46.7338 C.3       1 GLC5        0.0000 
     40 CA         40.9580   13.9200   48.0960 C.3       3 GLL5        0.0000 
     41 CA         44.3750   14.9960   45.7070 C.3       2 GLP5        0.0000 
     42 CA         41.5682   11.0510   46.2155 C.3       1 GLC5        0.0000 
     43 CA         41.4210    9.2300   45.7170 C.3       2 GLP5        0.0000 
     44 CA         39.7100   12.1863   46.8664 C.3       1 GLC5        0.0000 
     45 CA         41.6830   12.8420   46.0030 C.3       3 GLL5        0.0000 
     46 CA         37.9020   11.2460   46.8510 C.3       2 GLP5        0.0000 
     47 CA         40.5380   15.1088   43.8882 C.3       1 GLC5        0.0000 
     48 CA         40.7290   16.0490   42.1420 C.3       2 GLP5        0.0000 
     49 CA         42.4764   14.4761   45.7574 C.3       1 GLC5        0.0000 
     50 CA         39.9340   14.6460   45.9590 C.3       3 GLL5        0.0000 
     51 CA         38.0785   15.3280   47.1060 C.3       1 GLC5        0.0000 
     52 CA         36.1550   15.9340   47.5660 C.3       2 GLP5        0.0000 
     53 CA         38.7168   13.3716   46.2569 C.3       1 GLC5        0.0000 
     54 CA         40.0700   14.7980   47.3330 C.3       3 GLL5        0.0000 
     55 CA         37.2250   12.2600   46.0300 C.3       2 GLP5        0.0000 
     56 CA         44.4775   16.6058   47.8568 C.3       1 GLC5        0.0000 
     57 CA         43.2050   18.0470   48.8400 C.3       3 GLL5        0.0000 
     58 CA         45.5850   15.6310   46.3950 C.3       2 GLP5        0.0000 
     59 CA         35.6006   17.4279   55.0132 C.3       1 GLC5        0.0000 
     60 CA         37.2550   16.7110   53.5700 C.3       3 GLL5        0.0000 
     61 CA         34.2280   17.8450   56.0380 C.3       2 GLP5        0.0000 
     62 CA         41.8268   20.6108   48.4705 C.3       1 GLC5        0.0000 
     63 CA         42.1460   19.0590   48.8920 C.3       3 GLL5        0.0000 
     64 CA         40.8270   21.9480   47.9540 C.3       2 GLP5        0.0000 
     65 CA         42.2920   18.9521   46.9993 C.3       1 GLC5        0.0000 
     66 CA         41.8330   18.9910   45.0720 C.3       2 GLP5        0.0000 
@<TRIPOS>BOND
@<TRIPOS>SUBSTRUCTURE
     1 GLC5        1 GROUP        1 X    GLC  0     ROOT GLC X 6
     2 GLP5        3 GROUP        1 Y    GLP  0     ROOT GLP Y 13
     3 GLL5        2 GROUP        1 Z    GLL  0     ROOT GLL Z 20
@<TRIPOS>SET

