#    Name: 2fl2_N4T_2_ligand
#    Modification time : Tue Mar 25 12:52:12 2014

@<TRIPOS>MOLECULE
2fl2_N4T_2_ligand
   47    50     1     0     0
SMALL
NO_CHARGES


@<TRIPOS>ATOM
      1 C1         37.2550   16.7110   53.5700 C.ar      1 N4T605      0.0000 
      2 C2         38.4120   16.5030   52.8040 C.ar      1 N4T605      0.0000 
      3 C3         38.3720   15.4190   51.8930 C.ar      1 N4T605      0.0000 
      4 C4         37.1550   14.6480   51.8350 C.ar      1 N4T605      0.0000 
      5 C5         36.0050   14.8830   52.5970 C.ar      1 N4T605      0.0000 
      6 C6         36.0760   15.9480   53.4800 C.ar      1 N4T605      0.0000 
      7 C10        39.5710   15.1410   51.0610 C.2       1 N4T605      0.0000 
      8 C11        40.6870   16.1880   50.7860 C.3       1 N4T605      0.0000 
      9 N12        41.6970   15.3760   50.1310 N.am      1 N4T605      0.0000 
     10 C13        41.0540   14.1630   49.5770 C.3       1 N4T605      0.0000 
     11 C14        40.0060   13.9520   50.4860 C.2       1 N4T605      0.0000 
     12 C17        40.9580   13.9200   48.0960 C.ar      1 N4T605      0.0000 
     13 C19        41.7480   12.9020   47.4250 C.ar      1 N4T605      0.0000 
     14 C20        41.6830   12.8420   46.0030 C.ar      1 N4T605      0.0000 
     15 C21        40.7600   13.6910   45.3100 C.ar      1 N4T605      0.0000 
     16 C22        39.9340   14.6460   45.9590 C.ar      1 N4T605      0.0000 
     17 C23        40.0700   14.7980   47.3330 C.ar      1 N4T605      0.0000 
     18 C8         42.9270   15.7130   49.6750 C.2       1 N4T605      0.0000 
     19 C7         43.5350   17.1140   49.7970 C.3       1 N4T605      0.0000 
     20 C35        43.2050   18.0470   48.8400 C.3       1 N4T605      0.0000 
     21 F40        37.0480   13.6030   51.0030 F         1 N4T605      0.0000 
     22 F41        37.2810   17.6920   54.4520 F         1 N4T605      0.0000 
     23 O2         43.7060   14.8940   49.1880 O.2       1 N4T605      0.0000 
     24 C15        43.5070   19.4880   49.0820 C.3       1 N4T605      0.0000 
     25 N1         44.7950   17.1510   50.5210 N.4       1 N4T605      0.0000 
     26 C12        42.1460   19.0590   48.8920 C.3       1 N4T605      0.0000 
     27 H          39.2178   17.0802   52.8909 H         1 N4T605      0.0000 
     28 H          35.1892   14.3155   52.5050 H         1 N4T605      0.0000 
     29 H          35.2734   16.1886   54.0733 H         1 N4T605      0.0000 
     30 H          41.0184   16.5668   51.7176 H         1 N4T605      0.0000 
     31 H          40.2897   16.9301   50.1437 H         1 N4T605      0.0000 
     32 H          41.8691   13.3214   49.9522 H         1 N4T605      0.0000 
     33 H          39.6341   13.0781   50.6849 H         1 N4T605      0.0000 
     34 H          42.3120   12.2732   47.9530 H         1 N4T605      0.0000 
     35 H          42.2781   12.2106   45.4870 H         1 N4T605      0.0000 
     36 H          40.6955   13.5985   44.2742 H         1 N4T605      0.0000 
     37 H          39.2725   15.1909   45.4256 H         1 N4T605      0.0000 
     38 H          39.5596   15.5194   47.8453 H         1 N4T605      0.0000 
     39 H          42.7639   17.5005   50.7678 H         1 N4T605      0.0000 
     40 H          43.4063   17.9724   47.8146 H         1 N4T605      0.0000 
     41 H          43.8534   19.8616   48.2701 H         1 N4T605      0.0000 
     42 H          43.6914   19.6025   50.0156 H         1 N4T605      0.0000 
     43 H          41.6924   19.0009   49.7408 H         1 N4T605      0.0000 
     44 H          41.8543   19.2601   47.9953 H         1 N4T605      0.0000 
     45 H          45.4935   16.5877   50.0798 H         1 N4T605      0.0000 
     46 H          45.1618   18.0794   50.5808 H         1 N4T605      0.0000 
     47 H          44.6953   16.8143   51.4573 H         1 N4T605      0.0000 
@<TRIPOS>BOND
     1    2    1 ar   
     2    6    1 ar   
     3   22    1 1    
     4    3    2 ar   
     5   27    2 1    
     6    4    3 ar   
     7    7    3 1    
     8    5    4 ar   
     9   21    4 1    
    10    6    5 ar   
    11   28    5 1    
    12   29    6 1    
    13    8    7 1    
    14   11    7 2    
    15    9    8 1    
    16   30    8 1    
    17   31    8 1    
    18   10    9 1    
    19   18    9 am   
    20   11   10 1    
    21   12   10 1    
    22   32   10 1    
    23   33   11 1    
    24   13   12 ar   
    25   17   12 ar   
    26   14   13 ar   
    27   34   13 1    
    28   15   14 ar   
    29   35   14 1    
    30   16   15 ar   
    31   36   15 1    
    32   17   16 ar   
    33   37   16 1    
    34   38   17 1    
    35   19   18 1    
    36   23   18 2    
    37   20   19 1    
    38   25   19 1    
    39   39   19 1    
    40   24   20 1    
    41   26   20 1    
    42   40   20 1    
    43   26   24 1    
    44   41   24 1    
    45   42   24 1    
    46   45   25 1    
    47   46   25 1    
    48   47   25 1    
    49   43   26 1    
    50   44   26 1    
@<TRIPOS>SUBSTRUCTURE
     1 N4T605      1 GROUP   
@<TRIPOS>SET

