#    Name: 2am1_1LG_1_INTS_M
#    Modification time : Mon Mar 24 19:23:26 2014

@<TRIPOS>MOLECULE
2am1_1LG_1_INTS_M
   69     0     9     0     0
SMALL
NO_CHARGES


@<TRIPOS>ATOM
      1 CA         10.4800   45.5990   56.7830 C.3       3 GLC5        0.0000 
      2 CA         11.5680   46.4530   55.3810 C.3       9 GLL5        0.0000 
      3 CA          9.3920   44.7450   58.1850 C.3       6 GLP5        0.0000 
      4 CA         15.4025   46.8250   57.2235 C.3       3 GLC5        0.0000 
      5 CA         14.3680   45.4210   56.1870 C.3       9 GLL5        0.0000 
      6 CA         16.4370   48.2290   58.2600 C.3       6 GLP5        0.0000 
      7 CA          9.8680   45.8485   50.6015 C.3       3 GLC5        0.0000 
      8 CA         10.9550   46.1540   52.4260 C.3       9 GLL5        0.0000 
      9 CA          8.7810   45.5430   48.7770 C.3       6 GLP5        0.0000 
     10 CA         14.1580   47.1155   52.8305 C.3       3 GLC5        0.0000 
     11 CA         13.7060   44.9740   52.3510 C.3       9 GLL5        0.0000 
     12 CA         14.6100   49.2570   53.3100 C.3       6 GLP5        0.0000 
     13 CA          9.2890   45.3525   56.0560 C.3       3 GLC5        0.0000 
     14 CA         10.1030   46.3400   54.8910 C.3       9 GLL5        0.0000 
     15 CA          8.4750   44.3650   57.2210 C.3       6 GLP5        0.0000 
     16 O          16.8870   44.8475   54.7770 O.2       1 ALC1        0.0000 
     17 O          15.9320   44.3280   53.9170 O.2       7 ALL1        0.0000 
     18 O          17.8420   45.3670   55.6370 O.2       4 ALP1        0.0000 
     19 N          15.1090   45.7460   58.7495 N.am      2 SEC2        0.0000 
     20 N          14.7370   45.4690   57.2830 N.am      8 SEL2        0.0000 
     21 N          15.4810   46.0230   60.2160 N.am      5 SEP2        0.0000 
     22 CA         16.9380   40.6250   53.6485 C.3       3 GLC5        0.0000 
     23 CA         17.1920   41.6230   55.2020 C.3       9 GLL5        0.0000 
     24 CA         16.6840   39.6270   52.0950 C.3       6 GLP5        0.0000 
     25 CA         17.7235   39.8520   56.3420 C.3       3 GLC5        0.0000 
     26 CA         18.2550   38.0810   57.4820 C.3       6 GLP5        0.0000 
     27 CA         17.8050   42.7180   56.9345 C.3       3 GLC5        0.0000 
     28 CA         18.4180   43.8130   58.6670 C.3       6 GLP5        0.0000 
     29 N          19.3730   45.7915   49.9530 N.am      2 SEC2        0.0000 
     30 N          20.7710   44.8860   50.1300 N.am      8 SEL2        0.0000 
     31 N          17.9750   46.6970   49.7760 N.am      5 SEP2        0.0000 
     32 CA         22.6050   40.1725   53.9170 C.3       3 GLC5        0.0000 
     33 CA         22.3770   42.0700   53.4870 C.3       9 GLL5        0.0000 
     34 CA         22.8330   38.2750   54.3470 C.3       6 GLP5        0.0000 
     35 CA         21.3085   43.6165   54.5380 C.3       3 GLC5        0.0000 
     36 CA         20.2400   45.1630   55.5890 C.3       6 GLP5        0.0000 
     37 CA         23.1675   43.7475   54.1000 C.3       3 GLC5        0.0000 
     38 CA         23.9580   45.4250   54.7130 C.3       6 GLP5        0.0000 
     39 CA         21.1335   41.8230   47.9365 C.3       3 GLC5        0.0000 
     40 CA         21.4890   41.9180   49.7510 C.3       9 GLL5        0.0000 
     41 CA         20.7780   41.7280   46.1220 C.3       6 GLP5        0.0000 
     42 CA         22.1615   40.9800   47.4600 C.3       3 GLC5        0.0000 
     43 CA         22.3170   40.7510   49.1590 C.3       9 GLL5        0.0000 
     44 CA         22.0060   41.2090   45.7610 C.3       6 GLP5        0.0000 
     45 CA         21.9385   39.4470   50.6975 C.3       3 GLC5        0.0000 
     46 CA         21.5600   38.1430   52.2360 C.3       6 GLP5        0.0000 
     47 CA         23.1695   39.1160   48.8935 C.3       3 GLC5        0.0000 
     48 CA         24.0220   37.4810   48.6280 C.3       6 GLP5        0.0000 
     49 CA         24.5245   41.1565   47.4505 C.3       3 GLC5        0.0000 
     50 CA         24.2350   42.2250   48.9220 C.3       9 GLL5        0.0000 
     51 CA         24.8140   40.0880   45.9790 C.3       6 GLP5        0.0000 
     52 CA         15.0880   46.3323   51.8837 C.3       3 GLC5        0.0000 
     53 CA         15.9880   47.7570   50.6810 C.3       6 GLP5        0.0000 
     54 CA         14.4275   47.0569   55.0004 C.3       3 GLC5        0.0000 
     55 CA         14.6700   44.8410   53.8220 C.3       9 GLL5        0.0000 
     56 CA         14.5270   48.8550   54.7480 C.3       6 GLP5        0.0000 
     57 CA         11.1375   48.2875   52.0697 C.3       3 GLC5        0.0000 
     58 CA         11.8150   50.0730   51.2160 C.3       6 GLP5        0.0000 
     59 CA         13.3485   47.3929   54.3593 C.3       3 GLC5        0.0000 
     60 CA         12.5640   45.8460   54.4010 C.3       9 GLL5        0.0000 
     61 CA         10.1946   48.2131   54.8723 C.3       3 GLC5        0.0000 
     62 CA          9.9890   49.8030   55.4660 C.3       6 GLP5        0.0000 
     63 CA         18.7806   44.5779   53.9525 C.3       3 GLC5        0.0000 
     64 CA         17.9550   43.2620   53.0860 C.3       9 GLL5        0.0000 
     65 CA         19.0240   45.8650   54.9980 C.3       6 GLP5        0.0000 
     66 CA         20.1707   43.8124   54.5601 C.3       3 GLC5        0.0000 
     67 CA         20.2710   43.4330   52.3300 C.3       9 GLL5        0.0000 
     68 CA         20.0505   40.5248   49.8435 C.3       3 GLC5        0.0000 
     69 CA         18.1980   39.7150   50.2320 C.3       6 GLP5        0.0000 
@<TRIPOS>BOND
@<TRIPOS>SUBSTRUCTURE
     1 ALC1       16 GROUP        1 X    ALC  0     ROOT ALC X 1
     2 SEC2       19 GROUP        1 X    SEC  0     **** SEC X 2
     3 GLC5        1 GROUP        1 X    GLC  0     **** GLC X 6
     4 ALP1       18 GROUP        1 Y    ALP  0     ROOT ALP Y 8
     5 SEP2       21 GROUP        1 Y    SEP  0     **** SEP Y 9
     6 GLP5        3 GROUP        1 Y    GLP  0     **** GLP Y 13
     7 ALL1       17 GROUP        1 Z    ALL  0     ROOT ALL Z 15
     8 SEL2       20 GROUP        1 Z    SEL  0     **** SEL Z 16
     9 GLL5        2 GROUP        1 Z    GLL  0     **** GLL Z 20
@<TRIPOS>SET

