#    Name: 2am1_1LG_1_ligand
#    Modification time : Mon Mar 24 19:23:26 2014

@<TRIPOS>MOLECULE
2am1_1LG_1_ligand
   50    53     1     0     0
SMALL
NO_CHARGES


@<TRIPOS>ATOM
      1 C4         11.5680   46.4530   55.3810 C.3       1 1LG1000     0.0000 
      2 C5         14.6700   44.8410   53.8220 C.2       1 1LG1000     0.0000 
      3 C6         14.3680   45.4210   56.1870 C.1       1 1LG1000     0.0000 
      4 C8         10.9550   46.1540   52.4260 C.3       1 1LG1000     0.0000 
      5 C13        16.5720   43.7390   52.8740 C.2       1 1LG1000     0.0000 
      6 C17        18.3420   42.3170   54.1080 C.ar      1 1LG1000     0.0000 
      7 C22        20.6910   42.5100   53.3390 C.ar      1 1LG1000     0.0000 
      8 C28        23.4070   43.3850   49.5310 C.3       1 1LG1000     0.0000 
      9 C1         12.5640   45.8460   54.4010 C.2       1 1LG1000     0.0000 
     10 C2         13.9060   45.3520   54.8150 C.2       1 1LG1000     0.0000 
     11 C3         12.2740   45.7120   53.0500 C.2       1 1LG1000     0.0000 
     12 S7         13.7060   44.9740   52.3510 S.3       1 1LG1000     0.0000 
     13 C9         10.1030   46.3400   54.8910 C.3       1 1LG1000     0.0000 
     14 N10        15.9320   44.3280   53.9170 N.am      1 1LG1000     0.0000 
     15 N11        14.7370   45.4690   57.2830 N.1       1 1LG1000     0.0000 
     16 C12         9.9650   46.8500   53.4210 C.3       1 1LG1000     0.0000 
     17 C14        17.9550   43.2620   53.0860 C.ar      1 1LG1000     0.0000 
     18 O15        16.0510   43.6290   51.7450 O.2       1 1LG1000     0.0000 
     19 C16        18.9260   43.7920   52.2170 C.ar      1 1LG1000     0.0000 
     20 C18        20.2710   43.4330   52.3300 C.ar      1 1LG1000     0.0000 
     21 C19        19.7220   41.9520   54.2280 C.ar      1 1LG1000     0.0000 
     22 CL20       17.1920   41.6230   55.2020 Cl        1 1LG1000     0.0000 
     23 S21        21.4620   44.1650   51.1550 S.o2      1 1LG1000     0.0000 
     24 N23        22.3910   42.8510   50.4710 N.pl3     1 1LG1000     0.0000 
     25 O24        22.3510   45.0410   51.8710 O.2       1 1LG1000     0.0000 
     26 O25        20.7710   44.8860   50.1300 O.2       1 1LG1000     0.0000 
     27 CL26       22.3770   42.0700   53.4870 Cl        1 1LG1000     0.0000 
     28 C27        21.4890   41.9180   49.7510 C.3       1 1LG1000     0.0000 
     29 C29        22.3170   40.7510   49.1590 C.3       1 1LG1000     0.0000 
     30 C30        24.2350   42.2250   48.9220 C.3       1 1LG1000     0.0000 
     31 O31        23.7390   40.9410   49.3770 O.3       1 1LG1000     0.0000 
     32 H          11.8030   47.5117   55.5325 H         1 1LG1000     0.0000 
     33 H          11.6510   45.9459   56.3479 H         1 1LG1000     0.0000 
     34 H          10.4416   45.2814   51.9927 H         1 1LG1000     0.0000 
     35 H          11.1545   46.8556   51.6009 H         1 1LG1000     0.0000 
     36 H          24.0931   44.0563   50.0453 H         1 1LG1000     0.0000 
     37 H          22.9306   43.9252   48.7143 H         1 1LG1000     0.0000 
     38 H           9.4650   46.9392   55.5291 H         1 1LG1000     0.0000 
     39 H           9.7912   45.3034   54.9310 H         1 1LG1000     0.0000 
     40 H          16.4319   44.3940   54.8480 H         1 1LG1000     0.0000 
     41 H           8.9435   46.6695   53.0801 H         1 1LG1000     0.0000 
     42 H          10.1508   47.9258   53.4026 H         1 1LG1000     0.0000 
     43 H          18.6346   44.4584   51.4835 H         1 1LG1000     0.0000 
     44 H          20.0103   41.2950   54.9471 H         1 1LG1000     0.0000 
     45 H          20.9841   42.4243   48.9334 H         1 1LG1000     0.0000 
     46 H          20.7485   41.4997   50.4266 H         1 1LG1000     0.0000 
     47 H          22.0814   40.6902   48.0874 H         1 1LG1000     0.0000 
     48 H          21.9610   39.8232   49.6281 H         1 1LG1000     0.0000 
     49 H          25.2802   42.3779   49.2146 H         1 1LG1000     0.0000 
     50 H          24.1745   42.3149   47.8313 H         1 1LG1000     0.0000 
@<TRIPOS>BOND
     1    9    1 1    
     2   13    1 1    
     3   32    1 1    
     4   33    1 1    
     5   10    2 2    
     6   12    2 1    
     7   14    2 1    
     8   10    3 1    
     9   15    3 3    
    10   11    4 1    
    11   16    4 1    
    12   34    4 1    
    13   35    4 1    
    14   14    5 am   
    15   17    5 1    
    16   18    5 2    
    17   17    6 ar   
    18   21    6 ar   
    19   22    6 1    
    20   20    7 ar   
    21   21    7 ar   
    22   27    7 1    
    23   24    8 1    
    24   30    8 1    
    25   36    8 1    
    26   37    8 1    
    27   10    9 1    
    28   11    9 2    
    29   12   11 1    
    30   16   13 1    
    31   38   13 1    
    32   39   13 1    
    33   40   14 1    
    34   41   16 1    
    35   42   16 1    
    36   19   17 ar   
    37   20   19 ar   
    38   43   19 1    
    39   23   20 1    
    40   44   21 1    
    41   24   23 1    
    42   25   23 2    
    43   26   23 2    
    44   28   24 1    
    45   29   28 1    
    46   45   28 1    
    47   46   28 1    
    48   31   29 1    
    49   47   29 1    
    50   48   29 1    
    51   31   30 1    
    52   49   30 1    
    53   50   30 1    
@<TRIPOS>SUBSTRUCTURE
     1 1LG1000     1 GROUP   
@<TRIPOS>SET

