#    Name: 4i5w_AMP_1_INTS_M
#    Modification time : Tue Mar 25 02:29:24 2014

@<TRIPOS>MOLECULE
4i5w_AMP_1_INTS_M
   51     0    12     0     0
SMALL
NO_CHARGES


@<TRIPOS>ATOM
      1 NZ         29.2290    8.6850    9.1885 N.4       3 LYC4        0.0000 
      2 NZ         29.4590    7.8640   10.2490 N.4      11 LYL4        0.0000 
      3 NZ         28.9990    9.5060    8.1280 N.4       7 LYP4        0.0000 
      4 N          29.2290    8.6850    9.1885 N.am      2 SEC2        0.0000 
      5 N          29.4590    7.8640   10.2490 N.am     10 SEL2        0.0000 
      6 N          28.9990    9.5060    8.1280 N.am      6 SEP2        0.0000 
      7 NZ         28.0155    8.8495    8.9890 N.4       3 LYC4        0.0000 
      8 NZ         27.0320    8.1930    9.8500 N.4      11 LYL4        0.0000 
      9 N          28.0155    8.8495    8.9890 N.am      2 SEC2        0.0000 
     10 N          27.0320    8.1930    9.8500 N.am     10 SEL2        0.0000 
     11 CA         28.4475    9.9840   11.6035 C.3       4 GLC5        0.0000 
     12 CA         28.0960    8.6620   12.7350 C.3      12 GLL5        0.0000 
     13 CA         28.7990   11.3060   10.4720 C.3       8 GLP5        0.0000 
     14 CA         27.0060   10.6880   14.2310 C.3       4 GLC5        0.0000 
     15 CA         27.4610    8.7180   14.1090 C.3      12 GLL5        0.0000 
     16 CA         26.5510   12.6580   14.3530 C.3       8 GLP5        0.0000 
     17 N          27.2235    7.4455   17.4240 N.am      2 SEC2        0.0000 
     18 N          27.4900    7.6490   16.2590 N.am     10 SEL2        0.0000 
     19 N          26.9570    7.2420   18.5890 N.am      6 SEP2        0.0000 
     20 O          28.4035    8.6225   16.7105 O.2       1 ALC1        0.0000 
     21 O          27.4900    7.6490   16.2590 O.2       9 ALL1        0.0000 
     22 O          29.3170    9.5960   17.1620 O.2       5 ALP1        0.0000 
     23 O          26.2315    5.2250   16.4920 O.2       1 ALC1        0.0000 
     24 O          25.4890    5.9380   15.4410 O.2       9 ALL1        0.0000 
     25 O          26.9740    4.5120   17.5430 O.2       5 ALP1        0.0000 
     26 CA         25.1510    9.1905   12.6040 C.3       4 GLC5        0.0000 
     27 CA         25.2160    8.1700   14.5210 C.3      12 GLL5        0.0000 
     28 CA         25.0860   10.2110   10.6870 C.3       8 GLP5        0.0000 
     29 CA         21.9965   10.1845   10.9505 C.3       4 GLC5        0.0000 
     30 CA         20.9040    9.5270   12.5820 C.3      12 GLL5        0.0000 
     31 CA         23.0890   10.8420    9.3190 C.3       8 GLP5        0.0000 
     32 O          19.3170    8.0800   11.5175 O.2       1 ALC1        0.0000 
     33 O          19.9170    9.2370   11.7060 O.2       9 ALL1        0.0000 
     34 O          18.7170    6.9230   11.3290 O.2       5 ALP1        0.0000 
     35 CA         23.1460   12.4480   14.5355 C.3       4 GLC5        0.0000 
     36 CA         21.8460   10.9500   14.2100 C.3      12 GLL5        0.0000 
     37 CA         24.4460   13.9460   14.8610 C.3       8 GLP5        0.0000 
     38 CA         21.4390   11.8660   15.8515 C.3       4 GLC5        0.0000 
     39 CA         21.0320   12.7820   17.4930 C.3       8 GLP5        0.0000 
     40 CA         21.6285   10.0175   15.8675 C.3       4 GLC5        0.0000 
     41 CA         21.4110    9.0850   17.5250 C.3       8 GLP5        0.0000 
     42 CA         22.2435    9.0660   15.6275 C.3       4 GLC5        0.0000 
     43 CA         23.0760    9.0470   13.7300 C.3      12 GLL5        0.0000 
     44 CA         26.4322    9.4505   12.0545 C.3       4 GLC5        0.0000 
     45 CA         27.2122    5.3870   15.6893 C.3       4 GLC5        0.0000 
     46 CA         26.0160    6.8750   14.5230 C.3      12 GLL5        0.0000 
     47 CA         27.7110    3.6400   16.6860 C.3       8 GLP5        0.0000 
     48 CA         19.9958    7.7047   13.1648 C.3       4 GLC5        0.0000 
     49 CA         22.0590    8.6280   12.7570 C.3      12 GLL5        0.0000 
     50 CA         18.5100    6.3320   13.6600 C.3       8 GLP5        0.0000 
     51 CA         23.8267    9.5243   11.9653 C.3       4 GLC5        0.0000 
@<TRIPOS>BOND
@<TRIPOS>SUBSTRUCTURE
     1 ALC1       20 GROUP        1 X    ALC  0     ROOT ALC X 1
     2 SEC2        4 GROUP        1 X    SEC  0     **** SEC X 2
     3 LYC4        1 GROUP        1 X    LYC  0     **** LYC X 4
     4 GLC5       11 GROUP        1 X    GLC  0     **** GLC X 6
     5 ALP1       22 GROUP        1 Y    ALP  0     ROOT ALP Y 8
     6 SEP2        6 GROUP        1 Y    SEP  0     **** SEP Y 9
     7 LYP4        3 GROUP        1 Y    LYP  0     **** LYP Y 11
     8 GLP5       13 GROUP        1 Y    GLP  0     **** GLP Y 13
     9 ALL1       21 GROUP        1 Z    ALL  0     ROOT ALL Z 15
    10 SEL2        5 GROUP        1 Z    SEL  0     **** SEL Z 16
    11 LYL4        2 GROUP        1 Z    LYL  0     **** LYL Z 18
    12 GLL5       12 GROUP        1 Z    GLL  0     **** GLL Z 20
@<TRIPOS>SET

