#    Name: 4i5w_AMP_1_ligand
#    Modification time : Tue Mar 25 02:29:24 2014

@<TRIPOS>MOLECULE
4i5w_AMP_1_ligand
   35    37     1     0     0
SMALL
NO_CHARGES


@<TRIPOS>ATOM
      1 P          28.0750    7.3140   10.4850 P.3       1 AMP402      0.0000 
      2 O1P        29.4590    7.8640   10.2490 O.co2     1 AMP402      0.0000 
      3 O2P        27.7830    5.8890   10.0660 O.co2     1 AMP402      0.0000 
      4 O3P        27.0320    8.1930    9.8500 O.co2     1 AMP402      0.0000 
      5 O5'        27.6800    7.5140   12.0100 O.3       1 AMP402      0.0000 
      6 C5'        28.0960    8.6620   12.7350 C.3       1 AMP402      0.0000 
      7 C4'        27.4610    8.7180   14.1090 C.3       1 AMP402      0.0000 
      8 O4'        26.0810    9.1570   13.9830 O.3       1 AMP402      0.0000 
      9 C3'        27.4110    7.3930   14.8620 C.3       1 AMP402      0.0000 
     10 O3'        27.4900    7.6490   16.2590 O.3       1 AMP402      0.0000 
     11 C2'        26.0160    6.8750   14.5230 C.3       1 AMP402      0.0000 
     12 O2'        25.4890    5.9380   15.4410 O.3       1 AMP402      0.0000 
     13 C1'        25.2160    8.1700   14.5210 C.3       1 AMP402      0.0000 
     14 N9         24.0170    8.1220   13.6930 N.pl3     1 AMP402      0.0000 
     15 C8         23.6740    7.1670   12.8090 C.2       1 AMP402      0.0000 
     16 N7         22.4790    7.4640   12.2230 N.2       1 AMP402      0.0000 
     17 C5         22.0590    8.6280   12.7570 C.ar      1 AMP402      0.0000 
     18 C6         20.9040    9.5270   12.5820 C.ar      1 AMP402      0.0000 
     19 N6         19.9170    9.2370   11.7060 N.pl3     1 AMP402      0.0000 
     20 N1         20.8710   10.6410   13.3340 N.ar      1 AMP402      0.0000 
     21 C2         21.8460   10.9500   14.2100 C.ar      1 AMP402      0.0000 
     22 N3         22.9280   10.1920   14.4180 N.ar      1 AMP402      0.0000 
     23 C4         23.0760    9.0470   13.7300 C.ar      1 AMP402      0.0000 
     24 H          27.8314    9.5958   12.2032 H         1 AMP402      0.0000 
     25 H          29.1942    8.6806   12.8703 H         1 AMP402      0.0000 
     26 H          27.9981    9.4351   14.7241 H         1 AMP402      0.0000 
     27 H          28.1240    6.7496   14.4847 H         1 AMP402      0.0000 
     28 H          26.0424    6.5286   13.5055 H         1 AMP402      0.0000 
     29 H          24.9695    8.4140   15.5399 H         1 AMP402      0.0000 
     30 H          24.2007    6.3686   12.6080 H         1 AMP402      0.0000 
     31 H          19.4382   10.0194   11.3078 H         1 AMP402      0.0000 
     32 H          19.7530    8.2657   11.5337 H         1 AMP402      0.0000 
     33 H          21.7455   11.8564   14.7710 H         1 AMP402      0.0000 
     34 H          27.7129    8.6211   16.3316 H         1 AMP402      0.0000 
     35 H          26.0467    6.0410   16.2647 H         1 AMP402      0.0000 
@<TRIPOS>BOND
     1    2    1 ar   
     2    3    1 ar   
     3    4    1 ar   
     4    5    1 1    
     5    6    5 1    
     6    7    6 1    
     7   24    6 1    
     8   25    6 1    
     9    8    7 1    
    10    9    7 1    
    11   26    7 1    
    12   13    8 1    
    13   10    9 1    
    14   11    9 1    
    15   27    9 1    
    16   34   10 1    
    17   12   11 1    
    18   13   11 1    
    19   28   11 1    
    20   35   12 1    
    21   14   13 1    
    22   29   13 1    
    23   15   14 1    
    24   23   14 1    
    25   16   15 2    
    26   30   15 1    
    27   17   16 1    
    28   18   17 ar   
    29   23   17 ar   
    30   19   18 1    
    31   20   18 ar   
    32   31   19 1    
    33   32   19 1    
    34   21   20 ar   
    35   22   21 ar   
    36   33   21 1    
    37   23   22 ar   
@<TRIPOS>SUBSTRUCTURE
     1 AMP402      1 GROUP   
@<TRIPOS>SET

