#    Name: 1cz2_E2P_1_INTS_M
#    Modification time : Mon Mar 24 21:10:00 2014

@<TRIPOS>MOLECULE
1cz2_E2P_1_INTS_M
   75     0     3     0     0
SMALL
NO_CHARGES


@<TRIPOS>ATOM
      1 CA         -5.7935   -2.6175    1.0640 C.3       1 GLC5        0.0000 
      2 CA         -3.8790   -2.2550    1.4280 C.3       3 GLL5        0.0000 
      3 CA         -7.7080   -2.9800    0.7000 C.3       2 GLP5        0.0000 
      4 CA         -5.2390   -2.3140    2.8835 C.3       1 GLC5        0.0000 
      5 CA         -6.5990   -2.3730    4.3390 C.3       2 GLP5        0.0000 
      6 CA         -3.9525   -2.4550   -2.7220 C.3       1 GLC5        0.0000 
      7 CA         -3.1190   -2.3470   -1.0860 C.3       3 GLL5        0.0000 
      8 CA         -4.7860   -2.5630   -4.3580 C.3       2 GLP5        0.0000 
      9 CA         -4.7695   -2.9230   -2.3430 C.3       1 GLC5        0.0000 
     10 CA         -6.4200   -3.4990   -3.6000 C.3       2 GLP5        0.0000 
     11 CA         -4.2240   -3.9450   -0.7385 C.3       1 GLC5        0.0000 
     12 CA         -5.3290   -5.5430   -0.3910 C.3       2 GLP5        0.0000 
     13 CA         -1.2370   -0.6450   -2.9305 C.3       1 GLC5        0.0000 
     14 CA         -2.7300   -0.9040   -1.5080 C.3       3 GLL5        0.0000 
     15 CA          0.2560   -0.3860   -4.3530 C.3       2 GLP5        0.0000 
     16 CA         -0.9150   -1.8730   -1.3960 C.3       1 GLC5        0.0000 
     17 CA          0.9000   -2.8420   -1.2840 C.3       2 GLP5        0.0000 
     18 CA         -5.6120    0.1215   -0.7010 C.3       1 GLC5        0.0000 
     19 CA         -3.7020    0.1960   -0.9810 C.3       3 GLL5        0.0000 
     20 CA         -7.5220    0.0470   -0.4210 C.3       2 GLP5        0.0000 
     21 CA         -4.6470    2.4495    0.7020 C.3       1 GLC5        0.0000 
     22 CA         -2.9710    1.3570   -0.2510 C.3       3 GLL5        0.0000 
     23 CA         -6.3230    3.5420    1.6550 C.3       2 GLP5        0.0000 
     24 CA         -1.2345    3.1700   -4.6180 C.3       1 GLC5        0.0000 
     25 CA          0.1670    3.2040   -2.9970 C.3       3 GLL5        0.0000 
     26 CA         -2.6360    3.1360   -6.2390 C.3       2 GLP5        0.0000 
     27 CA          0.9205    2.3095   -5.0160 C.3       1 GLC5        0.0000 
     28 CA          1.5630    3.6080   -3.5460 C.3       3 GLL5        0.0000 
     29 CA          0.2780    1.0110   -6.4860 C.3       2 GLP5        0.0000 
     30 CA          2.4225    4.7745   -4.7800 C.3       1 GLC5        0.0000 
     31 CA          3.2820    5.9410   -6.0140 C.3       2 GLP5        0.0000 
     32 CA          3.1955   -0.3340   -2.3075 C.3       1 GLC5        0.0000 
     33 CA          2.3670    1.0020   -0.7780 C.3       3 GLL5        0.0000 
     34 CA          4.0240   -1.6700   -3.8370 C.3       2 GLP5        0.0000 
     35 CA          1.6335   -0.9200   -1.0310 C.3       1 GLC5        0.0000 
     36 CA          0.9680    3.0360    1.6725 C.3       1 GLC5        0.0000 
     37 CA          2.2630    1.6630    0.5760 C.3       3 GLL5        0.0000 
     38 CA         -0.3270    4.4090    2.7690 C.3       2 GLP5        0.0000 
     39 CA          5.0970   -0.7715    1.0700 C.3       1 GLC5        0.0000 
     40 CA          3.0950   -0.3030    1.8930 C.3       3 GLL5        0.0000 
     41 CA          7.0990   -1.2400    0.2470 C.3       2 GLP5        0.0000 
     42 CA          4.1635   -3.8140    2.8020 C.3       1 GLC5        0.0000 
     43 CA          2.4790   -2.5090    3.0860 C.3       3 GLL5        0.0000 
     44 CA          5.8480   -5.1190    2.5180 C.3       2 GLP5        0.0000 
     45 CA          3.8590   -1.6455    4.4755 C.3       1 GLC5        0.0000 
     46 CA          5.2390   -0.7820    5.8650 C.3       2 GLP5        0.0000 
     47 CA         -4.3320   -4.0055    0.2622 C.3       1 GLC5        0.0000 
     48 CA         -2.7910   -2.6810    0.4030 C.3       3 GLL5        0.0000 
     49 CA         -2.2885   -2.4835    2.6262 C.3       1 GLC5        0.0000 
     50 CA         -1.2420   -2.4990    4.3370 C.3       2 GLP5        0.0000 
     51 CA         -1.0275   -2.6780   -0.8128 C.3       1 GLC5        0.0000 
     52 CA         -4.2500   -0.5810   -2.8178 C.3       1 GLC5        0.0000 
     53 CA         -5.2840   -0.8080   -4.3910 C.3       2 GLP5        0.0000 
     54 CA         -1.9163    2.9787    0.4743 C.3       1 GLC5        0.0000 
     55 CA         -1.4040    4.3320    1.6530 C.3       2 GLP5        0.0000 
     56 CA         -0.4867    0.7220   -2.6992 C.3       1 GLC5        0.0000 
     57 CA         -1.8860    1.8940   -1.1580 C.3       3 GLL5        0.0000 
     58 CA         -4.0741    2.1826   -1.6410 C.3       1 GLC5        0.0000 
     59 CA         -5.5370    3.0300   -2.3950 C.3       2 GLP5        0.0000 
     60 CA         -0.7300    3.1727    0.1285 C.3       1 GLC5        0.0000 
     61 CA         -0.5730    1.7660   -0.9330 C.3       3 GLL5        0.0000 
     62 CA          0.2850    1.1732   -3.3905 C.3       1 GLC5        0.0000 
     63 CA          0.4610    2.2610   -1.8590 C.3       3 GLL5        0.0000 
     64 CA          0.3570    5.4255   -2.9153 C.3       1 GLC5        0.0000 
     65 CA         -0.1510    7.4450   -2.5590 C.3       2 GLP5        0.0000 
     66 CA          1.1578    0.5393   -2.8185 C.3       1 GLC5        0.0000 
     67 CA          1.7520    1.9270   -1.7900 C.3       3 GLL5        0.0000 
     68 CA          1.6726    4.0058   -1.3442 C.3       1 GLC5        0.0000 
     69 CA          2.0000    5.4630   -0.3000 C.3       2 GLP5        0.0000 
     70 CA          3.4202    2.8486    0.3460 C.3       1 GLC5        0.0000 
     71 CA          4.3820    4.4760   -0.1300 C.3       2 GLP5        0.0000 
     72 CA          0.5553   -2.1225    3.6865 C.3       1 GLC5        0.0000 
     73 CA          2.2260   -0.9830    2.9860 C.3       3 GLL5        0.0000 
     74 CA          3.7866    0.0621    3.7857 C.3       1 GLC5        0.0000 
     75 CA          5.0360    0.4140    5.1690 C.3       2 GLP5        0.0000 
@<TRIPOS>BOND
@<TRIPOS>SUBSTRUCTURE
     1 GLC5        1 GROUP        1 X    GLC  0     ROOT GLC X 6
     2 GLP5        3 GROUP        1 Y    GLP  0     ROOT GLP Y 13
     3 GLL5        2 GROUP        1 Z    GLL  0     ROOT GLL Z 20
@<TRIPOS>SET

