#    Name: 1cz2_E2P_1_ligand
#    Modification time : Mon Mar 24 21:10:00 2014

@<TRIPOS>MOLECULE
1cz2_E2P_1_ligand
   53    53     1     0     0
SMALL
NO_CHARGES


@<TRIPOS>ATOM
      1 C1         -3.8790   -2.2550    1.4280 C.3       1 E2P91       0.0000 
      2 C2         -2.7910   -2.6810    0.4030 C.3       1 E2P91       0.0000 
      3 C3         -3.1190   -2.3470   -1.0860 C.3       1 E2P91       0.0000 
      4 C4         -2.7300   -0.9040   -1.5080 C.3       1 E2P91       0.0000 
      5 C5         -3.7020    0.1960   -0.9810 C.3       1 E2P91       0.0000 
      6 C6         -2.9710    1.3570   -0.2510 C.3       1 E2P91       0.0000 
      7 O6         -2.5330    0.9600    1.0610 O.3       1 E2P91       0.0000 
      8 C7         -1.8860    1.8940   -1.1580 C.2       1 E2P91       0.0000 
      9 C8         -0.5730    1.7660   -0.9330 C.2       1 E2P91       0.0000 
     10 C9          0.4610    2.2610   -1.8590 C.2       1 E2P91       0.0000 
     11 C10         0.1670    3.2040   -2.9970 C.3       1 E2P91       0.0000 
     12 C11         1.5630    3.6080   -3.5460 C.3       1 E2P91       0.0000 
     13 C12         2.4580    2.6230   -2.8610 C.2       1 E2P91       0.0000 
     14 O12         3.6230    2.4260   -3.1590 O.2       1 E2P91       0.0000 
     15 C13         1.7520    1.9270   -1.7900 C.2       1 E2P91       0.0000 
     16 C14         2.3670    1.0020   -0.7780 C.3       1 E2P91       0.0000 
     17 C15         2.2630    1.6630    0.5760 C.2       1 E2P91       0.0000 
     18 C16         2.6020    1.1100    1.7450 C.2       1 E2P91       0.0000 
     19 C17         3.0950   -0.3030    1.8930 C.3       1 E2P91       0.0000 
     20 C18         2.2260   -0.9830    2.9860 C.3       1 E2P91       0.0000 
     21 C19         2.4790   -2.5090    3.0860 C.3       1 E2P91       0.0000 
     22 C20         3.8770   -2.8340    3.5410 C.2       1 E2P91       0.0000 
     23 O21         3.9790   -3.8740    4.3550 O.co2     1 E2P91       0.0000 
     24 O20         4.8720   -2.2180    3.2010 O.co2     1 E2P91       0.0000 
     25 H          -2.6302   -3.7666    0.4893 H         1 E2P91       0.0000 
     26 H          -1.8428   -2.1894    0.6697 H         1 E2P91       0.0000 
     27 H          -4.1943   -2.4854   -1.2459 H         1 E2P91       0.0000 
     28 H          -2.5887   -3.0593   -1.7283 H         1 E2P91       0.0000 
     29 H          -2.7026   -0.8505   -2.6029 H         1 E2P91       0.0000 
     30 H          -1.7215   -0.6861   -1.1365 H         1 E2P91       0.0000 
     31 H          -4.4116   -0.2654   -0.2905 H         1 E2P91       0.0000 
     32 H          -4.2596    0.6048   -1.8266 H         1 E2P91       0.0000 
     33 H          -3.7415    2.1624   -0.1618 H         1 E2P91       0.0000 
     34 H          -2.2602    2.3922   -2.0073 H         1 E2P91       0.0000 
     35 H          -0.2048    1.2977   -0.0693 H         1 E2P91       0.0000 
     36 H          -0.3276    4.0767   -2.6435 H         1 E2P91       0.0000 
     37 H          -0.3729    2.7070   -3.7668 H         1 E2P91       0.0000 
     38 H           1.7765    4.5927   -3.2380 H         1 E2P91       0.0000 
     39 H           1.5710    3.4658   -4.5899 H         1 E2P91       0.0000 
     40 H           3.4071    0.8325   -1.0192 H         1 E2P91       0.0000 
     41 H           1.8312    0.0632   -0.7647 H         1 E2P91       0.0000 
     42 H           1.8798    2.6524    0.5243 H         1 E2P91       0.0000 
     43 H           2.5445    1.6368    2.6504 H         1 E2P91       0.0000 
     44 H           4.1196   -0.3134    2.2151 H         1 E2P91       0.0000 
     45 H           2.9724   -0.8437    0.9730 H         1 E2P91       0.0000 
     46 H           1.1729   -0.8126    2.7554 H         1 E2P91       0.0000 
     47 H           2.4489   -0.5228    3.9502 H         1 E2P91       0.0000 
     48 H           2.2937   -2.9521    2.1005 H         1 E2P91       0.0000 
     49 H           1.7496   -2.9318    3.7868 H         1 E2P91       0.0000 
     50 H          -3.6196   -2.4908    2.3645 H         1 E2P91       0.0000 
     51 H          -4.0417   -1.2685    1.4085 H         1 E2P91       0.0000 
     52 H          -4.7556   -2.7003    1.2458 H         1 E2P91       0.0000 
     53 H          -1.9556    1.5374    1.6384 H         1 E2P91       0.0000 
@<TRIPOS>BOND
     1    2    1 1    
     2   50    1 1    
     3   51    1 1    
     4   52    1 1    
     5    3    2 1    
     6   25    2 1    
     7   26    2 1    
     8    4    3 1    
     9   27    3 1    
    10   28    3 1    
    11    5    4 1    
    12   29    4 1    
    13   30    4 1    
    14    6    5 1    
    15   31    5 1    
    16   32    5 1    
    17    7    6 1    
    18    8    6 1    
    19   33    6 1    
    20   53    7 1    
    21    9    8 2    
    22   34    8 1    
    23   10    9 1    
    24   35    9 1    
    25   11   10 1    
    26   15   10 2    
    27   12   11 1    
    28   36   11 1    
    29   37   11 1    
    30   13   12 1    
    31   38   12 1    
    32   39   12 1    
    33   14   13 2    
    34   15   13 1    
    35   16   15 1    
    36   17   16 1    
    37   40   16 1    
    38   41   16 1    
    39   18   17 2    
    40   42   17 1    
    41   19   18 1    
    42   43   18 1    
    43   20   19 1    
    44   44   19 1    
    45   45   19 1    
    46   21   20 1    
    47   46   20 1    
    48   47   20 1    
    49   22   21 1    
    50   48   21 1    
    51   49   21 1    
    52   23   22 ar   
    53   24   22 ar   
@<TRIPOS>SUBSTRUCTURE
     1 E2P91       1 GROUP   
@<TRIPOS>SET

