#    Name: 4gqi_M49_2_INTS_M
#    Modification time : Mon Mar 24 23:31:09 2014

@<TRIPOS>MOLECULE
4gqi_M49_2_INTS_M
   30     0     6     0     0
SMALL
NO_CHARGES


@<TRIPOS>ATOM
      1 CA         -3.5465   -3.4630  -13.3675 C.3       2 GLC5        0.0000 
      2 CA         -4.4960   -2.6810  -14.6850 C.3       6 GLL5        0.0000 
      3 CA         -2.5970   -4.2450  -12.0500 C.3       4 GLP5        0.0000 
      4 N          -4.7670  -11.4730  -14.8510 N.am      1 SEC2        0.0000 
      5 N          -4.8950   -9.8520  -15.2370 N.am      5 SEL2        0.0000 
      6 N          -4.6390  -13.0940  -14.4650 N.am      3 SEP2        0.0000 
      7 CA         -6.1520   -6.5495  -12.2590 C.3       2 GLC5        0.0000 
      8 CA         -7.1050   -6.6430  -14.0340 C.3       6 GLL5        0.0000 
      9 CA         -5.1990   -6.4560  -10.4840 C.3       4 GLP5        0.0000 
     10 CA         -6.7505   -8.3145  -12.7035 C.3       2 GLC5        0.0000 
     11 CA         -6.3960   -9.9860  -11.3730 C.3       4 GLP5        0.0000 
     12 CA        -10.5490   -9.1910  -13.2095 C.3       2 GLC5        0.0000 
     13 CA        -10.8540   -7.4020  -13.6360 C.3       6 GLL5        0.0000 
     14 CA        -10.2440  -10.9800  -12.7830 C.3       4 GLP5        0.0000 
     15 CA        -11.2545   -7.4325  -11.5130 C.3       2 GLC5        0.0000 
     16 CA        -11.6550   -7.4630   -9.3900 C.3       4 GLP5        0.0000 
     17 CA        -11.0330   -6.4515  -15.4055 C.3       2 GLC5        0.0000 
     18 CA        -11.2120   -5.5010  -17.1750 C.3       4 GLP5        0.0000 
     19 CA         -2.3872   -5.5723  -14.6352 C.3       2 GLC5        0.0000 
     20 CA         -3.7460   -5.2510  -15.6760 C.3       6 GLL5        0.0000 
     21 CA         -1.5400   -6.2220  -13.2390 C.3       4 GLP5        0.0000 
     22 CA         -1.6840   -6.1180  -15.2243 C.3       2 GLC5        0.0000 
     23 CA         -1.8660   -6.7190  -17.2450 C.3       6 GLL5        0.0000 
     24 CA         -5.2065   -7.7590  -17.1762 C.3       2 GLC5        0.0000 
     25 CA         -4.8400   -7.4570  -15.0160 C.3       6 GLL5        0.0000 
     26 CA         -4.8260   -8.1860  -19.2260 C.3       4 GLP5        0.0000 
     27 CA         -2.8195   -6.7316  -14.4090 C.3       2 GLC5        0.0000 
     28 CA         -7.4117   -6.0940  -16.2212 C.3       2 GLC5        0.0000 
     29 CA         -6.3340   -7.2070  -15.2370 C.3       6 GLL5        0.0000 
     30 CA         -8.1040   -5.2630  -17.8070 C.3       4 GLP5        0.0000 
@<TRIPOS>BOND
@<TRIPOS>SUBSTRUCTURE
     1 SEC2        4 GROUP        1 X    SEC  0     ROOT SEC X 2
     2 GLC5        1 GROUP        1 X    GLC  0     **** GLC X 6
     3 SEP2        6 GROUP        1 Y    SEP  0     ROOT SEP Y 9
     4 GLP5        3 GROUP        1 Y    GLP  0     **** GLP Y 13
     5 SEL2        5 GROUP        1 Z    SEL  0     ROOT SEL Z 16
     6 GLL5        2 GROUP        1 Z    GLL  0     **** GLL Z 20
@<TRIPOS>SET

