#    Name: 4gqi_M49_2_ligand
#    Modification time : Mon Mar 24 23:31:09 2014

@<TRIPOS>MOLECULE
4gqi_M49_2_ligand
   37    38     1     0     0
SMALL
NO_CHARGES


@<TRIPOS>ATOM
      1 O12        -3.2810   -1.0900  -15.9890 O.2       1 M49303      0.0000 
      2 C11        -3.4310   -2.3010  -15.7080 C.2       1 M49303      0.0000 
      3 C20        -4.4960   -2.6810  -14.6850 C.3       1 M49303      0.0000 
      4 N10        -2.6110   -3.2330  -16.3350 N.am      1 M49303      0.0000 
      5 C6         -2.7230   -4.5940  -16.3870 C.ar      1 M49303      0.0000 
      6 C1         -3.7460   -5.2510  -15.6760 C.ar      1 M49303      0.0000 
      7 C2         -3.8570   -6.6310  -15.7420 C.ar      1 M49303      0.0000 
      8 C5         -1.7900   -5.3090  -17.1740 C.ar      1 M49303      0.0000 
      9 C4         -1.8660   -6.7190  -17.2450 C.ar      1 M49303      0.0000 
     10 C3         -2.8590   -7.4200  -16.5420 C.ar      1 M49303      0.0000 
     11 N9         -3.1910   -8.7480  -16.3860 N.am      1 M49303      0.0000 
     12 C8         -4.3070   -8.7250  -15.5850 C.2       1 M49303      0.0000 
     13 O13        -4.8950   -9.8520  -15.2370 O.2       1 M49303      0.0000 
     14 C7         -4.8400   -7.4570  -15.0160 C.3       1 M49303      0.0000 
     15 C14        -6.3340   -7.2070  -15.2370 C.3       1 M49303      0.0000 
     16 C15        -7.1050   -6.6430  -14.0340 C.3       1 M49303      0.0000 
     17 N16        -8.4700   -7.1990  -13.9380 N.am      1 M49303      0.0000 
     18 C17        -9.6110   -6.5340  -13.6090 C.2       1 M49303      0.0000 
     19 O18        -9.6920   -5.3270  -13.3120 O.2       1 M49303      0.0000 
     20 C19       -10.8540   -7.4020  -13.6360 C.3       1 M49303      0.0000 
     21 H          -1.7480   -2.8032  -16.8644 H         1 M49303      0.0000 
     22 H          -4.4028   -4.7002  -15.1131 H         1 M49303      0.0000 
     23 H          -1.0659   -4.8093  -17.6877 H         1 M49303      0.0000 
     24 H          -1.1855   -7.2323  -17.8182 H         1 M49303      0.0000 
     25 H          -2.7578   -9.4880  -16.7420 H         1 M49303      0.0000 
     26 H          -4.5703   -7.4508  -13.9740 H         1 M49303      0.0000 
     27 H          -6.8127   -8.1588  -15.5480 H         1 M49303      0.0000 
     28 H          -6.4563   -6.5105  -16.0924 H         1 M49303      0.0000 
     29 H          -7.1419   -5.5490  -14.1342 H         1 M49303      0.0000 
     30 H          -6.5323   -6.8709  -13.1238 H         1 M49303      0.0000 
     31 H          -8.5231   -8.2477  -14.1604 H         1 M49303      0.0000 
     32 H          -4.5338   -3.6694  -14.5379 H         1 M49303      0.0000 
     33 H          -4.3237   -2.2586  -13.7951 H         1 M49303      0.0000 
     34 H          -5.4087   -2.3926  -14.9745 H         1 M49303      0.0000 
     35 H         -11.0166   -7.7897  -14.5433 H         1 M49303      0.0000 
     36 H         -10.7855   -8.1687  -12.9976 H         1 M49303      0.0000 
     37 H         -11.6732   -6.8854  -13.3869 H         1 M49303      0.0000 
@<TRIPOS>BOND
     1    2    1 2    
     2    3    2 1    
     3    4    2 am   
     4   32    3 1    
     5   33    3 1    
     6   34    3 1    
     7    5    4 1    
     8   21    4 1    
     9    6    5 ar   
    10    8    5 ar   
    11    7    6 ar   
    12   22    6 1    
    13   10    7 ar   
    14   14    7 1    
    15    9    8 ar   
    16   23    8 1    
    17   10    9 ar   
    18   24    9 1    
    19   11   10 1    
    20   12   11 am   
    21   25   11 1    
    22   13   12 2    
    23   14   12 1    
    24   15   14 1    
    25   26   14 1    
    26   16   15 1    
    27   27   15 1    
    28   28   15 1    
    29   17   16 1    
    30   29   16 1    
    31   30   16 1    
    32   18   17 am   
    33   31   17 1    
    34   19   18 2    
    35   20   18 1    
    36   35   20 1    
    37   36   20 1    
    38   37   20 1    
@<TRIPOS>SUBSTRUCTURE
     1 M49303      1 GROUP   
@<TRIPOS>SET

