#    Name: 3rv6_VAE_1_INTS_M
#    Modification time : Tue Mar 25 12:01:45 2014

@<TRIPOS>MOLECULE
3rv6_VAE_1_INTS_M
   65     0     9     0     0
SMALL
NO_CHARGES


@<TRIPOS>ATOM
      1 N          12.3390   39.8600   27.8780 N.am      1 SEC2        0.0000 
      2 N          11.3190   40.5280   27.1610 N.am      7 SEL2        0.0000 
      3 N          13.3590   39.1920   28.5950 N.am      4 SEP2        0.0000 
      4 CA         13.1160   41.1345   28.1790 C.3       3 GLC5        0.0000 
      5 CA         11.7000   42.5810   28.5370 C.3       9 GLL5        0.0000 
      6 CA         14.5320   39.6880   27.8210 C.3       6 GLP5        0.0000 
      7 CA         12.9125   45.8215   28.9720 C.3       3 GLC5        0.0000 
      8 CA         12.0150   43.8690   28.5960 C.3       9 GLL5        0.0000 
      9 CA         13.8100   47.7740   29.3480 C.3       6 GLP5        0.0000 
     10 CA         10.1950   44.2480   29.7320 C.3       3 GLC5        0.0000 
     11 CA          8.3750   44.6270   30.8680 C.3       6 GLP5        0.0000 
     12 CA         11.2220   46.4455   27.8120 C.3       3 GLC5        0.0000 
     13 CA         12.2960   44.6340   27.3930 C.3       9 GLL5        0.0000 
     14 CA         10.1480   48.2570   28.2310 C.3       6 GLP5        0.0000 
     15 CA         10.6170   44.3055   25.3090 C.3       3 GLC5        0.0000 
     16 CA         12.3680   44.1150   26.2510 C.3       9 GLL5        0.0000 
     17 CA          8.8660   44.4960   24.3670 C.3       6 GLP5        0.0000 
     18 CA          9.7525   43.1530   31.3520 C.3       3 GLC5        0.0000 
     19 CA         11.1300   41.6790   31.8360 C.3       9 GLL5        0.0000 
     20 N          12.4665   43.9880   23.5250 N.am      1 SEC2        0.0000 
     21 N          12.2980   42.7610   23.8350 N.am      7 SEL2        0.0000 
     22 N          12.6350   45.2150   23.2150 N.am      4 SEP2        0.0000 
     23 N          13.6730   42.9505   23.5790 N.am      1 SEC2        0.0000 
     24 N          15.0480   43.1400   23.3230 N.am      4 SEP2        0.0000 
     25 CA         13.1680   39.7230   32.9395 C.3       3 GLC5        0.0000 
     26 CA         12.6470   41.4290   34.0890 C.3       9 GLL5        0.0000 
     27 CA         13.6890   38.0170   31.7900 C.3       6 GLP5        0.0000 
     28 CA          8.3940   41.7825   33.2615 C.3       3 GLC5        0.0000 
     29 CA         10.2510   42.1870   34.1500 C.3       9 GLL5        0.0000 
     30 CA          6.5370   41.3780   32.3730 C.3       6 GLP5        0.0000 
     31 CA          9.3130   43.4070   32.5090 C.3       3 GLC5        0.0000 
     32 NZ         13.7530   40.3980   29.4525 N.4       2 LYC4        0.0000 
     33 NZ         14.1470   41.6040   30.3100 N.4       8 LYL4        0.0000 
     34 NZ         13.3590   39.1920   28.5950 N.4       5 LYP4        0.0000 
     35 N          13.7530   40.3980   29.4525 N.am      1 SEC2        0.0000 
     36 N          14.1470   41.6040   30.3100 N.am      7 SEL2        0.0000 
     37 CA         10.0930   42.6968   26.4840 C.3       3 GLC5        0.0000 
     38 CA         11.6840   41.9780   27.2110 C.3       9 GLL5        0.0000 
     39 CA          8.3400   43.0420   26.3240 C.3       6 GLP5        0.0000 
     40 CA         14.0220   43.6905   25.1815 C.3       3 GLC5        0.0000 
     41 CA         12.0080   42.7250   26.0770 C.3       9 GLL5        0.0000 
     42 CA         15.8560   43.9610   24.1990 C.3       6 GLP5        0.0000 
     43 CA         13.0730   40.9387   26.4935 C.3       3 GLC5        0.0000 
     44 CA         14.3000   39.5260   26.3430 C.3       6 GLP5        0.0000 
     45 CA         13.1520   46.0247   26.8270 C.3       3 GLC5        0.0000 
     46 CA         13.9720   47.6750   26.8320 C.3       6 GLP5        0.0000 
     47 CA         10.2084   43.4857   27.1519 C.3       3 GLC5        0.0000 
     48 CA          9.6363   41.0147   30.9158 C.3       3 GLC5        0.0000 
     49 CA         11.8990   41.8060   30.8550 C.3       9 GLL5        0.0000 
     50 CA          7.7580   40.2870   30.4860 C.3       6 GLP5        0.0000 
     51 CA         12.6018   39.8798   31.5677 C.3       3 GLC5        0.0000 
     52 CA         11.1353   40.0425   34.5602 C.3       3 GLC5        0.0000 
     53 CA         11.3420   41.7630   33.3420 C.3       9 GLL5        0.0000 
     54 CA         10.2760   38.4890   35.4050 C.3       6 GLP5        0.0000 
     55 CA         11.2815   40.1003   35.6105 C.3       3 GLC5        0.0000 
     56 CA         12.8170   41.5260   35.4340 C.3       9 GLL5        0.0000 
     57 CA         13.3270   40.9898   37.3955 C.3       3 GLC5        0.0000 
     58 CA         11.7570   41.8970   36.1980 C.3       9 GLL5        0.0000 
     59 CA         14.3670   40.2680   38.9750 C.3       6 GLP5        0.0000 
     60 CA         13.0245   43.0962   36.7675 C.3       3 GLC5        0.0000 
     61 CA         13.7620   44.4810   37.7190 C.3       6 GLP5        0.0000 
     62 CA         10.1540   42.2767   37.6735 C.3       3 GLC5        0.0000 
     63 CA          9.2250   42.4660   39.4090 C.3       6 GLP5        0.0000 
     64 CA         10.3030   40.3607   35.1595 C.3       3 GLC5        0.0000 
     65 CA         10.4090   42.2780   35.6780 C.3       9 GLL5        0.0000 
@<TRIPOS>BOND
@<TRIPOS>SUBSTRUCTURE
     1 SEC2        1 GROUP        1 X    SEC  0     ROOT SEC X 2
     2 LYC4       32 GROUP        1 X    LYC  0     **** LYC X 4
     3 GLC5        4 GROUP        1 X    GLC  0     **** GLC X 6
     4 SEP2        3 GROUP        1 Y    SEP  0     ROOT SEP Y 9
     5 LYP4       34 GROUP        1 Y    LYP  0     **** LYP Y 11
     6 GLP5        6 GROUP        1 Y    GLP  0     **** GLP Y 13
     7 SEL2        2 GROUP        1 Z    SEL  0     ROOT SEL Z 16
     8 LYL4       33 GROUP        1 Z    LYL  0     **** LYL Z 18
     9 GLL5        5 GROUP        1 Z    GLL  0     **** GLL Z 20
@<TRIPOS>SET

