#    Name: 3rv6_VAE_1_ligand
#    Modification time : Tue Mar 25 12:01:45 2014

@<TRIPOS>MOLECULE
3rv6_VAE_1_ligand
   32    33     1     0     0
SMALL
NO_CHARGES


@<TRIPOS>ATOM
      1 C          11.9800   42.0910   24.7790 C.2       1 VAE451      0.0000 
      2 C'         13.4380   42.1400   30.9360 C.2       1 VAE451      0.0000 
      3 C1         12.0080   42.7250   26.0770 C.ar      1 VAE451      0.0000 
      4 C2         11.6840   41.9780   27.2110 C.ar      1 VAE451      0.0000 
      5 O2         11.3190   40.5280   27.1610 O.3       1 VAE451      0.0000 
      6 C3         11.7000   42.5810   28.5370 C.ar      1 VAE451      0.0000 
      7 O3         11.3390   41.6330   29.4820 O.3       1 VAE451      0.0000 
      8 C4         12.0150   43.8690   28.5960 C.ar      1 VAE451      0.0000 
      9 C5         12.2960   44.6340   27.3930 C.ar      1 VAE451      0.0000 
     10 C6         12.3680   44.1150   26.2510 C.ar      1 VAE451      0.0000 
     11 C7         11.8990   41.8060   30.8550 C.2       1 VAE451      0.0000 
     12 C8         11.1300   41.6790   31.8360 C.2       1 VAE451      0.0000 
     13 C9         11.3420   41.7630   33.3420 C.ar      1 VAE451      0.0000 
     14 OA         11.5910   40.7960   24.6950 O.co2     1 VAE451      0.0000 
     15 OB         12.2980   42.7610   23.8350 O.co2     1 VAE451      0.0000 
     16 C10        12.6470   41.4290   34.0890 C.ar      1 VAE451      0.0000 
     17 C11        12.8170   41.5260   35.4340 C.ar      1 VAE451      0.0000 
     18 C12        11.7570   41.8970   36.1980 C.ar      1 VAE451      0.0000 
     19 C13        10.4090   42.2780   35.6780 C.ar      1 VAE451      0.0000 
     20 C14        10.2510   42.1870   34.1500 C.ar      1 VAE451      0.0000 
     21 OA'        13.6990   43.1120   31.6510 O.co2     1 VAE451      0.0000 
     22 OB'        14.1470   41.6040   30.3100 O.co2     1 VAE451      0.0000 
     23 H          12.0761   44.3898   29.4933 H         1 VAE451      0.0000 
     24 H          12.4345   45.6745   27.5739 H         1 VAE451      0.0000 
     25 H          12.6730   44.6062   25.3849 H         1 VAE451      0.0000 
     26 H          10.0380   41.4553   31.6568 H         1 VAE451      0.0000 
     27 H          13.4153   41.1112   33.4531 H         1 VAE451      0.0000 
     28 H          13.7297   41.3226   35.8641 H         1 VAE451      0.0000 
     29 H          11.8388   41.9361   37.2507 H         1 VAE451      0.0000 
     30 H           9.6902   42.5579   36.2308 H         1 VAE451      0.0000 
     31 H           9.3583   42.4377   33.7726 H         1 VAE451      0.0000 
     32 H          11.3494   40.2869   26.1910 H         1 VAE451      0.0000 
@<TRIPOS>BOND
     1    3    1 1    
     2   14    1 ar   
     3   15    1 ar   
     4   11    2 1    
     5   21    2 ar   
     6   22    2 ar   
     7    4    3 ar   
     8   10    3 ar   
     9    5    4 1    
    10    6    4 ar   
    11   32    5 1    
    12    7    6 1    
    13    8    6 ar   
    14   11    7 1    
    15    9    8 ar   
    16   23    8 1    
    17   10    9 ar   
    18   24    9 1    
    19   25   10 1    
    20   12   11 2    
    21   13   12 1    
    22   26   12 1    
    23   16   13 ar   
    24   20   13 ar   
    25   17   16 ar   
    26   27   16 1    
    27   18   17 ar   
    28   28   17 1    
    29   19   18 ar   
    30   29   18 1    
    31   20   19 ar   
    32   30   19 1    
    33   31   20 1    
@<TRIPOS>SUBSTRUCTURE
     1 VAE451      1 GROUP   
@<TRIPOS>SET

