#    Name: 3k2f_NKX_1_INTS_M
#    Modification time : Mon Mar 24 18:04:35 2014

@<TRIPOS>MOLECULE
3k2f_NKX_1_INTS_M
   45     0    12     0     0
SMALL
NO_CHARGES


@<TRIPOS>ATOM
      1 CA         -2.5920    6.4090   15.9315 C.3       4 GLC5        0.0000 
      2 CA         -3.2360    6.7890   14.1940 C.3      12 GLL5        0.0000 
      3 CA         -1.9480    6.0290   17.6690 C.3       8 GLP5        0.0000 
      4 N          -3.9600    0.7040   18.5245 N.am      2 SEC2        0.0000 
      5 N          -5.2880    1.0350   18.1010 N.am     10 SEL2        0.0000 
      6 N          -2.6320    0.3730   18.9480 N.am      6 SEP2        0.0000 
      7 CA         -7.9200    3.4225   17.3820 C.3       4 GLC5        0.0000 
      8 CA         -6.4610    3.5580   15.6960 C.3      12 GLL5        0.0000 
      9 CA         -9.3790    3.2870   19.0680 C.3       8 GLP5        0.0000 
     10 O          -4.5210   -1.1340   16.7605 O.2       1 ALC1        0.0000 
     11 O          -5.4320   -0.3870   16.0890 O.2       9 ALL1        0.0000 
     12 O          -3.6100   -1.8810   17.4320 O.2       5 ALP1        0.0000 
     13 Zn         -6.0290   -1.0045   15.6335 Zn        3 ZIC7        0.0000 
     14 Zn         -5.4320   -0.3870   16.0890 Zn       11 ZIL7        0.0000 
     15 Zn         -6.6260   -1.6220   15.1780 Zn        7 ZIP7        0.0000 
     16 CA         -3.0280    0.8295   14.4085 C.3       4 GLC5        0.0000 
     17 CA         -4.5700    2.3380   14.7840 C.3      12 GLL5        0.0000 
     18 CA         -1.4860   -0.6790   14.0330 C.3       8 GLP5        0.0000 
     19 N          -2.2825    1.9890    8.8990 N.am      2 SEC2        0.0000 
     20 N          -1.8190    1.9600   10.3760 N.am     10 SEL2        0.0000 
     21 N          -2.7460    2.0180    7.4220 N.am      6 SEP2        0.0000 
     22 N          -1.6135    3.2875    7.0345 N.am      2 SEC2        0.0000 
     23 N          -0.4810    4.5570    6.6470 N.am     10 SEL2        0.0000 
     24 N          -2.7455    3.3660    7.5615 N.am      2 SEC2        0.0000 
     25 N          -2.7450    4.7140    7.7010 N.am     10 SEL2        0.0000 
     26 N           3.3655    2.7200   10.1135 N.am      2 SEC2        0.0000 
     27 N           2.6230    3.8780    9.1160 N.am     10 SEL2        0.0000 
     28 N           4.1080    1.5620   11.1110 N.am      6 SEP2        0.0000 
     29 N           3.4200    1.6095    7.8980 N.am      2 SEC2        0.0000 
     30 N           4.4630    2.8450    7.9170 N.am     10 SEL2        0.0000 
     31 N           2.3770    0.3740    7.8790 N.am      6 SEP2        0.0000 
     32 CA         -4.7397    8.3128   13.8087 C.3       4 GLC5        0.0000 
     33 CA         -4.2970    6.4700   13.1430 C.3      12 GLL5        0.0000 
     34 CA         -5.7130    9.9960   13.9490 C.3       8 GLP5        0.0000 
     35 CA         -7.9532    3.7283   14.9567 C.3       4 GLC5        0.0000 
     36 CA         -5.5960    4.3610   14.5190 C.3      12 GLL5        0.0000 
     37 CA         -9.8780    3.4970   14.8060 C.3       8 GLP5        0.0000 
     38 CA          1.2831    1.7401   10.1562 C.3       4 GLC5        0.0000 
     39 CA         -0.5590    2.1990    9.6040 C.3      12 GLL5        0.0000 
     40 CA          1.9600    0.2920   11.3210 C.3       8 GLP5        0.0000 
     41 CA          0.8096    1.7006    8.4537 C.3       4 GLC5        0.0000 
     42 CA          1.0130    0.2130    7.9160 C.3       8 GLP5        0.0000 
     43 CA         -4.6736    3.9718   16.4109 C.3       4 GLC5        0.0000 
     44 CA         -5.5530    2.2090   15.6930 C.3      12 GLL5        0.0000 
     45 CA         -4.1730    4.9380   17.9010 C.3       8 GLP5        0.0000 
@<TRIPOS>BOND
@<TRIPOS>SUBSTRUCTURE
     1 ALC1       10 GROUP        1 X    ALC  0     ROOT ALC X 1
     2 SEC2        4 GROUP        1 X    SEC  0     **** SEC X 2
     3 ZIC7       13 GROUP        1 X    ZIC  0     **** ZIC X 5
     4 GLC5        1 GROUP        1 X    GLC  0     **** GLC X 6
     5 ALP1       12 GROUP        1 Y    ALP  0     ROOT ALP Y 8
     6 SEP2        6 GROUP        1 Y    SEP  0     **** SEP Y 9
     7 ZIP7       15 GROUP        1 Y    ZIP  0     **** ZIP Y 12
     8 GLP5        3 GROUP        1 Y    GLP  0     **** GLP Y 13
     9 ALL1       11 GROUP        1 Z    ALL  0     ROOT ALL Z 15
    10 SEL2        5 GROUP        1 Z    SEL  0     **** SEL Z 16
    11 ZIL7       14 GROUP        1 Z    ZIL  0     **** ZIL Z 19
    12 GLL5        2 GROUP        1 Z    GLL  0     **** GLL Z 20
@<TRIPOS>SET

