#    Name: 3k2f_NKX_1_ligand
#    Modification time : Mon Mar 24 18:04:35 2014

@<TRIPOS>MOLECULE
3k2f_NKX_1_ligand
   52    53     1     0     0
SMALL
NO_CHARGES


@<TRIPOS>ATOM
      1 CAA        -3.2360    6.7890   14.1940 C.3       1 NKX264      0.0000 
      2 OAB        -7.0170    5.9590   12.9240 O.2       1 NKX264      0.0000 
      3 OAC        -5.2880    1.0350   18.1010 O.2       1 NKX264      0.0000 
      4 CAD        -4.2970    6.4700   13.1430 C.3       1 NKX264      0.0000 
      5 SAE        -5.8840    5.9750   13.9000 S.o2      1 NKX264      0.0000 
      6 CAF        -5.5960    4.3610   14.5190 C.2       1 NKX264      0.0000 
      7 SAG        -6.4610    3.5580   15.6960 S.3       1 NKX264      0.0000 
      8 CAH        -5.5530    2.2090   15.6930 C.2       1 NKX264      0.0000 
      9 SAI        -5.9310    0.8710   16.7560 S.o2      1 NKX264      0.0000 
     10 NAJ        -5.4320   -0.3870   16.0890 N.pl3     1 NKX264      0.0000 
     11 OAK        -6.2250    6.9120   15.0270 O.2       1 NKX264      0.0000 
     12 OAL        -7.5070    0.8350   16.9290 O.2       1 NKX264      0.0000 
     13 CAM        -3.8460    5.3110   12.2520 C.3       1 NKX264      0.0000 
     14 CAN        -3.5040    3.9790   13.0060 C.3       1 NKX264      0.0000 
     15 CAO        -4.5450    3.5160   14.0990 C.2       1 NKX264      0.0000 
     16 CAP        -4.5700    2.3380   14.7840 C.2       1 NKX264      0.0000 
     17 NAQ        -3.2390    2.9770   11.9360 N.am      1 NKX264      0.0000 
     18 CAR        -4.3770    2.1420   11.4930 C.3       1 NKX264      0.0000 
     19 CAS        -5.1720    2.8920   10.4400 C.3       1 NKX264      0.0000 
     20 OAT        -1.0430    3.5340   11.7060 O.2       1 NKX264      0.0000 
     21 CAU        -2.0190    2.8610   11.3740 C.2       1 NKX264      0.0000 
     22 OAV        -1.8190    1.9600   10.3760 O.3       1 NKX264      0.0000 
     23 CAW        -0.5590    2.1990    9.6040 C.3       1 NKX264      0.0000 
     24 OAX        -0.4810    4.5570    6.6470 O.2       1 NKX264      0.0000 
     25 CAY         0.1840    3.5720    9.4300 C.3       1 NKX264      0.0000 
     26 OAZ        -0.7160    4.6640    9.0720 O.3       1 NKX264      0.0000 
     27 NBA        -1.2960    4.6320    7.8250 N.pl3     1 NKX264      0.0000 
     28 OBB        -2.7450    4.7140    7.7010 O.2       1 NKX264      0.0000 
     29 CBC         1.4000    3.4910    8.4660 C.3       1 NKX264      0.0000 
     30 OBD         2.6230    3.8780    9.1160 O.3       1 NKX264      0.0000 
     31 NBE         3.6180    3.9680    8.1930 N.pl3     1 NKX264      0.0000 
     32 OBF         3.8240    5.1940    7.4930 O.2       1 NKX264      0.0000 
     33 OBG         4.4630    2.8450    7.9170 O.2       1 NKX264      0.0000 
     34 H          -4.5696    7.3092   12.5649 H         1 NKX264      0.0000 
     35 H          -4.7793   -0.9338   16.6133 H         1 NKX264      0.0000 
     36 H          -2.9520    5.6154   11.6802 H         1 NKX264      0.0000 
     37 H          -4.6356    5.0886   11.5132 H         1 NKX264      0.0000 
     38 H          -2.5380    4.1720   13.5229 H         1 NKX264      0.0000 
     39 H          -3.8869    1.6106   14.6127 H         1 NKX264      0.0000 
     40 H          -5.0317    1.9152   12.3335 H         1 NKX264      0.0000 
     41 H          -4.0181    1.2073   11.0641 H         1 NKX264      0.0000 
     42 H          -0.7072    1.7864    8.5283 H         1 NKX264      0.0000 
     43 H           0.2475    1.4542    9.9837 H         1 NKX264      0.0000 
     44 H           0.6220    3.8014   10.4441 H         1 NKX264      0.0000 
     45 H           1.1739    4.1387    7.6049 H         1 NKX264      0.0000 
     46 H           1.4475    2.4569    8.0914 H         1 NKX264      0.0000 
     47 H          -2.3680    7.0571   13.7760 H         1 NKX264      0.0000 
     48 H          -3.5183    7.5402   14.7907 H         1 NKX264      0.0000 
     49 H          -3.0476    6.0025   14.7821 H         1 NKX264      0.0000 
     50 H          -4.6132    3.1142    9.6410 H         1 NKX264      0.0000 
     51 H          -5.9517    2.3580   10.1130 H         1 NKX264      0.0000 
     52 H          -5.5348    3.7544   10.7929 H         1 NKX264      0.0000 
@<TRIPOS>BOND
     1    4    1 1    
     2   47    1 1    
     3   48    1 1    
     4   49    1 1    
     5    5    2 2    
     6    9    3 2    
     7    5    4 1    
     8   13    4 1    
     9   34    4 1    
    10    6    5 1    
    11   11    5 2    
    12    7    6 1    
    13   15    6 2    
    14    8    7 1    
    15    9    8 1    
    16   16    8 2    
    17   10    9 1    
    18   12    9 2    
    19   35   10 1    
    20   14   13 1    
    21   36   13 1    
    22   37   13 1    
    23   15   14 1    
    24   17   14 1    
    25   38   14 1    
    26   16   15 1    
    27   39   16 1    
    28   18   17 1    
    29   21   17 am   
    30   19   18 1    
    31   40   18 1    
    32   41   18 1    
    33   50   19 1    
    34   51   19 1    
    35   52   19 1    
    36   21   20 2    
    37   22   21 1    
    38   23   22 1    
    39   25   23 1    
    40   42   23 1    
    41   43   23 1    
    42   27   24 2    
    43   26   25 1    
    44   29   25 1    
    45   44   25 1    
    46   27   26 1    
    47   28   27 2    
    48   30   29 1    
    49   45   29 1    
    50   46   29 1    
    51   31   30 1    
    52   32   31 2    
    53   33   31 2    
@<TRIPOS>SUBSTRUCTURE
     1 NKX264      1 GROUP   
@<TRIPOS>SET

