#    Name: 4fvt_CNA_1_INTS_M
#    Modification time : Mon Mar 24 20:52:37 2014

@<TRIPOS>MOLECULE
4fvt_CNA_1_INTS_M
   85     0     9     0     0
SMALL
NO_CHARGES


@<TRIPOS>ATOM
      1 N          17.0530   27.4140  -17.7195 N.am      2 SEC2        0.0000 
      2 N          17.2120   28.5950  -16.8290 N.am      8 SEL2        0.0000 
      3 N          16.8940   26.2330  -18.6100 N.am      5 SEP2        0.0000 
      4 N          15.7110   25.7205  -15.9880 N.am      2 SEC2        0.0000 
      5 N          15.6330   27.2470  -15.2470 N.am      8 SEL2        0.0000 
      6 N          15.7890   24.1940  -16.7290 N.am      5 SEP2        0.0000 
      7 CA         16.2430   27.6860  -12.7225 C.3       3 GLC5        0.0000 
      8 CA         14.7700   27.0050  -14.1170 C.3       9 GLL5        0.0000 
      9 CA         17.7160   28.3670  -11.3280 C.3       6 GLP5        0.0000 
     10 CA         14.4855   26.4105  -12.0385 C.3       3 GLC5        0.0000 
     11 CA         14.2010   25.8160   -9.9600 C.3       6 GLP5        0.0000 
     12 CA         14.5055   25.2125  -16.3255 C.3       3 GLC5        0.0000 
     13 CA         13.6650   26.0020  -14.5410 C.3       9 GLL5        0.0000 
     14 CA         15.3460   24.4230  -18.1100 C.3       6 GLP5        0.0000 
     15 CA         13.0940   28.7420  -16.0575 C.3       3 GLC5        0.0000 
     16 CA         12.6220   26.6820  -15.4250 C.3       9 GLL5        0.0000 
     17 CA         13.5660   30.8020  -16.6900 C.3       6 GLP5        0.0000 
     18 CA         14.0710   26.2880  -16.9610 C.3       3 GLC5        0.0000 
     19 CA         15.5200   25.8940  -18.4970 C.3       6 GLP5        0.0000 
     20 N          11.4765   24.0135  -16.0375 N.am      2 SEC2        0.0000 
     21 N          11.9200   25.6570  -16.1660 N.am      8 SEL2        0.0000 
     22 N          11.0330   22.3700  -15.9090 N.am      5 SEP2        0.0000 
     23 CA         12.9025   25.9775  -11.6710 C.3       3 GLC5        0.0000 
     24 CA         11.6040   26.1390  -13.3820 C.3       9 GLL5        0.0000 
     25 CA          9.6130   25.9725  -13.2290 C.3       3 GLC5        0.0000 
     26 CA          7.6220   25.8060  -13.0760 C.3       6 GLP5        0.0000 
     27 N          11.5815   28.0300   -8.6590 N.am      2 SEC2        0.0000 
     28 N          11.1630   27.5730  -10.0600 N.am      8 SEL2        0.0000 
     29 N          12.0000   28.4870   -7.2580 N.am      5 SEP2        0.0000 
     30 CA         10.0805   23.9150   -8.3525 C.3       3 GLC5        0.0000 
     31 CA          9.7700   25.8980   -8.9600 C.3       9 GLL5        0.0000 
     32 CA         10.3910   21.9320   -7.7450 C.3       6 GLP5        0.0000 
     33 O          10.8740   27.5420   -7.5435 O.2       1 ALC1        0.0000 
     34 O           9.7480   26.5970   -7.8290 O.2       7 ALL1        0.0000 
     35 O          12.0000   28.4870   -7.2580 O.2       4 ALP1        0.0000 
     36 N           8.5380   23.5440   -8.4500 N.am      2 SEC2        0.0000 
     37 N           9.1260   24.7260   -9.0870 N.am      8 SEL2        0.0000 
     38 N           7.9500   22.3620   -7.8130 N.am      5 SEP2        0.0000 
     39 CA          9.4380   22.3845  -11.6760 C.3       3 GLC5        0.0000 
     40 CA          9.2000   24.0420  -10.3100 C.3       9 GLL5        0.0000 
     41 CA          9.6760   20.7270  -13.0420 C.3       6 GLP5        0.0000 
     42 CA          8.4110   24.9240  -11.6930 C.3       3 GLC5        0.0000 
     43 CA          7.4665   23.6290   -9.3070 C.3       3 GLC5        0.0000 
     44 CA          5.7330   23.2160   -8.3040 C.3       6 GLP5        0.0000 
     45 CA          9.9830   22.8725   -9.7480 C.3       3 GLC5        0.0000 
     46 CA         10.7660   21.7030   -9.1860 C.3       6 GLP5        0.0000 
     47 N           9.1265   23.6635  -12.4160 N.am      2 SEC2        0.0000 
     48 N           9.9370   24.6120  -11.3530 N.am      8 SEL2        0.0000 
     49 N           8.3160   22.7150  -13.4790 N.am      5 SEP2        0.0000 
     50 N          18.9525   26.0460  -12.4215 N.am      2 SEC2        0.0000 
     51 N          19.6460   26.1090  -13.6850 N.am      8 SEL2        0.0000 
     52 N          18.2590   25.9830  -11.1580 N.am      5 SEP2        0.0000 
     53 N          18.1200   24.0530  -15.5925 N.am      2 SEC2        0.0000 
     54 N          18.0440   25.5080  -15.5840 N.am      8 SEL2        0.0000 
     55 N          18.1960   22.5980  -15.6010 N.am      5 SEP2        0.0000 
     56 N          16.9165   24.8510  -16.1565 N.am      2 SEC2        0.0000 
     57 CA         22.2950   25.8900  -14.3740 C.3       3 GLC5        0.0000 
     58 CA         21.3720   27.4410  -15.4760 C.3       9 GLL5        0.0000 
     59 CA         23.2180   24.3390  -13.2720 C.3       6 GLP5        0.0000 
     60 N          23.8185   28.6755   -8.4025 N.am      2 SEC2        0.0000 
     61 N          22.7410   29.4070   -8.5020 N.am      8 SEL2        0.0000 
     62 N          24.8960   27.9440   -8.3030 N.am      5 SEP2        0.0000 
     63 N          23.6735   29.0580   -7.0795 N.am      2 SEC2        0.0000 
     64 N          24.6060   28.7090   -5.6570 N.am      5 SEP2        0.0000 
     65 O          20.8690   28.8400   -6.4440 O.2       1 ALC1        0.0000 
     66 O          20.6550   29.7220   -7.6710 O.2       7 ALL1        0.0000 
     67 O          21.0830   27.9580   -5.2170 O.2       4 ALP1        0.0000 
     68 CA         19.5215   32.0690   -7.6970 C.3       3 GLC5        0.0000 
     69 CA         20.1490   31.4500   -9.6950 C.3       9 GLL5        0.0000 
     70 CA         18.8940   32.6880   -5.6990 C.3       6 GLP5        0.0000 
     71 CA         15.0983   24.7592  -14.4740 C.3       3 GLC5        0.0000 
     72 CA         15.9790   23.0150  -14.6190 C.3       6 GLP5        0.0000 
     73 CA         12.3540   25.9657  -10.2602 C.3       3 GLC5        0.0000 
     74 CA         10.5480   25.7990  -11.1530 C.3       9 GLL5        0.0000 
     75 CA          9.0645   25.9608  -11.8182 C.3       3 GLC5        0.0000 
     76 CA         10.4660   26.4320   -9.9680 C.3       9 GLL5        0.0000 
     77 CA         22.2869   27.9550  -17.0440 C.3       3 GLC5        0.0000 
     78 CA         22.2620   27.2140  -18.8720 C.3       6 GLP5        0.0000 
     79 CA         19.5790   29.3555  -10.8760 C.3       3 GLC5        0.0000 
     80 CA         21.7160   30.1920  -11.0540 C.3       9 GLL5        0.0000 
     81 CA         18.1217   32.6118  -11.3565 C.3       3 GLC5        0.0000 
     82 CA         19.6770   32.1200  -10.8230 C.3       9 GLL5        0.0000 
     83 CA         16.2950   33.2460  -11.2630 C.3       6 GLP5        0.0000 
     84 CA         18.8912   30.0885  -11.2480 C.3       3 GLC5        0.0000 
     85 CA         20.2200   31.8350  -12.0770 C.3       9 GLL5        0.0000 
@<TRIPOS>BOND
@<TRIPOS>SUBSTRUCTURE
     1 ALC1       33 GROUP        1 X    ALC  0     ROOT ALC X 1
     2 SEC2        1 GROUP        1 X    SEC  0     **** SEC X 2
     3 GLC5        7 GROUP        1 X    GLC  0     **** GLC X 6
     4 ALP1       35 GROUP        1 Y    ALP  0     ROOT ALP Y 8
     5 SEP2        3 GROUP        1 Y    SEP  0     **** SEP Y 9
     6 GLP5        9 GROUP        1 Y    GLP  0     **** GLP Y 13
     7 ALL1       34 GROUP        1 Z    ALL  0     ROOT ALL Z 15
     8 SEL2        2 GROUP        1 Z    SEL  0     **** SEL Z 16
     9 GLL5        8 GROUP        1 Z    GLL  0     **** GLL Z 20
@<TRIPOS>SET

