#    Name: 4fvt_CNA_1_ligand
#    Modification time : Mon Mar 24 20:52:37 2014

@<TRIPOS>MOLECULE
4fvt_CNA_1_ligand
   72    76     1     0     0
SMALL
NO_CHARGES


@<TRIPOS>ATOM
      1 PA         16.7220   28.4500  -15.2850 P.3       1 CNA401      0.0000 
      2 O1A        17.2120   28.5950  -16.8290 O.co2     1 CNA401      0.0000 
      3 O2A        16.2640   29.7450  -14.7050 O.co2     1 CNA401      0.0000 
      4 O5B        15.6330   27.2470  -15.2470 O.3       1 CNA401      0.0000 
      5 C5B        14.7700   27.0050  -14.1170 C.3       1 CNA401      0.0000 
      6 C4B        13.6650   26.0020  -14.5410 C.3       1 CNA401      0.0000 
      7 O4B        12.8950   25.4400  -13.4170 O.3       1 CNA401      0.0000 
      8 C3B        12.6220   26.6820  -15.4250 C.3       1 CNA401      0.0000 
      9 O3B        11.9200   25.6570  -16.1660 O.3       1 CNA401      0.0000 
     10 C2B        11.7290   27.3110  -14.3530 C.3       1 CNA401      0.0000 
     11 O2B        10.4280   27.6560  -14.8630 O.3       1 CNA401      0.0000 
     12 C1B        11.6040   26.1390  -13.3820 C.3       1 CNA401      0.0000 
     13 N9A        11.2900   26.5550  -11.9710 N.pl3     1 CNA401      0.0000 
     14 C8A        11.6770   27.6430  -11.2960 C.2       1 CNA401      0.0000 
     15 N7A        11.1630   27.5730  -10.0600 N.2       1 CNA401      0.0000 
     16 C5A        10.4660   26.4320   -9.9680 C.ar      1 CNA401      0.0000 
     17 C6A         9.7700   25.8980   -8.9600 C.ar      1 CNA401      0.0000 
     18 N6A         9.7480   26.5970   -7.8290 N.pl3     1 CNA401      0.0000 
     19 N1A         9.1260   24.7260   -9.0870 N.ar      1 CNA401      0.0000 
     20 C2A         9.2000   24.0420  -10.3100 C.ar      1 CNA401      0.0000 
     21 N3A         9.9370   24.6120  -11.3530 N.ar      1 CNA401      0.0000 
     22 C4A        10.5480   25.7990  -11.1530 C.ar      1 CNA401      0.0000 
     23 O3         18.0220   27.8770  -14.4770 O.3       1 CNA401      0.0000 
     24 PN         18.8620   26.5980  -14.9860 P.3       1 CNA401      0.0000 
     25 O1N        19.6460   26.1090  -13.6850 O.co2     1 CNA401      0.0000 
     26 O2N        18.0440   25.5080  -15.5840 O.co2     1 CNA401      0.0000 
     27 O5D        20.0580   27.1470  -16.0000 O.3       1 CNA401      0.0000 
     28 C5D        21.3720   27.4410  -15.4760 C.3       1 CNA401      0.0000 
     29 C4D        21.6490   28.9610  -15.4180 C.3       1 CNA401      0.0000 
     30 C4'        20.7760   29.7210  -14.3730 C.3       1 CNA401      0.0000 
     31 C3D        23.1130   29.1910  -14.9850 C.3       1 CNA401      0.0000 
     32 O3D        23.7230   30.2290  -15.8270 O.3       1 CNA401      0.0000 
     33 C2D        22.9990   29.6300  -13.5050 C.3       1 CNA401      0.0000 
     34 O2D        24.1790   30.3080  -13.0390 O.3       1 CNA401      0.0000 
     35 C1D        21.7890   30.5680  -13.5590 C.3       1 CNA401      0.0000 
     36 N1N        21.2490   30.8740  -12.2080 N.pl3     1 CNA401      0.0000 
     37 C2N        21.7160   30.1920  -11.0540 C.ar      1 CNA401      0.0000 
     38 C3N        21.1680   30.4960   -9.7940 C.ar      1 CNA401      0.0000 
     39 C7N        21.5940   29.8410   -8.6240 C.2       1 CNA401      0.0000 
     40 O7N        22.7410   29.4070   -8.5020 O.2       1 CNA401      0.0000 
     41 N7N        20.6550   29.7220   -7.6710 N.am      1 CNA401      0.0000 
     42 C4N        20.1490   31.4500   -9.6950 C.ar      1 CNA401      0.0000 
     43 C5N        19.6770   32.1200  -10.8230 C.ar      1 CNA401      0.0000 
     44 C6N        20.2200   31.8350  -12.0770 C.ar      1 CNA401      0.0000 
     45 H          14.2757   27.9140  -13.7815 H         1 CNA401      0.0000 
     46 H          15.3091   26.5642  -13.2814 H         1 CNA401      0.0000 
     47 H          14.1087   25.2074  -15.1176 H         1 CNA401      0.0000 
     48 H          13.0725   27.4124  -15.9855 H         1 CNA401      0.0000 
     49 H          12.2447   28.0801  -13.8836 H         1 CNA401      0.0000 
     50 H          10.8360   25.4764  -13.7500 H         1 CNA401      0.0000 
     51 H          12.2322   28.3581  -11.6392 H         1 CNA401      0.0000 
     52 H           9.2033   26.2117   -7.0841 H         1 CNA401      0.0000 
     53 H          10.2780   27.4449   -7.8254 H         1 CNA401      0.0000 
     54 H           8.7276   23.1519  -10.4330 H         1 CNA401      0.0000 
     55 H          22.1625   26.9863  -16.0951 H         1 CNA401      0.0000 
     56 H          21.4951   27.0453  -14.4546 H         1 CNA401      0.0000 
     57 H          21.5113   29.4022  -16.3730 H         1 CNA401      0.0000 
     58 H          20.3045   29.0213  -13.7359 H         1 CNA401      0.0000 
     59 H          20.1028   30.3606  -14.8785 H         1 CNA401      0.0000 
     60 H          23.6193   28.2686  -15.0280 H         1 CNA401      0.0000 
     61 H          22.7278   28.7795  -12.9376 H         1 CNA401      0.0000 
     62 H          22.0319   31.4164  -14.1184 H         1 CNA401      0.0000 
     63 H          22.4452   29.4861  -11.1433 H         1 CNA401      0.0000 
     64 H          19.7727   30.1501   -7.8667 H         1 CNA401      0.0000 
     65 H          20.9220   29.2159   -6.8509 H         1 CNA401      0.0000 
     66 H          19.7405   31.6601   -8.7685 H         1 CNA401      0.0000 
     67 H          18.9333   32.8201  -10.7325 H         1 CNA401      0.0000 
     68 H          19.8763   32.3209  -12.9126 H         1 CNA401      0.0000 
     69 H          11.9137   24.8598  -15.5623 H         1 CNA401      0.0000 
     70 H          10.3047   27.0780  -15.6696 H         1 CNA401      0.0000 
     71 H          24.3928   29.7449  -16.3901 H         1 CNA401      0.0000 
     72 H          24.6648   30.5820  -13.8690 H         1 CNA401      0.0000 
@<TRIPOS>BOND
     1    2    1 ar   
     2    3    1 ar   
     3    4    1 1    
     4   23    1 1    
     5    5    4 1    
     6    6    5 1    
     7   45    5 1    
     8   46    5 1    
     9    7    6 1    
    10    8    6 1    
    11   47    6 1    
    12   12    7 1    
    13    9    8 1    
    14   10    8 1    
    15   48    8 1    
    16   69    9 1    
    17   11   10 1    
    18   12   10 1    
    19   49   10 1    
    20   70   11 1    
    21   13   12 1    
    22   50   12 1    
    23   14   13 1    
    24   22   13 1    
    25   15   14 2    
    26   51   14 1    
    27   16   15 1    
    28   17   16 ar   
    29   22   16 ar   
    30   18   17 1    
    31   19   17 ar   
    32   52   18 1    
    33   53   18 1    
    34   20   19 ar   
    35   21   20 ar   
    36   54   20 1    
    37   22   21 ar   
    38   24   23 1    
    39   25   24 ar   
    40   26   24 ar   
    41   27   24 1    
    42   28   27 1    
    43   29   28 1    
    44   55   28 1    
    45   56   28 1    
    46   30   29 1    
    47   31   29 1    
    48   57   29 1    
    49   35   30 1    
    50   58   30 1    
    51   59   30 1    
    52   32   31 1    
    53   33   31 1    
    54   60   31 1    
    55   71   32 1    
    56   34   33 1    
    57   35   33 1    
    58   61   33 1    
    59   72   34 1    
    60   36   35 1    
    61   62   35 1    
    62   37   36 ar   
    63   44   36 ar   
    64   38   37 ar   
    65   63   37 1    
    66   39   38 1    
    67   42   38 ar   
    68   40   39 2    
    69   41   39 am   
    70   64   41 1    
    71   65   41 1    
    72   43   42 ar   
    73   66   42 1    
    74   44   43 ar   
    75   67   43 1    
    76   68   44 1    
@<TRIPOS>SUBSTRUCTURE
     1 CNA401      1 GROUP   
@<TRIPOS>SET

