#    Name: 1z4u_PH9_1_INTS_M
#    Modification time : Mon Apr  7 16:25:35 2014

@<TRIPOS>MOLECULE
1z4u_PH9_1_INTS_M
   63     0     6     0     0
SMALL
NO_CHARGES


@<TRIPOS>ATOM
      1 CA        -14.4775   55.2905   48.3180 C.3       2 GLC5        0.0000 
      2 CA        -13.3020   56.8460   48.6600 C.3       6 GLL5        0.0000 
      3 CA        -15.6530   53.7350   47.9760 C.3       4 GLP5        0.0000 
      4 CA        -11.5465   58.2030   50.4095 C.3       2 GLC5        0.0000 
      5 CA        -12.2210   56.4890   49.5260 C.3       6 GLL5        0.0000 
      6 CA        -10.8720   59.9170   51.2930 C.3       4 GLP5        0.0000 
      7 CA         -7.4235   56.4020   47.1575 C.3       2 GLC5        0.0000 
      8 CA         -8.4160   54.7970   47.8060 C.3       6 GLL5        0.0000 
      9 CA         -6.4310   58.0070   46.5090 C.3       4 GLP5        0.0000 
     10 CA         -9.7635   56.2895   45.3905 C.3       2 GLC5        0.0000 
     11 CA         -9.5390   55.2420   47.1870 C.3       6 GLL5        0.0000 
     12 CA         -9.9880   57.3370   43.5940 C.3       4 GLP5        0.0000 
     13 CA         -9.2935   57.1810   47.2040 C.3       2 GLC5        0.0000 
     14 CA         -9.0480   59.1200   47.2210 C.3       4 GLP5        0.0000 
     15 N          -6.9635   57.5575   48.7960 N.am      1 SEC2        0.0000 
     16 N          -7.7860   56.9390   49.6670 N.am      5 SEL2        0.0000 
     17 N          -6.1410   58.1760   47.9250 N.am      3 SEP2        0.0000 
     18 N          -6.0685   53.8345   45.3795 N.am      1 SEC2        0.0000 
     19 N          -7.3810   54.5290   45.7200 N.am      5 SEL2        0.0000 
     20 N          -4.7560   53.1400   45.0390 N.am      3 SEP2        0.0000 
     21 N          -5.5320   53.4270   46.2545 N.am      1 SEC2        0.0000 
     22 N          -6.3080   53.7140   47.4700 N.am      5 SEL2        0.0000 
     23 CA        -14.1475   60.9750   52.7255 C.3       2 GLC5        0.0000 
     24 CA        -14.8730   59.2790   52.3570 C.3       6 GLL5        0.0000 
     25 CA        -13.4220   62.6710   53.0940 C.3       4 GLP5        0.0000 
     26 CA        -15.7935   59.5315   49.0415 C.3       2 GLC5        0.0000 
     27 CA        -14.1610   60.3490   49.7070 C.3       6 GLL5        0.0000 
     28 CA        -17.4260   58.7140   48.3760 C.3       4 GLP5        0.0000 
     29 CA        -12.5165   60.1330   50.5000 C.3       2 GLC5        0.0000 
     30 CA        -12.5315   60.4770   48.2715 C.3       2 GLC5        0.0000 
     31 CA        -10.9020   60.6050   46.8360 C.3       4 GLP5        0.0000 
     32 CA         -8.5265   55.9855   56.3830 C.3       2 GLC5        0.0000 
     33 CA         -8.5850   55.4740   54.3960 C.3       6 GLL5        0.0000 
     34 CA         -8.4680   56.4970   58.3700 C.3       4 GLP5        0.0000 
     35 CA         -6.2475   57.8620   51.1440 C.3       2 GLC5        0.0000 
     36 CA         -7.4020   56.5610   52.4290 C.3       6 GLL5        0.0000 
     37 CA         -5.0930   59.1630   49.8590 C.3       4 GLP5        0.0000 
     38 CA        -13.1825   55.7850   45.0525 C.3       2 GLC5        0.0000 
     39 CA        -11.8860   56.1380   46.7730 C.3       6 GLL5        0.0000 
     40 CA        -13.8620   55.1690   43.0860 C.3       4 GLP5        0.0000 
     41 CA        -13.9875   55.3090   46.6100 C.3       2 GLC5        0.0000 
     42 CA        -15.4720   54.2170   46.2010 C.3       4 GLP5        0.0000 
     43 CA        -16.5373   58.5553   51.3635 C.3       2 GLC5        0.0000 
     44 CA        -14.7360   57.6270   50.4940 C.3       6 GLL5        0.0000 
     45 CA        -18.3940   58.8060   51.9970 C.3       4 GLP5        0.0000 
     46 CA        -14.9300   61.3903   51.1893 C.3       2 GLC5        0.0000 
     47 CA        -14.6250   58.9820   50.9660 C.3       6 GLL5        0.0000 
     48 CA        -15.4670   63.1150   52.0420 C.3       4 GLP5        0.0000 
     49 CA        -12.8105   59.5237   51.4772 C.3       2 GLC5        0.0000 
     50 CA        -16.7197   58.7795   52.4062 C.3       2 GLC5        0.0000 
     51 CA        -16.4345   55.3203   52.5955 C.3       2 GLC5        0.0000 
     52 CA        -15.3290   56.8760   52.8170 C.3       6 GLL5        0.0000 
     53 CA        -17.6620   53.9100   53.0620 C.3       4 GLP5        0.0000 
     54 CA        -16.8005   57.7682   52.0630 C.3       2 GLC5        0.0000 
     55 CA        -16.1544   58.0794   49.7308 C.3       2 GLC5        0.0000 
     56 CA        -15.0850   56.5850   51.4410 C.3       6 GLL5        0.0000 
     57 CA        -10.5650   54.8440   54.9387 C.3       2 GLC5        0.0000 
     58 CA        -12.3870   54.8480   55.9200 C.3       4 GLP5        0.0000 
     59 CA         -6.0723   56.7948   55.2627 C.3       2 GLC5        0.0000 
     60 CA         -7.2410   56.1230   53.9180 C.3       6 GLL5        0.0000 
     61 CA         -5.4840   57.9900   56.5530 C.3       4 GLP5        0.0000 
     62 CA         -8.6962   57.8029   53.5175 C.3       2 GLC5        0.0000 
     63 CA         -9.7350   59.4260   53.7420 C.3       4 GLP5        0.0000 
@<TRIPOS>BOND
@<TRIPOS>SUBSTRUCTURE
     1 SEC2       15 GROUP        1 X    SEC  0     ROOT SEC X 2
     2 GLC5        1 GROUP        1 X    GLC  0     **** GLC X 6
     3 SEP2       17 GROUP        1 Y    SEP  0     ROOT SEP Y 9
     4 GLP5        3 GROUP        1 Y    GLP  0     **** GLP Y 13
     5 SEL2       16 GROUP        1 Z    SEL  0     ROOT SEL Z 16
     6 GLL5        2 GROUP        1 Z    GLL  0     **** GLL Z 20
@<TRIPOS>SET

