#    Name: 1z4u_PH9_1_ligand
#    Modification time : Mon Apr  7 16:25:35 2014

@<TRIPOS>MOLECULE
1z4u_PH9_1_ligand
   59    63     1     0     0
SMALL
NO_CHARGES


@<TRIPOS>ATOM
      1 CB2       -10.8320   55.7820   47.6710 C.ar      1 PH9600      0.0000 
      2 CB3       -11.8860   56.1380   46.7730 C.ar      1 PH9600      0.0000 
      3 CB4       -13.1200   56.6640   47.2650 C.ar      1 PH9600      0.0000 
      4 CB6       -13.3020   56.8460   48.6600 C.ar      1 PH9600      0.0000 
      5 CB5       -12.2210   56.4890   49.5260 C.ar      1 PH9600      0.0000 
      6 CB1       -11.0330   55.9750   49.0310 C.ar      1 PH9600      0.0000 
      7 C2         -8.4160   54.7970   47.8060 C.3       1 PH9600      0.0000 
      8 C1         -9.5390   55.2420   47.1870 C.3       1 PH9600      0.0000 
      9 N          -8.1930   54.7080   49.2050 N.am      1 PH9600      0.0000 
     10 C          -7.9010   55.7510   50.0280 C.2       1 PH9600      0.0000 
     11 CO2        -7.2790   54.3120   46.9520 C.2       1 PH9600      0.0000 
     12 O          -7.7860   56.9390   49.6670 O.2       1 PH9600      0.0000 
     13 OC1        -7.3810   54.5290   45.7200 O.co2     1 PH9600      0.0000 
     14 OC2        -6.3080   53.7140   47.4700 O.co2     1 PH9600      0.0000 
     15 OAB       -14.4880   57.3690   49.1480 O.3       1 PH9600      0.0000 
     16 CA1       -14.7360   57.6270   50.4940 C.ar      1 PH9600      0.0000 
     17 CA2       -14.6250   58.9820   50.9660 C.ar      1 PH9600      0.0000 
     18 CA3       -14.8730   59.2790   52.3570 C.ar      1 PH9600      0.0000 
     19 CA4       -15.2180   58.2270   53.2740 C.ar      1 PH9600      0.0000 
     20 CA5       -15.3290   56.8760   52.8170 C.ar      1 PH9600      0.0000 
     21 CA6       -15.0850   56.5850   51.4410 C.ar      1 PH9600      0.0000 
     22 BRA2      -14.1610   60.3490   49.7070 Br        1 PH9600      0.0000 
     23 CC4        -8.5850   55.4740   54.3960 C.3       1 PH9600      0.0000 
     24 CC3        -7.2410   56.1230   53.9180 C.3       1 PH9600      0.0000 
     25 CC5        -8.9010   54.2060   53.5190 C.3       1 PH9600      0.0000 
     26 CC2        -7.4020   56.5610   52.4290 C.3       1 PH9600      0.0000 
     27 CC6        -9.0480   54.6570   52.0300 C.3       1 PH9600      0.0000 
     28 CC1        -7.7300   55.3330   51.5000 C.3       1 PH9600      0.0000 
     29 C10        -7.7220   53.1640   53.6250 C.3       1 PH9600      0.0000 
     30 CC8        -6.3920   53.8240   53.1410 C.3       1 PH9600      0.0000 
     31 CC9        -6.0800   55.0760   54.0270 C.3       1 PH9600      0.0000 
     32 CC7        -6.5710   54.2770   51.6570 C.3       1 PH9600      0.0000 
     33 H         -11.7549   56.0147   45.7678 H         1 PH9600      0.0000 
     34 H         -13.8616   56.9054   46.6144 H         1 PH9600      0.0000 
     35 H         -12.3477   56.6249   50.5433 H         1 PH9600      0.0000 
     36 H         -10.2706   55.7268   49.6957 H         1 PH9600      0.0000 
     37 H          -7.8208   56.1082   47.7792 H         1 PH9600      0.0000 
     38 H          -9.2004   56.0411   46.3274 H         1 PH9600      0.0000 
     39 H          -9.8710   54.4014   46.3653 H         1 PH9600      0.0000 
     40 H          -8.2658   53.7285   49.6256 H         1 PH9600      0.0000 
     41 H         -14.8028   60.2356   52.6862 H         1 PH9600      0.0000 
     42 H         -15.3835   58.4476   54.2525 H         1 PH9600      0.0000 
     43 H         -15.5768   56.1388   53.4605 H         1 PH9600      0.0000 
     44 H         -15.1556   55.6206   51.1046 H         1 PH9600      0.0000 
     45 H          -9.3814   56.1854   54.2784 H         1 PH9600      0.0000 
     46 H          -8.4849   55.1711   55.4219 H         1 PH9600      0.0000 
     47 H          -7.0227   56.9606   54.5122 H         1 PH9600      0.0000 
     48 H          -9.7946   53.7644   53.8447 H         1 PH9600      0.0000 
     49 H          -6.4788   57.0140   52.0899 H         1 PH9600      0.0000 
     50 H          -8.2112   57.2766   52.3544 H         1 PH9600      0.0000 
     51 H          -9.8584   55.3712   51.9546 H         1 PH9600      0.0000 
     52 H          -9.2639   53.7907   51.4172 H         1 PH9600      0.0000 
     53 H          -7.9494   52.3209   52.9984 H         1 PH9600      0.0000 
     54 H          -7.6175   52.8646   54.6519 H         1 PH9600      0.0000 
     55 H          -5.6063   53.1336   53.2091 H         1 PH9600      0.0000 
     56 H          -5.9845   54.7645   55.0548 H         1 PH9600      0.0000 
     57 H          -5.1647   55.5308   53.6834 H         1 PH9600      0.0000 
     58 H          -5.6467   54.7246   51.3085 H         1 PH9600      0.0000 
     59 H          -6.8077   53.4116   51.0477 H         1 PH9600      0.0000 
@<TRIPOS>BOND
     1    2    1 ar   
     2    6    1 ar   
     3    8    1 1    
     4    3    2 ar   
     5   33    2 1    
     6    4    3 ar   
     7   34    3 1    
     8    5    4 ar   
     9   15    4 1    
    10    6    5 ar   
    11   35    5 1    
    12   36    6 1    
    13    8    7 1    
    14    9    7 1    
    15   11    7 1    
    16   37    7 1    
    17   38    8 1    
    18   39    8 1    
    19   10    9 am   
    20   40    9 1    
    21   12   10 2    
    22   28   10 1    
    23   13   11 ar   
    24   14   11 ar   
    25   16   15 1    
    26   17   16 ar   
    27   21   16 ar   
    28   18   17 ar   
    29   22   17 1    
    30   19   18 ar   
    31   41   18 1    
    32   20   19 ar   
    33   42   19 1    
    34   21   20 ar   
    35   43   20 1    
    36   44   21 1    
    37   24   23 1    
    38   25   23 1    
    39   45   23 1    
    40   46   23 1    
    41   26   24 1    
    42   31   24 1    
    43   47   24 1    
    44   27   25 1    
    45   29   25 1    
    46   48   25 1    
    47   28   26 1    
    48   49   26 1    
    49   50   26 1    
    50   28   27 1    
    51   51   27 1    
    52   52   27 1    
    53   32   28 1    
    54   30   29 1    
    55   53   29 1    
    56   54   29 1    
    57   31   30 1    
    58   32   30 1    
    59   55   30 1    
    60   56   31 1    
    61   57   31 1    
    62   58   32 1    
    63   59   32 1    
@<TRIPOS>SUBSTRUCTURE
     1 PH9600      1 GROUP   
@<TRIPOS>SET

