#    Name: 4l2x_YL2_1_INTS_M
#    Modification time : Tue Mar 25 09:46:19 2014

@<TRIPOS>MOLECULE
4l2x_YL2_1_INTS_M
   83     0    12     0     0
SMALL
NO_CHARGES


@<TRIPOS>ATOM
      1 NZ         16.3265   32.5665  -11.7180 N.4       2 LYC4        0.0000 
      2 NZ         16.2970   32.8230  -10.5310 N.4      10 LYL4        0.0000 
      3 NZ         16.3560   32.3100  -12.9050 N.4       6 LYP4        0.0000 
      4 N          16.3265   32.5665  -11.7180 N.am      1 SEC2        0.0000 
      5 N          16.2970   32.8230  -10.5310 N.am      9 SEL2        0.0000 
      6 N          16.3560   32.3100  -12.9050 N.am      5 SEP2        0.0000 
      7 Zn         18.4385   34.5200   -7.9720 Zn        3 ZIC7        0.0000 
      8 Zn         17.8390   33.9580   -8.7570 Zn       11 ZIL7        0.0000 
      9 Zn         19.0380   35.0820   -7.1870 Zn        7 ZIP7        0.0000 
     10 Zn         18.6330   33.3070   -9.0055 Zn        3 ZIC7        0.0000 
     11 Zn         19.4270   32.6560   -9.2540 Zn        7 ZIP7        0.0000 
     12 NZ         16.4670   33.7175  -11.7915 N.4       2 LYC4        0.0000 
     13 NZ         16.5780   35.1250  -10.6780 N.4      10 LYL4        0.0000 
     14 Zn         16.0230   35.9715  -10.4195 Zn        3 ZIC7        0.0000 
     15 Zn         16.5780   35.1250  -10.6780 Zn       11 ZIL7        0.0000 
     16 Zn         15.4680   36.8180  -10.1610 Zn        7 ZIP7        0.0000 
     17 NZ         14.4650   35.8360   -5.0055 N.4       2 LYC4        0.0000 
     18 NZ         14.5830   35.6070   -6.1410 N.4      10 LYL4        0.0000 
     19 NZ         15.4940   35.8450   -3.2810 N.4       6 LYP4        0.0000 
     20 NZ         13.7710   36.8540   -6.5125 N.4       2 LYC4        0.0000 
     21 NZ         12.9590   38.1010   -6.8840 N.4       6 LYP4        0.0000 
     22 N          14.4650   35.8360   -5.0055 N.am      1 SEC2        0.0000 
     23 N          14.5830   35.6070   -6.1410 N.am      9 SEL2        0.0000 
     24 N          14.3470   36.0650   -3.8700 N.am      5 SEP2        0.0000 
     25 N          15.5465   35.5020   -5.0810 N.am      1 SEC2        0.0000 
     26 N          16.5100   35.3970   -4.0210 N.am      5 SEP2        0.0000 
     27 N          13.7710   36.8540   -6.5125 N.am      1 SEC2        0.0000 
     28 N          12.9590   38.1010   -6.8840 N.am      5 SEP2        0.0000 
     29 NZ         16.6835   35.4500   -5.3095 N.4       2 LYC4        0.0000 
     30 NZ         16.8570   35.5030   -6.5980 N.4      10 LYL4        0.0000 
     31 Zn         17.9475   35.2925   -6.8925 Zn        3 ZIC7        0.0000 
     32 Zn         16.8570   35.5030   -6.5980 Zn       11 ZIL7        0.0000 
     33 N          16.6835   35.4500   -5.3095 N.am      1 SEC2        0.0000 
     34 N          16.8570   35.5030   -6.5980 N.am      9 SEL2        0.0000 
     35 NZ         14.2075   37.3280   -7.6695 N.4       2 LYC4        0.0000 
     36 NZ         15.4560   36.5550   -8.4550 N.4      10 LYL4        0.0000 
     37 Zn         15.4620   36.6865   -9.3080 Zn        3 ZIC7        0.0000 
     38 Zn         15.4560   36.5550   -8.4550 Zn       11 ZIL7        0.0000 
     39 CA         11.7365   30.3425  -10.9880 C.3       4 GLC5        0.0000 
     40 CA         12.8250   31.1210   -9.6230 C.3      12 GLL5        0.0000 
     41 CA         10.6480   29.5640  -12.3530 C.3       8 GLP5        0.0000 
     42 CA         15.0500   29.6990  -10.7355 C.3       4 GLC5        0.0000 
     43 CA         14.2920   29.5450   -8.6820 C.3      12 GLL5        0.0000 
     44 CA         15.8080   29.8530  -12.7890 C.3       8 GLP5        0.0000 
     45 CA         14.5660   26.3050   -8.3470 C.3       4 GLC5        0.0000 
     46 CA         15.0400   28.0720   -8.3880 C.3      12 GLL5        0.0000 
     47 CA         14.0920   24.5380   -8.3060 C.3       8 GLP5        0.0000 
     48 CA         15.1205   27.7710  -10.4305 C.3       4 GLC5        0.0000 
     49 CA         15.2010   27.4700  -12.4730 C.3       8 GLP5        0.0000 
     50 CA         18.7935   27.1910   -8.0390 C.3       4 GLC5        0.0000 
     51 CA         17.0040   27.7080   -6.7980 C.3      12 GLL5        0.0000 
     52 CA         20.5830   26.6740   -9.2800 C.3       8 GLP5        0.0000 
     53 CA         17.2860   27.2760   -3.8400 C.3       4 GLC5        0.0000 
     54 CA         18.5750   26.9740   -5.1170 C.3      12 GLL5        0.0000 
     55 CA         15.9970   27.5780   -2.5630 C.3       8 GLP5        0.0000 
     56 CA         18.1805   23.7110   -8.1550 C.3       4 GLC5        0.0000 
     57 CA         18.2050   25.5770   -6.9840 C.3      12 GLL5        0.0000 
     58 CA         18.1560   21.8450   -9.3260 C.3       8 GLP5        0.0000 
     59 CA         20.4830   26.1060   -2.6250 C.3       4 GLC5        0.0000 
     60 CA         20.0750   24.5770   -3.9740 C.3      12 GLL5        0.0000 
     61 CA         20.8910   27.6350   -1.2760 C.3       8 GLP5        0.0000 
     62 CA         15.4930   28.3995   -5.4763 C.3       4 GLC5        0.0000 
     63 CA         16.1000   28.5790   -7.3480 C.3      12 GLL5        0.0000 
     64 CA         14.9600   27.5440   -3.6720 C.3       8 GLP5        0.0000 
     65 CA         17.4920   30.2025   -6.2242 C.3       4 GLC5        0.0000 
     66 CA         18.9580   31.1500   -5.1680 C.3       8 GLP5        0.0000 
     67 CA         16.1510   27.6777   -4.9375 C.3       4 GLC5        0.0000 
     68 CA         17.6800   27.9150   -5.6080 C.3      12 GLL5        0.0000 
     69 CA         18.4582   29.2714   -5.4140 C.3       4 GLC5        0.0000 
     70 CA         15.9238   25.2923   -7.7662 C.3       4 GLC5        0.0000 
     71 CA         17.3060   26.5160   -7.4690 C.3      12 GLL5        0.0000 
     72 CA         18.6987   25.8663   -8.6088 C.3       4 GLC5        0.0000 
     73 CA         19.6420   25.6860   -9.9910 C.3       8 GLP5        0.0000 
     74 CA         19.9467   25.9907   -7.4348 C.3       4 GLC5        0.0000 
     75 CA         18.8450   25.7990   -5.7990 C.3      12 GLL5        0.0000 
     76 CA         17.4877   24.6860   -4.6050 C.3       4 GLC5        0.0000 
     77 CA         19.7760   24.8160   -5.3800 C.3      12 GLL5        0.0000 
     78 CA         15.4650   25.0990   -4.1650 C.3       8 GLP5        0.0000 
     79 CA         18.8717   22.7010   -5.9825 C.3       4 GLC5        0.0000 
     80 CA         19.2450   23.7300   -4.7100 C.3      12 GLL5        0.0000 
     81 CA         18.2330   21.1290   -6.9200 C.3       8 GLP5        0.0000 
     82 CA         18.6110   23.3173   -2.8460 C.3       4 GLC5        0.0000 
     83 CA         17.5620   22.4810   -1.3500 C.3       8 GLP5        0.0000 
@<TRIPOS>BOND
@<TRIPOS>SUBSTRUCTURE
     1 SEC2        4 GROUP        1 X    SEC  0     ROOT SEC X 2
     2 LYC4        1 GROUP        1 X    LYC  0     **** LYC X 4
     3 ZIC7        7 GROUP        1 X    ZIC  0     **** ZIC X 5
     4 GLC5       39 GROUP        1 X    GLC  0     **** GLC X 6
     5 SEP2        6 GROUP        1 Y    SEP  0     ROOT SEP Y 9
     6 LYP4        3 GROUP        1 Y    LYP  0     **** LYP Y 11
     7 ZIP7        9 GROUP        1 Y    ZIP  0     **** ZIP Y 12
     8 GLP5       41 GROUP        1 Y    GLP  0     **** GLP Y 13
     9 SEL2        5 GROUP        1 Z    SEL  0     ROOT SEL Z 16
    10 LYL4        2 GROUP        1 Z    LYL  0     **** LYL Z 18
    11 ZIL7        8 GROUP        1 Z    ZIL  0     **** ZIL Z 19
    12 GLL5       40 GROUP        1 Z    GLL  0     **** GLL Z 20
@<TRIPOS>SET

