#    Name: 4l2x_YL2_1_ligand
#    Modification time : Tue Mar 25 09:46:19 2014

@<TRIPOS>MOLECULE
4l2x_YL2_1_ligand
   41    44     1     0     0
SMALL
NO_CHARGES


@<TRIPOS>ATOM
      1 OAU        16.2970   32.8230  -10.5310 O.co2     1 YL2401      0.0000 
      2 PAS        16.5970   33.9440   -9.6000 P.3       1 YL2401      0.0000 
      3 OAV        17.8390   33.9580   -8.7570 O.co2     1 YL2401      0.0000 
      4 OAW        16.5780   35.1250  -10.6780 O.co2     1 YL2401      0.0000 
      5 CAR        15.2270   34.0860   -8.3490 C.3       1 YL2401      0.0000 
      6 PAT        15.5880   35.6040   -7.3550 P.3       1 YL2401      0.0000 
      7 OAX        14.5830   35.6070   -6.1410 O.co2     1 YL2401      0.0000 
      8 OAZ        16.8570   35.5030   -6.5980 O.co2     1 YL2401      0.0000 
      9 OAY        15.4560   36.5550   -8.4550 O.co2     1 YL2401      0.0000 
     10 NAJ        15.0460   32.8310   -7.5130 N.pl3     1 YL2401      0.0000 
     11 C4         14.4800   31.7810   -8.1180 C.ar      1 YL2401      0.0000 
     12 N3         13.4860   32.0900   -8.9230 N.ar      1 YL2401      0.0000 
     13 C2         12.8250   31.1210   -9.6230 C.ar      1 YL2401      0.0000 
     14 N1         13.2660   29.8310   -9.5000 N.ar      1 YL2401      0.0000 
     15 C6         14.2920   29.5450   -8.6820 C.ar      1 YL2401      0.0000 
     16 SAE        15.0400   28.0720   -8.3880 S.3       1 YL2401      0.0000 
     17 C5         14.9370   30.4940   -7.9650 C.ar      1 YL2401      0.0000 
     18 CAC        15.9520   29.9310   -7.2130 C.2       1 YL2401      0.0000 
     19 CAD        16.1000   28.5790   -7.3480 C.2       1 YL2401      0.0000 
     20 CAK        17.0040   27.7080   -6.7980 C.ar      1 YL2401      0.0000 
     21 CAP        17.6800   27.9150   -5.6080 C.ar      1 YL2401      0.0000 
     22 CAO        18.5750   26.9740   -5.1170 C.ar      1 YL2401      0.0000 
     23 CAL        17.3060   26.5160   -7.4690 C.ar      1 YL2401      0.0000 
     24 CAM        18.2050   25.5770   -6.9840 C.ar      1 YL2401      0.0000 
     25 CAN        18.8450   25.7990   -5.7990 C.ar      1 YL2401      0.0000 
     26 CAQ        19.7760   24.8160   -5.3800 C.3       1 YL2401      0.0000 
     27 CBA        20.0750   24.5770   -3.9740 C.3       1 YL2401      0.0000 
     28 CBB        19.2450   23.7300   -4.7100 C.3       1 YL2401      0.0000 
     29 H          14.3975   34.3755   -8.9417 H         1 YL2401      0.0000 
     30 H          15.3614   32.8745   -6.5693 H         1 YL2401      0.0000 
     31 H          12.0281   31.3500  -10.2187 H         1 YL2401      0.0000 
     32 H          16.5342   30.4831   -6.6131 H         1 YL2401      0.0000 
     33 H          17.5162   28.7885   -5.0719 H         1 YL2401      0.0000 
     34 H          19.0558   27.1579   -4.2111 H         1 YL2401      0.0000 
     35 H          16.8255   26.3290   -8.3837 H         1 YL2401      0.0000 
     36 H          18.3823   24.7165   -7.5251 H         1 YL2401      0.0000 
     37 H          20.5648   24.4955   -5.8992 H         1 YL2401      0.0000 
     38 H          19.5610   25.1911   -3.4369 H         1 YL2401      0.0000 
     39 H          20.9667   24.2173   -3.9014 H         1 YL2401      0.0000 
     40 H          19.7066   22.8960   -4.9446 H         1 YL2401      0.0000 
     41 H          18.3009   23.8699   -4.4801 H         1 YL2401      0.0000 
@<TRIPOS>BOND
     1    2    1 ar   
     2    3    2 ar   
     3    4    2 ar   
     4    5    2 1    
     5    6    5 1    
     6   10    5 1    
     7   29    5 1    
     8    7    6 ar   
     9    8    6 ar   
    10    9    6 ar   
    11   11   10 1    
    12   30   10 1    
    13   12   11 ar   
    14   17   11 ar   
    15   13   12 ar   
    16   14   13 ar   
    17   31   13 1    
    18   15   14 ar   
    19   16   15 1    
    20   17   15 ar   
    21   19   16 1    
    22   18   17 1    
    23   19   18 2    
    24   32   18 1    
    25   20   19 1    
    26   21   20 ar   
    27   23   20 ar   
    28   22   21 ar   
    29   33   21 1    
    30   25   22 ar   
    31   34   22 1    
    32   24   23 ar   
    33   35   23 1    
    34   25   24 ar   
    35   36   24 1    
    36   26   25 1    
    37   27   26 1    
    38   28   26 1    
    39   37   26 1    
    40   28   27 1    
    41   38   27 1    
    42   39   27 1    
    43   40   28 1    
    44   41   28 1    
@<TRIPOS>SUBSTRUCTURE
     1 YL2401      1 GROUP   
@<TRIPOS>SET

