#    Name: 3SFF_1_CAVITY_N1_6.mol2
#    Modification time : Mon Mar 10 23:46:56 2014

@<TRIPOS>MOLECULE
3SFF_1_CAVITY_N1_6.mol2
   82     0     6     0     0
SMALL
NO_CHARGES


@<TRIPOS>ATOM
      1 CZ         14.1802   12.5314  -24.4069 C.ar      4 PHE5        0.0000 
      2 CA         12.7173   12.4829  -24.0792 C.3       5 GLY6        0.0000 
      3 CZ         12.5294   13.8264  -24.7193 C.ar      4 PHE5        0.0000 
      4 CZ         12.3415   15.1700  -25.3593 C.ar      4 PHE5        0.0000 
      5 CZ         12.1536   16.5135  -25.9994 C.ar      4 PHE5        0.0000 
      6 CZ         11.9656   17.8570  -26.6395 C.ar      4 PHE5        0.0000 
      7 CA         12.4445   11.8176  -25.3956 C.3       5 GLY6        0.0000 
      8 DU         12.2566   13.1611  -26.0357 H         6 CUB7        0.0000 
      9 DU         12.0687   14.5046  -26.6758 H         6 CUB7        0.0000 
     10 CA         11.8808   15.8481  -27.3158 C.3       5 GLY6        0.0000 
     11 CA         11.6929   17.1917  -27.9559 C.3       5 GLY6        0.0000 
     12 CZ         11.9838   12.4958  -27.3521 C.ar      4 PHE5        0.0000 
     13 CA         11.7959   13.8393  -27.9922 C.3       5 GLY6        0.0000 
     14 CA         11.6080   15.1828  -28.6322 C.3       5 GLY6        0.0000 
     15 O          12.4303   17.1045  -17.8095 O.2       2 ALA2        0.0000 
     16 CA         12.1576   16.4392  -19.1259 C.3       5 GLY6        0.0000 
     17 CA         11.2543   12.4344  -23.7515 C.3       5 GLY6        0.0000 
     18 CZ         11.0664   13.7779  -24.3916 C.ar      4 PHE5        0.0000 
     19 CZ         10.8785   15.1214  -25.0317 C.ar      4 PHE5        0.0000 
     20 CZ         10.6906   16.4649  -25.6717 C.ar      4 PHE5        0.0000 
     21 CA         10.9815   11.7691  -25.0680 C.3       5 GLY6        0.0000 
     22 CZ         10.7936   13.1126  -25.7080 C.ar      4 PHE5        0.0000 
     23 N          10.6057   14.4561  -26.3481 N.2       2 ALA2        0.0000 
     24 CA         10.4178   15.7996  -26.9881 C.3       5 GLY6        0.0000 
     25 CZ         10.5208   12.4473  -27.0244 C.ar      4 PHE5        0.0000 
     26 N          10.3329   13.7908  -27.6645 N.2       2 ALA2        0.0000 
     27 N          10.1450   15.1343  -28.3046 N.2       2 ALA2        0.0000 
     28 O          11.4281   16.3778  -15.5254 O.2       2 ALA2        0.0000 
     29 O          11.2402   17.7213  -16.1654 O.2       2 ALA2        0.0000 
     30 N          11.3432   14.3690  -16.2017 N.2       2 ALA2        0.0000 
     31 CZ         11.1553   15.7125  -16.8418 C.ar      4 PHE5        0.0000 
     32 O          10.9674   17.0560  -17.4819 O.2       2 ALA2        0.0000 
     33 O          10.7795   18.3995  -18.1219 O.2       2 ALA2        0.0000 
     34 CA         10.8825   15.0472  -18.1582 C.3       5 GLY6        0.0000 
     35 CA         10.6946   16.3907  -18.7983 C.3       5 GLY6        0.0000 
     36 OG         10.5067   17.7342  -19.4383 O.2       1 SER1        0.0000 
     37 CZ         10.4218   15.7254  -20.1147 C.ar      4 PHE5        0.0000 
     38 N           9.6034   13.7294  -24.0639 N.2       2 ALA2        0.0000 
     39 OG          9.4155   15.0729  -24.7040 O.2       1 SER1        0.0000 
     40 CA          9.2276   16.4164  -25.3441 C.3       5 GLY6        0.0000 
     41 CA          9.5185   11.7206  -24.7403 C.3       5 GLY6        0.0000 
     42 N           9.3306   13.0641  -25.3803 N.2       2 ALA2        0.0000 
     43 CA          9.1427   14.4076  -26.0204 C.3       5 GLY6        0.0000 
     44 CZ          9.0578   12.3988  -26.6968 C.ar      4 PHE5        0.0000 
     45 CZ          9.9651   16.3293  -15.1977 C.ar      4 PHE5        0.0000 
     46 CZ          9.2316   16.3422  -18.4706 C.ar      4 PHE5        0.0000 
     47 CZ          9.0437   17.6857  -19.1107 C.ar      4 PHE5        0.0000 
     48 CZ          8.9588   15.6768  -19.7870 C.ar      4 PHE5        0.0000 
     49 OG          8.7709   17.0204  -20.4271 O.2       1 SER1        0.0000 
     50 N           8.8739   13.6680  -20.4634 N.2       2 ALA2        0.0000 
     51 OG          8.6860   15.0115  -21.1034 O.2       1 SER1        0.0000 
     52 OG          8.4981   16.3550  -21.7435 O.2       1 SER1        0.0000 
     53 N           8.4133   14.3462  -22.4198 N.2       2 ALA2        0.0000 
     54 OG          8.2253   15.6897  -23.0599 O.2       1 SER1        0.0000 
     55 CZ          8.0374   17.0332  -23.7000 C.ar      4 PHE5        0.0000 
     56 N           8.1405   13.6809  -23.7363 N.2       2 ALA2        0.0000 
     57 CA          7.9526   15.0244  -24.3763 C.3       5 GLY6        0.0000 
     58 CA          7.7646   16.3679  -25.0164 C.3       5 GLY6        0.0000 
     59 N           7.8677   13.0156  -25.0527 N.2       2 ALA2        0.0000 
     60 CZ          8.6052   12.9284  -14.9063 C.ar      4 PHE5        0.0000 
     61 CA          7.5807   17.6372  -18.7830 C.3       5 GLY6        0.0000 
     62 CZ          7.4959   15.6283  -19.4593 C.ar      4 PHE5        0.0000 
     63 CZ          7.3080   16.9718  -20.0994 C.ar      4 PHE5        0.0000 
     64 CZ          7.1200   18.3154  -20.7395 C.ar      4 PHE5        0.0000 
     65 CZ          7.4110   13.6195  -20.1357 C.ar      4 PHE5        0.0000 
     66 CZ          7.2231   14.9630  -20.7757 C.ar      4 PHE5        0.0000 
     67 CA          7.0352   16.3065  -21.4158 C.3       5 GLY6        0.0000 
     68 CA          6.8473   17.6500  -22.0559 C.3       5 GLY6        0.0000 
     69 N           7.1382   12.9542  -21.4521 N.2       2 ALA2        0.0000 
     70 DU          6.9503   14.2977  -22.0922 H         6 CUB7        0.0000 
     71 CA          6.7624   15.6412  -22.7322 C.3       5 GLY6        0.0000 
     72 CA          6.5745   16.9847  -23.3723 C.3       5 GLY6        0.0000 
     73 CA          6.8654   12.2889  -22.7685 C.3       5 GLY6        0.0000 
     74 OD1         6.6775   13.6324  -23.4086 O.3       3 ASP3        0.0000 
     75 O           6.1178   17.5887  -18.4553 O.2       2 ALA2        0.0000 
     76 CZ          6.0329   15.5798  -19.1317 C.ar      4 PHE5        0.0000 
     77 N           5.8450   16.9233  -19.7717 N.2       2 ALA2        0.0000 
     78 CZ          5.9480   13.5710  -19.8080 C.ar      4 PHE5        0.0000 
     79 O           5.7601   14.9145  -20.4481 O.2       2 ALA2        0.0000 
     80 CA          5.6752   12.9057  -21.1244 C.3       5 GLY6        0.0000 
     81 O           5.4873   14.2492  -21.7645 O.2       2 ALA2        0.0000 
     82 OD1         5.2145   13.5839  -23.0809 O.3       3 ASP3        0.0000 
@<TRIPOS>BOND
@<TRIPOS>SUBSTRUCTURE
     1 SER1       36 GROUP   
     2 ALA2       15 GROUP   
     3 ASP3       74 GROUP   
     4 PHE5        1 GROUP   
     5 GLY6        2 GROUP   
     6 CUB7        8 GROUP   
@<TRIPOS>SET

