#    Name: 3sff_0DI_1_INTS_M
#    Modification time : Tue Mar 25 12:33:24 2014

@<TRIPOS>MOLECULE
3sff_0DI_1_INTS_M
   63     0     6     0     0
SMALL
NO_CHARGES


@<TRIPOS>ATOM
      1 CA          8.5120   13.0780  -27.3285 C.3       2 GLC5        0.0000 
      2 CA         10.0800   13.0350  -25.9630 C.3       6 GLL5        0.0000 
      3 CA          6.9440   13.1210  -28.6940 C.3       4 GLP5        0.0000 
      4 CA         14.6235   12.3070  -22.7445 C.3       2 GLC5        0.0000 
      5 CA         14.3950   10.5630  -23.7870 C.3       6 GLL5        0.0000 
      6 CA         14.8520   14.0510  -21.7020 C.3       4 GLP5        0.0000 
      7 Zn          5.6550   15.3420  -24.8650 Zn        1 ZIC7        0.0000 
      8 Zn          6.7760   15.7730  -24.1880 Zn        5 ZIL7        0.0000 
      9 Zn          4.5340   14.9110  -25.5420 Zn        3 ZIP7        0.0000 
     10 CA          7.6115   19.0100  -19.0000 C.3       2 GLC5        0.0000 
     11 CA          7.2110   17.2190  -19.4190 C.3       6 GLL5        0.0000 
     12 CA          8.0120   20.8010  -18.5810 C.3       4 GLP5        0.0000 
     13 CA          7.5045   16.1475  -17.9295 C.3       2 GLC5        0.0000 
     14 CA          7.7980   15.0760  -16.4400 C.3       4 GLP5        0.0000 
     15 CA          8.2875   18.3205  -20.6145 C.3       2 GLC5        0.0000 
     16 CA          9.3640   19.4220  -21.8100 C.3       4 GLP5        0.0000 
     17 CA          8.4385   11.5435  -24.2150 C.3       2 GLC5        0.0000 
     18 CA          9.2970   13.1780  -24.6410 C.3       6 GLL5        0.0000 
     19 CA          7.5800    9.9090  -23.7890 C.3       4 GLP5        0.0000 
     20 CA         10.7270   13.9160  -23.2015 C.3       2 GLC5        0.0000 
     21 CA         12.1570   14.6540  -21.7620 C.3       4 GLP5        0.0000 
     22 CA         11.2580   15.4435  -23.8065 C.3       2 GLC5        0.0000 
     23 CA          9.4820   15.6600  -24.9240 C.3       6 GLL5        0.0000 
     24 CA         13.0340   15.2270  -22.6890 C.3       4 GLP5        0.0000 
     25 CA          9.8655   17.2000  -23.7755 C.3       2 GLC5        0.0000 
     26 CA         10.2490   18.7400  -22.6270 C.3       4 GLP5        0.0000 
     27 Zn          4.7325   14.3415  -24.7115 Zn        1 ZIC7        0.0000 
     28 Zn          4.9310   13.7720  -23.8810 Zn        5 ZIL7        0.0000 
     29 CA          6.1115   13.2670  -25.8400 C.3       2 GLC5        0.0000 
     30 CA          6.3740   13.4740  -23.7800 C.3       6 GLL5        0.0000 
     31 CA          5.8490   13.0600  -27.9000 C.3       4 GLP5        0.0000 
     32 CA          4.7925   16.3325  -20.7085 C.3       2 GLC5        0.0000 
     33 CA          5.3370   15.2550  -19.0020 C.3       6 GLL5        0.0000 
     34 CA          4.2480   17.4100  -22.4150 C.3       4 GLP5        0.0000 
     35 CA          4.4560   11.7900  -21.6410 C.3       2 GLC5        0.0000 
     36 CA          5.1450   13.2810  -20.4550 C.3       6 GLL5        0.0000 
     37 CA          3.7670   10.2990  -22.8270 C.3       4 GLP5        0.0000 
     38 CA         10.5153   11.5347  -24.1610 C.3       2 GLC5        0.0000 
     39 CA         11.3420    9.9630  -23.0200 C.3       4 GLP5        0.0000 
     40 CA          9.7578   11.5233  -26.3820 C.3       2 GLC5        0.0000 
     41 CA          9.8270    9.9400  -27.4620 C.3       4 GLP5        0.0000 
     42 CA          5.5340   16.9393  -21.0050 C.3       2 GLC5        0.0000 
     43 CA          6.4290   15.7180  -19.7710 C.3       6 GLL5        0.0000 
     44 CA          9.3373   16.8925  -26.9473 C.3       2 GLC5        0.0000 
     45 CA         10.1730   15.4920  -26.2970 C.3       6 GLL5        0.0000 
     46 CA          8.8470   18.2090  -28.2840 C.3       4 GLP5        0.0000 
     47 CA          5.1750   11.7505  -22.9548 C.3       2 GLC5        0.0000 
     48 CA          7.0815   11.5555  -23.4358 C.3       2 GLC5        0.0000 
     49 CA          6.7920   12.9300  -22.3850 C.3       6 GLL5        0.0000 
     50 CA          5.4235   15.8680  -21.7157 C.3       2 GLC5        0.0000 
     51 CA          6.2650   13.7250  -21.2040 C.3       6 GLL5        0.0000 
     52 CA          4.5333   12.0512  -18.9473 C.3       2 GLC5        0.0000 
     53 CA          4.7060   14.0400  -19.3400 C.3       6 GLL5        0.0000 
     54 CA          4.1410   10.4420  -17.9970 C.3       4 GLP5        0.0000 
     55 CA          6.5414   11.7061  -20.5019 C.3       2 GLC5        0.0000 
     56 CA          7.2460   10.1080  -19.8790 C.3       4 GLP5        0.0000 
     57 CA          3.3636   14.8371  -20.0045 C.3       2 GLC5        0.0000 
     58 CA          1.6440   15.7100  -20.1960 C.3       4 GLP5        0.0000 
     59 CA         12.3464   11.3731  -28.6810 C.3       2 GLC5        0.0000 
     60 CA         13.5980   12.3670  -27.4580 C.3       6 GLL5        0.0000 
     61 CA         10.7750   10.8280  -29.6290 C.3       4 GLP5        0.0000 
     62 CA         12.5746   10.7852  -23.8590 C.3       2 GLC5        0.0000 
     63 CA         13.3590   12.3550  -25.0150 C.3       6 GLL5        0.0000 
@<TRIPOS>BOND
@<TRIPOS>SUBSTRUCTURE
     1 ZIC7        7 GROUP        1 X    ZIC  0     ROOT ZIC X 5
     2 GLC5        1 GROUP        1 X    GLC  0     **** GLC X 6
     3 ZIP7        9 GROUP        1 Y    ZIP  0     ROOT ZIP Y 12
     4 GLP5        3 GROUP        1 Y    GLP  0     **** GLP Y 13
     5 ZIL7        8 GROUP        1 Z    ZIL  0     ROOT ZIL Z 19
     6 GLL5        2 GROUP        1 Z    GLL  0     **** GLL Z 20
@<TRIPOS>SET

