#    Name: 3sff_0DI_1_ligand
#    Modification time : Tue Mar 25 12:33:24 2014

@<TRIPOS>MOLECULE
3sff_0DI_1_ligand
   48    50     1     0     0
SMALL
NO_CHARGES


@<TRIPOS>ATOM
      1 C1         10.0800   13.0350  -25.9630 C.3       1 0DI378      0.0000 
      2 F1         14.3950   10.5630  -23.7870 F         1 0DI378      0.0000 
      3 N1         10.9380   14.2270  -26.2280 N.am      1 0DI378      0.0000 
      4 O1          6.7760   15.7730  -24.1880 O.2       1 0DI378      0.0000 
      5 CL1         7.2110   17.2190  -19.4190 Cl        1 0DI378      0.0000 
      6 C2          9.2970   13.1780  -24.6410 C.3       1 0DI378      0.0000 
      7 F2         13.3450   12.9500  -28.6500 F         1 0DI378      0.0000 
      8 N2          8.6060   14.5030  -24.5790 N.am      1 0DI378      0.0000 
      9 O2         12.9590   15.2490  -26.5970 O.2       1 0DI378      0.0000 
     10 C3          9.4820   15.6600  -24.9240 C.3       1 0DI378      0.0000 
     11 N3          4.9310   13.7720  -23.8810 N.3       1 0DI378      0.0000 
     12 C4         10.1730   15.4920  -26.2970 C.3       1 0DI378      0.0000 
     13 C5          7.3000   14.6490  -24.2020 C.2       1 0DI378      0.0000 
     14 C6          6.3740   13.4740  -23.7800 C.3       1 0DI378      0.0000 
     15 C7          6.7920   12.9300  -22.3850 C.3       1 0DI378      0.0000 
     16 C8          6.2650   13.7250  -21.2040 C.ar      1 0DI378      0.0000 
     17 C9          6.9330   14.9270  -20.8290 C.ar      1 0DI378      0.0000 
     18 C10         6.4290   15.7180  -19.7710 C.ar      1 0DI378      0.0000 
     19 C11         5.3370   15.2550  -19.0020 C.ar      1 0DI378      0.0000 
     20 C12         4.7060   14.0400  -19.3400 C.ar      1 0DI378      0.0000 
     21 C13         5.1450   13.2810  -20.4550 C.ar      1 0DI378      0.0000 
     22 C14        12.3020   14.2300  -26.3640 C.2       1 0DI378      0.0000 
     23 C15        13.0870   12.9520  -26.2770 C.ar      1 0DI378      0.0000 
     24 C16        13.5980   12.3670  -27.4580 C.ar      1 0DI378      0.0000 
     25 C17        14.3640   11.1780  -27.4120 C.ar      1 0DI378      0.0000 
     26 C18        14.5960   10.5650  -26.1670 C.ar      1 0DI378      0.0000 
     27 C19        14.1160   11.1570  -24.9750 C.ar      1 0DI378      0.0000 
     28 C20        13.3590   12.3550  -25.0150 C.ar      1 0DI378      0.0000 
     29 H          10.6951   12.1314  -25.9009 H         1 0DI378      0.0000 
     30 H           9.3587   12.8989  -26.7754 H         1 0DI378      0.0000 
     31 H           9.9987   13.0784  -23.8130 H         1 0DI378      0.0000 
     32 H           8.5691   12.3689  -24.5830 H         1 0DI378      0.0000 
     33 H          10.2636   15.7850  -24.1625 H         1 0DI378      0.0000 
     34 H           8.8938   16.5872  -24.9500 H         1 0DI378      0.0000 
     35 H           9.4140   15.4445  -27.0556 H         1 0DI378      0.0000 
     36 H          10.8254   16.3309  -26.4538 H         1 0DI378      0.0000 
     37 H           6.6113   12.6376  -24.5008 H         1 0DI378      0.0000 
     38 H           7.8959   12.9010  -22.3460 H         1 0DI378      0.0000 
     39 H           6.4456   11.8836  -22.3082 H         1 0DI378      0.0000 
     40 H           7.7751   15.2124  -21.3275 H         1 0DI378      0.0000 
     41 H           5.0074   15.7994  -18.2049 H         1 0DI378      0.0000 
     42 H           3.9208   13.6983  -18.7757 H         1 0DI378      0.0000 
     43 H           4.6617   12.4270  -20.7149 H         1 0DI378      0.0000 
     44 H          14.7382   10.7770  -28.2649 H         1 0DI378      0.0000 
     45 H          15.1161    9.6831  -26.1196 H         1 0DI378      0.0000 
     46 H          13.0181   12.7785  -24.1639 H         1 0DI378      0.0000 
     47 H           4.5713   14.1590  -23.0320 H         1 0DI378      0.0000 
     48 H           4.3953   12.9512  -24.0790 H         1 0DI378      0.0000 
@<TRIPOS>BOND
     1    3    1 1    
     2    6    1 1    
     3   29    1 1    
     4   30    1 1    
     5   27    2 1    
     6   12    3 1    
     7   22    3 am   
     8   13    4 2    
     9   18    5 1    
    10    8    6 1    
    11   31    6 1    
    12   32    6 1    
    13   24    7 1    
    14   10    8 1    
    15   13    8 am   
    16   22    9 2    
    17   12   10 1    
    18   33   10 1    
    19   34   10 1    
    20   14   11 1    
    21   47   11 1    
    22   48   11 1    
    23   35   12 1    
    24   36   12 1    
    25   14   13 1    
    26   15   14 1    
    27   37   14 1    
    28   16   15 1    
    29   38   15 1    
    30   39   15 1    
    31   17   16 ar   
    32   21   16 ar   
    33   18   17 ar   
    34   40   17 1    
    35   19   18 ar   
    36   20   19 ar   
    37   41   19 1    
    38   21   20 ar   
    39   42   20 1    
    40   43   21 1    
    41   23   22 1    
    42   24   23 ar   
    43   28   23 ar   
    44   25   24 ar   
    45   26   25 ar   
    46   44   25 1    
    47   27   26 ar   
    48   45   26 1    
    49   28   27 ar   
    50   46   28 1    
@<TRIPOS>SUBSTRUCTURE
     1 0DI378      1 GROUP   
@<TRIPOS>SET

