#    Name: 3ftq_GNP_1_INTS_M
#    Modification time : Tue Mar 25 06:27:30 2014

@<TRIPOS>MOLECULE
3ftq_GNP_1_INTS_M
   65     0    15     0     0
SMALL
NO_CHARGES


@<TRIPOS>ATOM
      1 Zn         34.3390   14.3240    1.3835 Zn        4 ZIC7        0.0000 
      2 Zn         34.8950   14.7590    2.0370 Zn       14 ZIL7        0.0000 
      3 Zn         33.7830   13.8890    0.7300 Zn        9 ZIP7        0.0000 
      4 N          35.8480   15.3180    1.1675 N.am      2 SEC2        0.0000 
      5 N          34.8950   14.7590    2.0370 N.am     12 SEL2        0.0000 
      6 N          36.8010   15.8770    0.2980 N.am      7 SEP2        0.0000 
      7 NZ         31.8095   14.7205    4.3485 N.4       3 LYC4        0.0000 
      8 NZ         33.1380   14.9560    3.9090 N.4      13 LYL4        0.0000 
      9 NZ         30.4810   14.4850    4.7880 N.4       8 LYP4        0.0000 
     10 N          31.8095   14.7205    4.3485 N.am      2 SEC2        0.0000 
     11 N          33.1380   14.9560    3.9090 N.am     12 SEL2        0.0000 
     12 N          30.4810   14.4850    4.7880 N.am      7 SEP2        0.0000 
     13 N          32.7340   16.3925    4.2605 N.am      2 SEC2        0.0000 
     14 N          32.3300   17.8290    4.6120 N.am      7 SEP2        0.0000 
     15 N          35.5770   14.8375    5.6270 N.am      2 SEC2        0.0000 
     16 N          35.6330   14.7640    4.3120 N.am     12 SEL2        0.0000 
     17 N          35.5210   14.9110    6.9420 N.am      7 SEP2        0.0000 
     18 NZ         31.2300   13.2350    4.2670 N.4       3 LYC4        0.0000 
     19 NZ         31.9790   11.9850    3.7460 N.4      13 LYL4        0.0000 
     20 N          31.9950   11.1310    5.1310 N.am      2 SEC2        0.0000 
     21 N          31.9790   11.9850    3.7460 N.am     12 SEL2        0.0000 
     22 N          32.0110   10.2770    6.5160 N.am      7 SEP2        0.0000 
     23 N          31.1500   11.0495    2.9475 N.am      2 SEC2        0.0000 
     24 N          30.3210   10.1140    2.1490 N.am      7 SEP2        0.0000 
     25 N          31.2300   13.2350    4.2670 N.am      2 SEC2        0.0000 
     26 Zn         33.4065   13.1045    1.1060 Zn        4 ZIC7        0.0000 
     27 Zn         33.0300   12.3200    1.4820 Zn       14 ZIL7        0.0000 
     28 N          32.0595   11.7970    0.5265 N.am      2 SEC2        0.0000 
     29 N          33.0300   12.3200    1.4820 N.am     12 SEL2        0.0000 
     30 N          31.0890   11.2740   -0.4290 N.am      7 SEP2        0.0000 
     31 N          32.6025    9.6260    3.5930 N.am      2 SEC2        0.0000 
     32 N          33.7080   10.4400    2.9160 N.am     12 SEL2        0.0000 
     33 N          31.4970    8.8120    4.2700 N.am      7 SEP2        0.0000 
     34 N          32.0145   10.2770    2.5325 N.am      2 SEC2        0.0000 
     35 N          32.6210    9.0995   -0.4185 N.am      2 SEC2        0.0000 
     36 N          33.3700    9.3360    0.7470 N.am     12 SEL2        0.0000 
     37 N          31.8720    8.8630   -1.5840 N.am      7 SEP2        0.0000 
     38 N          33.5490    8.0965    0.0995 N.am      2 SEC2        0.0000 
     39 N          33.7280    6.8570   -0.5480 N.am      7 SEP2        0.0000 
     40 N          34.7720    6.1500    5.3385 N.am      2 SEC2        0.0000 
     41 N          35.3500    6.0240    4.0220 N.am     12 SEL2        0.0000 
     42 N          34.1940    6.2760    6.6550 N.am      7 SEP2        0.0000 
     43 O          37.7910    2.8255    2.6655 O.2       1 ALC1        0.0000 
     44 O          37.5750    4.0990    2.5340 O.2      11 ALL1        0.0000 
     45 O          38.0070    1.5520    2.7970 O.2       6 ALP1        0.0000 
     46 CA         34.1370    5.3700    4.8190 C.3       5 GLC5        0.0000 
     47 CA         35.4560    4.7060    3.5020 C.3      15 GLL5        0.0000 
     48 CA         32.8180    6.0340    6.1360 C.3      10 GLP5        0.0000 
     49 CA         31.4010    4.0875    4.8000 C.3       5 GLC5        0.0000 
     50 CA         32.1400    3.3390    3.1790 C.3      15 GLL5        0.0000 
     51 CA         30.6620    4.8360    6.4210 C.3      10 GLP5        0.0000 
     52 N          29.2920    2.4555    1.8870 N.am      2 SEC2        0.0000 
     53 N          30.0020    2.3780    3.0940 N.am     12 SEL2        0.0000 
     54 N          28.5820    2.5330    0.6800 N.am      7 SEP2        0.0000 
     55 O          30.7195    0.8975    5.5370 O.2       1 ALC1        0.0000 
     56 O          31.4510    1.7910    4.7400 O.2      11 ALL1        0.0000 
     57 O          29.9880    0.0040    6.3340 O.2       6 ALP1        0.0000 
     58 O          31.3700    0.5450    6.3970 O.2       1 ALC1        0.0000 
     59 O          32.7520    1.0860    6.4600 O.2      11 ALL1        0.0000 
     60 O          31.9995   -0.1335    5.8175 O.2       1 ALC1        0.0000 
     61 O          31.2470   -1.3530    5.1750 O.2       6 ALP1        0.0000 
     62 O          34.0950    0.6780    7.1065 O.2       1 ALC1        0.0000 
     63 O          35.4380    0.2700    7.7530 O.2       6 ALP1        0.0000 
     64 CA         33.0715    4.7000    5.0095 C.3       5 GLC5        0.0000 
     65 CA         33.3250    3.3660    3.8830 C.3      15 GLL5        0.0000 
@<TRIPOS>BOND
@<TRIPOS>SUBSTRUCTURE
     1 ALC1       43 GROUP        1 X    ALC  0     ROOT ALC X 1
     2 SEC2        4 GROUP        1 X    SEC  0     **** SEC X 2
     3 LYC4        7 GROUP        1 X    LYC  0     **** LYC X 4
     4 ZIC7        1 GROUP        1 X    ZIC  0     **** ZIC X 5
     5 GLC5       46 GROUP        1 X    GLC  0     **** GLC X 6
     6 ALP1       45 GROUP        1 Y    ALP  0     ROOT ALP Y 8
     7 SEP2        6 GROUP        1 Y    SEP  0     **** SEP Y 9
     8 LYP4        9 GROUP        1 Y    LYP  0     **** LYP Y 11
     9 ZIP7        3 GROUP        1 Y    ZIP  0     **** ZIP Y 12
    10 GLP5       48 GROUP        1 Y    GLP  0     **** GLP Y 13
    11 ALL1       44 GROUP        1 Z    ALL  0     ROOT ALL Z 15
    12 SEL2        5 GROUP        1 Z    SEL  0     **** SEL Z 16
    13 LYL4        8 GROUP        1 Z    LYL  0     **** LYL Z 18
    14 ZIL7        2 GROUP        1 Z    ZIL  0     **** ZIL Z 19
    15 GLL5       47 GROUP        1 Z    GLL  0     **** GLL Z 20
@<TRIPOS>SET

