#    Name: 3ftq_GNP_1_ligand
#    Modification time : Tue Mar 25 06:27:30 2014

@<TRIPOS>MOLECULE
3ftq_GNP_1_ligand
   44    46     1     0     0
SMALL
NO_CHARGES


@<TRIPOS>ATOM
      1 PG         34.4590   14.3900    3.4350 P.3       1 GNP372      0.0000 
      2 O1G        34.8950   14.7590    2.0370 O.co2     1 GNP372      0.0000 
      3 O2G        33.1380   14.9560    3.9090 O.co2     1 GNP372      0.0000 
      4 O3G        35.6330   14.7640    4.3120 O.co2     1 GNP372      0.0000 
      5 N3B        34.3600   12.7960    3.5120 N.4       1 GNP372      0.0000 
      6 PB         33.1970   11.8970    2.8920 P.3       1 GNP372      0.0000 
      7 O1B        31.9790   11.9850    3.7460 O.co2     1 GNP372      0.0000 
      8 O2B        33.0300   12.3200    1.4820 O.co2     1 GNP372      0.0000 
      9 O3A        33.7080   10.4400    2.9160 O.3       1 GNP372      0.0000 
     10 PA         34.3970    9.7140    1.7450 P.3       1 GNP372      0.0000 
     11 O1A        33.3700    9.3360    0.7470 O.co2     1 GNP372      0.0000 
     12 O2A        35.5770   10.4600    1.2730 O.co2     1 GNP372      0.0000 
     13 O5'        34.9540    8.3530    2.2910 O.3       1 GNP372      0.0000 
     14 C5'        35.9240    8.2810    3.3360 C.3       1 GNP372      0.0000 
     15 C4'        36.3880    6.8470    3.4260 C.3       1 GNP372      0.0000 
     16 O4'        35.3500    6.0240    4.0220 O.3       1 GNP372      0.0000 
     17 C3'        36.5850    6.2380    2.0490 C.3       1 GNP372      0.0000 
     18 O3'        37.8950    6.5260    1.6610 O.3       1 GNP372      0.0000 
     19 C2'        36.3540    4.7480    2.2600 C.3       1 GNP372      0.0000 
     20 O2'        37.5750    4.0990    2.5340 O.3       1 GNP372      0.0000 
     21 C1'        35.4560    4.7060    3.5020 C.3       1 GNP372      0.0000 
     22 N9         34.1080    4.2740    3.2060 N.pl3     1 GNP372      0.0000 
     23 C8         33.3360    4.7340    2.1620 C.2       1 GNP372      0.0000 
     24 N7         32.1470    4.2000    2.1010 N.2       1 GNP372      0.0000 
     25 C5         32.1400    3.3390    3.1790 C.2       1 GNP372      0.0000 
     26 C6         31.1070    2.5110    3.6070 C.2       1 GNP372      0.0000 
     27 O6         30.0020    2.3780    3.0940 O.2       1 GNP372      0.0000 
     28 N1         31.4510    1.7910    4.7400 N.am      1 GNP372      0.0000 
     29 C2         32.6530    1.8700    5.3850 C.2       1 GNP372      0.0000 
     30 N2         32.7520    1.0860    6.4600 N.pl3     1 GNP372      0.0000 
     31 N3         33.6530    2.6590    4.9980 N.2       1 GNP372      0.0000 
     32 C4         33.3250    3.3660    3.8830 C.2       1 GNP372      0.0000 
     33 H          35.5024    8.5669    4.2983 H         1 GNP372      0.0000 
     34 H          36.7884    8.9096    3.1282 H         1 GNP372      0.0000 
     35 H          37.2885    6.7704    3.9706 H         1 GNP372      0.0000 
     36 H          35.8413    6.6215    1.4111 H         1 GNP372      0.0000 
     37 H          35.8189    4.3649    1.4467 H         1 GNP372      0.0000 
     38 H          35.9123    4.0557    4.2270 H         1 GNP372      0.0000 
     39 H          33.6928    5.4235    1.5214 H         1 GNP372      0.0000 
     40 H          30.7142    1.1247    5.1337 H         1 GNP372      0.0000 
     41 H          31.9704    0.4898    6.6433 H         1 GNP372      0.0000 
     42 H          33.5989    1.1651    6.9858 H         1 GNP372      0.0000 
     43 H          38.3762    5.6505    1.7049 H         1 GNP372      0.0000 
     44 H          37.5032    3.2107    2.0805 H         1 GNP372      0.0000 
@<TRIPOS>BOND
     1    2    1 ar   
     2    3    1 ar   
     3    4    1 ar   
     4    5    1 1    
     5    6    5 1    
     6    7    6 ar   
     7    8    6 ar   
     8    9    6 1    
     9   10    9 1    
    10   11   10 ar   
    11   12   10 ar   
    12   13   10 1    
    13   14   13 1    
    14   15   14 1    
    15   33   14 1    
    16   34   14 1    
    17   16   15 1    
    18   17   15 1    
    19   35   15 1    
    20   21   16 1    
    21   18   17 1    
    22   19   17 1    
    23   36   17 1    
    24   43   18 1    
    25   20   19 1    
    26   21   19 1    
    27   37   19 1    
    28   44   20 1    
    29   22   21 1    
    30   38   21 1    
    31   23   22 1    
    32   32   22 1    
    33   24   23 2    
    34   39   23 1    
    35   25   24 1    
    36   26   25 1    
    37   32   25 2    
    38   27   26 2    
    39   28   26 am   
    40   29   28 1    
    41   40   28 1    
    42   30   29 1    
    43   31   29 2    
    44   41   30 1    
    45   42   30 1    
    46   32   31 1    
@<TRIPOS>SUBSTRUCTURE
     1 GNP372      1 GROUP   
@<TRIPOS>SET

