#    Name: 2x5o_VSV_1_INTS_M
#    Modification time : Tue Mar 25 05:05:29 2014

@<TRIPOS>MOLECULE
2x5o_VSV_1_INTS_M
   53     0    12     0     0
SMALL
NO_CHARGES


@<TRIPOS>ATOM
      1 N          -4.1400   33.2110   20.3565 N.am      2 SEC2        0.0000 
      2 N          -5.2560   32.2760   20.3570 N.am     10 SEL2        0.0000 
      3 N          -3.0240   34.1460   20.3560 N.am      6 SEP2        0.0000 
      4 N          -4.0570   31.3430   23.5805 N.am      2 SEC2        0.0000 
      5 N          -4.2400   31.5580   22.2100 N.am     10 SEL2        0.0000 
      6 N          -3.8740   31.1280   24.9510 N.am      6 SEP2        0.0000 
      7 N          -3.9315   32.6360   22.8715 N.am      2 SEC2        0.0000 
      8 N          -3.6230   33.7140   23.5330 N.am      6 SEP2        0.0000 
      9 CA         -4.2700   29.3495   21.2670 C.3       4 GLC5        0.0000 
     10 CA         -6.1220   30.4400   21.6740 C.3      12 GLL5        0.0000 
     11 CA         -2.4180   28.2590   20.8600 C.3       8 GLP5        0.0000 
     12 CA         -6.0410   29.6105   23.3030 C.3       4 GLC5        0.0000 
     13 CA         -5.9600   28.7810   24.9320 C.3       8 GLP5        0.0000 
     14 CA         -7.0745   31.5310   22.8520 C.3       4 GLC5        0.0000 
     15 CA         -8.0270   32.6220   24.0300 C.3       8 GLP5        0.0000 
     16 NZ         -6.7710   25.9575   21.5290 N.4       3 LYC4        0.0000 
     17 NZ         -7.3780   27.0000   19.9660 N.4      11 LYL4        0.0000 
     18 NZ         -6.1640   24.9150   23.0920 N.4       7 LYP4        0.0000 
     19 NZ         -6.6900   26.0905   22.6000 N.4       3 LYC4        0.0000 
     20 NZ         -7.2160   27.2660   22.1080 N.4      11 LYL4        0.0000 
     21 N          -6.6900   26.0905   22.6000 N.am      2 SEC2        0.0000 
     22 N          -7.2160   27.2660   22.1080 N.am     10 SEL2        0.0000 
     23 N          -6.1640   24.9150   23.0920 N.am      6 SEP2        0.0000 
     24 CA        -20.2550   35.3385   19.5925 C.3       4 GLC5        0.0000 
     25 CA        -19.3050   34.5130   21.0350 C.3      12 GLL5        0.0000 
     26 CA        -21.2050   36.1640   18.1500 C.3       8 GLP5        0.0000 
     27 O         -20.6215   34.9060   24.7565 O.2       1 ALC1        0.0000 
     28 O         -20.0110   34.7720   23.6050 O.2       9 ALL1        0.0000 
     29 O         -21.2320   35.0400   25.9080 O.2       5 ALP1        0.0000 
     30 CA         -7.0085   28.9640   22.9650 C.3       4 GLC5        0.0000 
     31 CA         -8.0570   29.1470   20.9980 C.3      12 GLL5        0.0000 
     32 N         -22.2425   35.9575   23.0990 N.am      2 SEC2        0.0000 
     33 N         -21.6530   35.0060   22.0820 N.am     10 SEL2        0.0000 
     34 N         -22.8320   36.9090   24.1160 N.am      6 SEP2        0.0000 
     35 CA         -8.4113   30.7975   22.0963 C.3       4 GLC5        0.0000 
     36 CA         -9.2780   31.9210   23.4280 C.3       8 GLP5        0.0000 
     37 CA        -15.0928   28.8195   16.8940 C.3       4 GLC5        0.0000 
     38 CA        -13.6150   28.6070   18.5120 C.3      12 GLL5        0.0000 
     39 CA        -16.5740   28.4090   15.5550 C.3       8 GLP5        0.0000 
     40 CA        -15.2532   29.8290   18.9665 C.3       4 GLC5        0.0000 
     41 CA        -13.6080   29.8530   17.9540 C.3      12 GLL5        0.0000 
     42 CA        -16.8950   30.4280   19.7000 C.3       8 GLP5        0.0000 
     43 CA        -15.5403   31.7270   19.4095 C.3       4 GLC5        0.0000 
     44 CA        -14.4480   33.1070   18.4730 C.3      12 GLL5        0.0000 
     45 CA        -17.9213   33.2435   17.9042 C.3       4 GLC5        0.0000 
     46 CA        -16.4430   34.0720   19.4680 C.3      12 GLL5        0.0000 
     47 CA        -19.7650   32.5990   16.9090 C.3       8 GLP5        0.0000 
     48 CA        -16.4862   32.1580   19.2997 C.3       4 GLC5        0.0000 
     49 CA        -15.7120   33.7040   18.3310 C.3      12 GLL5        0.0000 
     50 CA        -17.1453   36.0748   23.0688 C.3       4 GLC5        0.0000 
     51 CA        -16.6900   34.1480   22.0080 C.3      12 GLL5        0.0000 
     52 CA        -16.9340   37.8770   24.0210 C.3       8 GLP5        0.0000 
     53 CA        -16.4420   32.1423   20.5577 C.3       4 GLC5        0.0000 
@<TRIPOS>BOND
@<TRIPOS>SUBSTRUCTURE
     1 ALC1       27 GROUP        1 X    ALC  0     ROOT ALC X 1
     2 SEC2        1 GROUP        1 X    SEC  0     **** SEC X 2
     3 LYC4       16 GROUP        1 X    LYC  0     **** LYC X 4
     4 GLC5        9 GROUP        1 X    GLC  0     **** GLC X 6
     5 ALP1       29 GROUP        1 Y    ALP  0     ROOT ALP Y 8
     6 SEP2        3 GROUP        1 Y    SEP  0     **** SEP Y 9
     7 LYP4       18 GROUP        1 Y    LYP  0     **** LYP Y 11
     8 GLP5       11 GROUP        1 Y    GLP  0     **** GLP Y 13
     9 ALL1       28 GROUP        1 Z    ALL  0     ROOT ALL Z 15
    10 SEL2        2 GROUP        1 Z    SEL  0     **** SEL Z 16
    11 LYL4       17 GROUP        1 Z    LYL  0     **** LYL Z 18
    12 GLL5       10 GROUP        1 Z    GLL  0     **** GLL Z 20
@<TRIPOS>SET

