#    Name: 2x5o_VSV_1_ligand
#    Modification time : Tue Mar 25 05:05:29 2014

@<TRIPOS>MOLECULE
2x5o_VSV_1_ligand
   53    55     1     0     0
SMALL
NO_CHARGES


@<TRIPOS>ATOM
      1 OE1        -5.2560   32.2760   20.3570 O.co2     1 VSV500      0.0000 
      2 CD         -5.1380   31.4770   21.3430 C.2       1 VSV500      0.0000 
      3 OE2        -4.2400   31.5580   22.2100 O.co2     1 VSV500      0.0000 
      4 CG         -6.1220   30.4400   21.6740 C.3       1 VSV500      0.0000 
      5 CB         -7.0320   30.2010   20.5310 C.3       1 VSV500      0.0000 
      6 C          -7.4690   27.7330   20.9710 C.2       1 VSV500      0.0000 
      7 OXT        -7.3780   27.0000   19.9660 O.co2     1 VSV500      0.0000 
      8 O          -7.2160   27.2660   22.1080 O.co2     1 VSV500      0.0000 
      9 N          -9.1420   29.2310   20.0480 N.am      1 VSV500      0.0000 
     10 CAU       -10.3900   28.6220   20.4100 C.2       1 VSV500      0.0000 
     11 OBC       -10.4880   27.7830   21.3110 O.2       1 VSV500      0.0000 
     12 CAT       -11.4820   29.0280   19.4990 C.ar      1 VSV500      0.0000 
     13 CAQ       -11.4510   30.3290   18.9490 C.ar      1 VSV500      0.0000 
     14 CAS       -12.5580   28.1810   19.2840 C.ar      1 VSV500      0.0000 
     15 CAR       -13.6150   28.6070   18.5120 C.ar      1 VSV500      0.0000 
     16 CAP       -13.6080   29.8530   17.9540 C.ar      1 VSV500      0.0000 
     17 CAO       -12.5530   30.7260   18.1630 C.ar      1 VSV500      0.0000 
     18 CAN       -12.5560   32.0470   17.4000 C.3       1 VSV500      0.0000 
     19 NAY       -13.7920   32.6660   17.3600 N.pl3     1 VSV500      0.0000 
     20 CAA       -14.4480   33.1070   18.4730 C.ar      1 VSV500      0.0000 
     21 CAC       -13.9230   32.9450   19.7650 C.ar      1 VSV500      0.0000 
     22 CAE       -14.6430   33.2930   20.9030 C.ar      1 VSV500      0.0000 
     23 CAB       -15.7120   33.7040   18.3310 C.ar      1 VSV500      0.0000 
     24 CAG       -16.4430   34.0720   19.4680 C.ar      1 VSV500      0.0000 
     25 CAF       -15.9330   33.8370   20.7430 C.ar      1 VSV500      0.0000 
     26 CAH       -16.6900   34.1480   22.0080 C.2       1 VSV500      0.0000 
     27 CAI       -18.0230   34.3970   22.2250 C.2       1 VSV500      0.0000 
     28 SBG       -19.3050   34.5130   21.0350 S.3       1 VSV500      0.0000 
     29 CAL       -20.4640   34.8440   22.2920 C.2       1 VSV500      0.0000 
     30 NAX       -20.0110   34.7720   23.6050 N.am      1 VSV500      0.0000 
     31 CAK       -18.6290   34.5130   23.5390 C.2       1 VSV500      0.0000 
     32 OBE       -17.9270   34.5010   24.5410 O.2       1 VSV500      0.0000 
     33 CA         -8.0570   29.1470   20.9980 C.3       1 VSV500      0.0000 
     34 OBH       -21.6530   35.0060   22.0820 O.2       1 VSV500      0.0000 
     35 H          -6.7095   30.7462   22.5520 H         1 VSV500      0.0000 
     36 H          -5.6075   29.5034   21.9345 H         1 VSV500      0.0000 
     37 H          -6.4961   29.8056   19.6870 H         1 VSV500      0.0000 
     38 H          -7.5617   31.0980   20.2651 H         1 VSV500      0.0000 
     39 H          -9.0240   29.6947   19.1765 H         1 VSV500      0.0000 
     40 H         -10.6767   30.9443   19.1114 H         1 VSV500      0.0000 
     41 H         -12.5624   27.2406   19.7007 H         1 VSV500      0.0000 
     42 H         -14.4217   27.9720   18.3558 H         1 VSV500      0.0000 
     43 H         -14.4058   30.1608   17.3594 H         1 VSV500      0.0000 
     44 H         -12.1588   31.8264   16.3769 H         1 VSV500      0.0000 
     45 H         -11.7737   32.6922   17.8743 H         1 VSV500      0.0000 
     46 H         -14.2465   32.8014   16.4147 H         1 VSV500      0.0000 
     47 H         -12.9652   32.5520   19.8685 H         1 VSV500      0.0000 
     48 H         -14.2554   33.1614   21.8316 H         1 VSV500      0.0000 
     49 H         -16.0967   33.8691   17.3969 H         1 VSV500      0.0000 
     50 H         -17.3637   34.5193   19.3570 H         1 VSV500      0.0000 
     51 H         -16.0243   34.1691   22.8786 H         1 VSV500      0.0000 
     52 H         -20.5163   34.8740   24.3840 H         1 VSV500      0.0000 
     53 H          -8.3794   29.3930   21.9735 H         1 VSV500      0.0000 
@<TRIPOS>BOND
     1    2    1 ar   
     2    3    2 ar   
     3    4    2 1    
     4    5    4 1    
     5   35    4 1    
     6   36    4 1    
     7   33    5 1    
     8   37    5 1    
     9   38    5 1    
    10    7    6 ar   
    11    8    6 ar   
    12   33    6 1    
    13   10    9 am   
    14   33    9 1    
    15   39    9 1    
    16   11   10 2    
    17   12   10 1    
    18   13   12 ar   
    19   14   12 ar   
    20   17   13 ar   
    21   40   13 1    
    22   15   14 ar   
    23   41   14 1    
    24   16   15 ar   
    25   42   15 1    
    26   17   16 ar   
    27   43   16 1    
    28   18   17 1    
    29   19   18 1    
    30   44   18 1    
    31   45   18 1    
    32   20   19 1    
    33   46   19 1    
    34   21   20 ar   
    35   23   20 ar   
    36   22   21 ar   
    37   47   21 1    
    38   25   22 ar   
    39   48   22 1    
    40   24   23 ar   
    41   49   23 1    
    42   25   24 ar   
    43   50   24 1    
    44   26   25 1    
    45   27   26 2    
    46   51   26 1    
    47   28   27 1    
    48   31   27 1    
    49   29   28 1    
    50   30   29 am   
    51   34   29 2    
    52   31   30 am   
    53   52   30 1    
    54   32   31 2    
    55   53   33 1    
@<TRIPOS>SUBSTRUCTURE
     1 VSV500      1 GROUP   
@<TRIPOS>SET

