#    Name: 3dge_ADP_2_INTS_M
#    Modification time : Mon Mar 24 23:16:50 2014

@<TRIPOS>MOLECULE
3dge_ADP_2_INTS_M
   65     0    12     0     0
SMALL
NO_CHARGES


@<TRIPOS>ATOM
      1 N          48.2735   67.7940    8.3200 N.am      2 SEC2        0.0000 
      2 N          48.1260   69.2170    7.5690 N.am     10 SEL2        0.0000 
      3 N          48.4210   66.3710    9.0710 N.am      6 SEP2        0.0000 
      4 N          47.1135   68.3795    7.9770 N.am      2 SEC2        0.0000 
      5 N          46.1010   67.5420    8.3850 N.am      6 SEP2        0.0000 
      6 NZ         48.2330   66.2440    5.4275 N.4       3 LYC4        0.0000 
      7 NZ         48.5920   67.6290    5.6560 N.4      11 LYL4        0.0000 
      8 NZ         48.8820   64.0350    4.9200 N.4       7 LYP4        0.0000 
      9 N          48.2330   66.2440    5.4275 N.am      2 SEC2        0.0000 
     10 N          48.5920   67.6290    5.6560 N.am     10 SEL2        0.0000 
     11 N          47.8740   64.8590    5.1990 N.am      6 SEP2        0.0000 
     12 NZ         51.6895   69.2785    6.6830 N.4       3 LYC4        0.0000 
     13 NZ         50.2360   69.5090    6.0880 N.4      11 LYL4        0.0000 
     14 NZ         53.1430   69.0480    7.2780 N.4       7 LYP4        0.0000 
     15 N          51.6895   69.2785    6.6830 N.am      2 SEC2        0.0000 
     16 N          50.2360   69.5090    6.0880 N.am     10 SEL2        0.0000 
     17 N          53.1430   69.0480    7.2780 N.am      6 SEP2        0.0000 
     18 N          48.9355   73.8505    6.3625 N.am      2 SEC2        0.0000 
     19 N          48.0770   72.6380    5.4800 N.am     10 SEL2        0.0000 
     20 N          49.7940   75.0630    7.2450 N.am      6 SEP2        0.0000 
     21 N          49.2595   73.4315    4.9970 N.am      2 SEC2        0.0000 
     22 N          50.4420   74.2250    4.5140 N.am      6 SEP2        0.0000 
     23 N          45.9670   72.6045    6.8790 N.am      2 SEC2        0.0000 
     24 N          46.0430   71.2730    6.3620 N.am     10 SEL2        0.0000 
     25 N          45.8910   73.9360    7.3960 N.am      6 SEP2        0.0000 
     26 CA         45.7660   71.9500    3.2785 C.3       4 GLC5        0.0000 
     27 CA         45.9580   69.8990    3.6960 C.3      12 GLL5        0.0000 
     28 CA         45.5740   74.0010    2.8610 C.3       8 GLP5        0.0000 
     29 N          46.1910   66.5375    1.5400 N.am      2 SEC2        0.0000 
     30 N          47.2040   67.2260    2.2970 N.am     10 SEL2        0.0000 
     31 N          45.1780   65.8490    0.7830 N.am      6 SEP2        0.0000 
     32 CA         46.7500   67.6495   -0.5010 C.3       4 GLC5        0.0000 
     33 CA         47.9300   68.9360    0.6610 C.3      12 GLL5        0.0000 
     34 CA         45.5700   66.3630   -1.6630 C.3       8 GLP5        0.0000 
     35 N          46.3265   66.9115    0.2405 N.am      2 SEC2        0.0000 
     36 N          47.4750   67.9740   -0.3020 N.am     10 SEL2        0.0000 
     37 CA         45.1695   70.5980   -0.2945 C.3       4 GLC5        0.0000 
     38 CA         47.2850   70.2620    0.3140 C.3      12 GLL5        0.0000 
     39 CA         43.0540   70.9340   -0.9030 C.3       8 GLP5        0.0000 
     40 CA         45.9100   68.8705   -0.7425 C.3       4 GLC5        0.0000 
     41 CA         44.5350   67.4790   -1.7990 C.3       8 GLP5        0.0000 
     42 CA         50.3720   74.5560   -3.3040 C.3       4 GLC5        0.0000 
     43 CA         50.7840   73.2440   -1.6160 C.3      12 GLL5        0.0000 
     44 CA         49.9600   75.8680   -4.9920 C.3       8 GLP5        0.0000 
     45 O          52.0690   75.2980   -2.3505 O.2       1 ALC1        0.0000 
     46 O          51.5050   74.3830   -1.4030 O.2       9 ALL1        0.0000 
     47 O          52.6330   76.2130   -3.2980 O.2       5 ALP1        0.0000 
     48 CA         51.8675   70.8730   -2.0355 C.3       4 GLC5        0.0000 
     49 CA         50.2100   71.3470   -2.9370 C.3      12 GLL5        0.0000 
     50 CA         53.5250   70.3990   -1.1340 C.3       8 GLP5        0.0000 
     51 CA         49.7600   71.6150   -5.0460 C.3       4 GLC5        0.0000 
     52 CA         49.3100   71.8830   -7.1550 C.3       8 GLP5        0.0000 
     53 CA         48.4650   72.0500   -3.6080 C.3       4 GLC5        0.0000 
     54 CA         46.7200   72.7530   -4.2790 C.3       8 GLP5        0.0000 
     55 CA         47.8890   72.1470   -2.5860 C.3       4 GLC5        0.0000 
     56 CA         49.0580   71.5410   -0.8930 C.3      12 GLL5        0.0000 
     57 CA         45.6006   67.6255    2.8073 C.3       4 GLC5        0.0000 
     58 CA         47.4540   68.6230    2.0820 C.3      12 GLL5        0.0000 
     59 CA         44.4340   66.0970    3.0870 C.3       8 GLP5        0.0000 
     60 CA         49.2702   68.9519    1.3244 C.3       4 GLC5        0.0000 
     61 CA         51.0520   68.3830    1.8060 C.3       8 GLP5        0.0000 
     62 CA         51.1085   73.3563    0.7857 C.3       4 GLC5        0.0000 
     63 CA         49.8040   72.7850   -0.6070 C.3      12 GLL5        0.0000 
     64 CA         51.9230   73.6980    2.6830 C.3       8 GLP5        0.0000 
     65 CA         51.9095   71.7067   -1.1227 C.3       4 GLC5        0.0000 
@<TRIPOS>BOND
@<TRIPOS>SUBSTRUCTURE
     1 ALC1       45 GROUP        1 X    ALC  0     ROOT ALC X 1
     2 SEC2        1 GROUP        1 X    SEC  0     **** SEC X 2
     3 LYC4        6 GROUP        1 X    LYC  0     **** LYC X 4
     4 GLC5       26 GROUP        1 X    GLC  0     **** GLC X 6
     5 ALP1       47 GROUP        1 Y    ALP  0     ROOT ALP Y 8
     6 SEP2        3 GROUP        1 Y    SEP  0     **** SEP Y 9
     7 LYP4        8 GROUP        1 Y    LYP  0     **** LYP Y 11
     8 GLP5       28 GROUP        1 Y    GLP  0     **** GLP Y 13
     9 ALL1       46 GROUP        1 Z    ALL  0     ROOT ALL Z 15
    10 SEL2        2 GROUP        1 Z    SEL  0     **** SEL Z 16
    11 LYL4        7 GROUP        1 Z    LYL  0     **** LYL Z 18
    12 GLL5       27 GROUP        1 Z    GLL  0     **** GLL Z 20
@<TRIPOS>SET

