#    Name: 3dge_ADP_2_ligand
#    Modification time : Mon Mar 24 23:16:50 2014

@<TRIPOS>MOLECULE
3dge_ADP_2_ligand
   39    41     1     0     0
SMALL
NO_CHARGES


@<TRIPOS>ATOM
      1 PB         48.8070   69.0200    6.2250 P.3       1 ADP600      0.0000 
      2 O1B        48.1260   69.2170    7.5690 O.co2     1 ADP600      0.0000 
      3 O2B        48.5920   67.6290    5.6560 O.co2     1 ADP600      0.0000 
      4 O3B        50.2360   69.5090    6.0880 O.co2     1 ADP600      0.0000 
      5 PA         47.2080   71.4010    5.4290 P.3       1 ADP600      0.0000 
      6 O1A        48.0770   72.6380    5.4800 O.co2     1 ADP600      0.0000 
      7 O2A        46.0430   71.2730    6.3620 O.co2     1 ADP600      0.0000 
      8 O3A        48.1430   70.0880    5.2130 O.3       1 ADP600      0.0000 
      9 O5'        46.4950   71.2090    3.9900 O.3       1 ADP600      0.0000 
     10 C5'        45.9580   69.8990    3.6960 C.3       1 ADP600      0.0000 
     11 C4'        46.2030   69.4710    2.2500 C.3       1 ADP600      0.0000 
     12 O4'        46.3780   70.5990    1.3750 O.3       1 ADP600      0.0000 
     13 C3'        47.4540   68.6230    2.0820 C.3       1 ADP600      0.0000 
     14 O3'        47.2040   67.2260    2.2970 O.3       1 ADP600      0.0000 
     15 C2'        47.9300   68.9360    0.6610 C.3       1 ADP600      0.0000 
     16 O2'        47.4750   67.9740   -0.3020 O.3       1 ADP600      0.0000 
     17 C1'        47.2850   70.2620    0.3140 C.3       1 ADP600      0.0000 
     18 N9         48.2600   71.3550    0.1530 N.pl3     1 ADP600      0.0000 
     19 C8         48.4470   72.3600    1.0280 C.2       1 ADP600      0.0000 
     20 N7         49.3880   73.2340    0.5830 N.2       1 ADP600      0.0000 
     21 C5         49.8040   72.7850   -0.6070 C.ar      1 ADP600      0.0000 
     22 C6         50.7840   73.2440   -1.6160 C.ar      1 ADP600      0.0000 
     23 N6         51.5050   74.3830   -1.4030 N.pl3     1 ADP600      0.0000 
     24 N1         50.9340   72.4840   -2.7340 N.ar      1 ADP600      0.0000 
     25 C2         50.2100   71.3470   -2.9370 C.ar      1 ADP600      0.0000 
     26 N3         49.2970   70.8650   -2.0610 N.ar      1 ADP600      0.0000 
     27 C4         49.0580   71.5410   -0.8930 C.ar      1 ADP600      0.0000 
     28 H          44.8666   69.8686    3.8760 H         1 ADP600      0.0000 
     29 H          46.4048   69.1306    4.3551 H         1 ADP600      0.0000 
     30 H          45.3578   68.8741    1.9120 H         1 ADP600      0.0000 
     31 H          48.2010   69.0187    2.7599 H         1 ADP600      0.0000 
     32 H          48.9775   69.0643    0.6629 H         1 ADP600      0.0000 
     33 H          46.7267   70.1322   -0.6093 H         1 ADP600      0.0000 
     34 H          47.9683   72.4564    1.8814 H         1 ADP600      0.0000 
     35 H          51.7301   74.5896   -0.4508 H         1 ADP600      0.0000 
     36 H          51.7448   74.9109   -2.2178 H         1 ADP600      0.0000 
     37 H          50.3754   70.8071   -3.8416 H         1 ADP600      0.0000 
     38 H          46.5421   67.1939    3.0459 H         1 ADP600      0.0000 
     39 H          47.1639   67.1931    0.2396 H         1 ADP600      0.0000 
@<TRIPOS>BOND
     1    2    1 ar   
     2    3    1 ar   
     3    4    1 ar   
     4    8    1 1    
     5    6    5 ar   
     6    7    5 ar   
     7    8    5 1    
     8    9    5 1    
     9   10    9 1    
    10   11   10 1    
    11   28   10 1    
    12   29   10 1    
    13   12   11 1    
    14   13   11 1    
    15   30   11 1    
    16   17   12 1    
    17   14   13 1    
    18   15   13 1    
    19   31   13 1    
    20   38   14 1    
    21   16   15 1    
    22   17   15 1    
    23   32   15 1    
    24   39   16 1    
    25   18   17 1    
    26   33   17 1    
    27   19   18 1    
    28   27   18 1    
    29   20   19 2    
    30   34   19 1    
    31   21   20 1    
    32   22   21 ar   
    33   27   21 ar   
    34   23   22 1    
    35   24   22 ar   
    36   35   23 1    
    37   36   23 1    
    38   25   24 ar   
    39   26   25 ar   
    40   37   25 1    
    41   27   26 ar   
@<TRIPOS>SUBSTRUCTURE
     1 ADP600      1 GROUP   
@<TRIPOS>SET

