#    Name: 3ggo_NAI_4_INTS_M
#    Modification time : Tue Mar 25 12:29:47 2014

@<TRIPOS>MOLECULE
3ggo_NAI_4_INTS_M
   82     0     9     0     0
SMALL
NO_CHARGES


@<TRIPOS>ATOM
      1 N           7.2255  -23.4450  -17.9295 N.am      2 SEC2        0.0000 
      2 N           6.6790  -22.8910  -16.8720 N.am      8 SEL2        0.0000 
      3 N           7.7720  -23.9990  -18.9870 N.am      5 SEP2        0.0000 
      4 N           5.9610  -21.8720  -17.7680 N.am      2 SEC2        0.0000 
      5 N           5.2430  -20.8530  -18.6640 N.am      5 SEP2        0.0000 
      6 CA          5.4320  -26.4595  -12.5290 C.3       3 GLC5        0.0000 
      7 CA          5.2780  -25.4970  -14.5520 C.3       9 GLL5        0.0000 
      8 CA          5.5860  -27.4220  -10.5060 C.3       6 GLP5        0.0000 
      9 CA          4.9435  -28.4675  -15.4645 C.3       3 GLC5        0.0000 
     10 CA          4.4150  -26.5670  -15.2370 C.3       9 GLL5        0.0000 
     11 CA          5.4720  -30.3680  -15.6920 C.3       6 GLP5        0.0000 
     12 N           1.4425  -26.3960  -17.7745 N.am      2 SEC2        0.0000 
     13 N           2.6460  -26.5860  -16.9490 N.am      8 SEL2        0.0000 
     14 N           0.2390  -26.2060  -18.6000 N.am      5 SEP2        0.0000 
     15 O           2.4910  -27.9095  -17.1670 O.2       1 ALC1        0.0000 
     16 O           2.6460  -26.5860  -16.9490 O.2       7 ALL1        0.0000 
     17 O           2.3360  -29.2330  -17.3850 O.2       4 ALP1        0.0000 
     18 O           1.5975  -27.8295  -16.5415 O.2       1 ALC1        0.0000 
     19 O           0.5490  -29.0730  -16.1340 O.2       4 ALP1        0.0000 
     20 O           0.7080  -27.9900  -15.5770 O.2       1 ALC1        0.0000 
     21 O           0.8670  -26.9070  -15.0200 O.2       7 ALL1        0.0000 
     22 CA          4.1420  -29.1300  -14.9270 C.3       3 GLC5        0.0000 
     23 CA          2.8120  -27.8920  -14.1620 C.3       9 GLL5        0.0000 
     24 CA          3.7775  -28.6395  -10.8335 C.3       3 GLC5        0.0000 
     25 CA          1.9690  -29.8570  -11.1610 C.3       9 GLL5        0.0000 
     26 CA         -0.1185  -31.5205  -11.1670 C.3       3 GLC5        0.0000 
     27 CA          1.6700  -31.1950  -10.6100 C.3       9 GLL5        0.0000 
     28 CA         -1.9070  -31.8460  -11.7240 C.3       6 GLP5        0.0000 
     29 CA          2.3305  -33.0805   -9.9650 C.3       3 GLC5        0.0000 
     30 CA          2.9910  -34.9660   -9.3200 C.3       6 GLP5        0.0000 
     31 CA          3.9340  -33.1845  -13.1940 C.3       3 GLC5        0.0000 
     32 CA          2.0150  -32.0920  -12.8080 C.3       9 GLL5        0.0000 
     33 CA          5.8530  -34.2770  -13.5800 C.3       6 GLP5        0.0000 
     34 CA          1.3265  -32.1035  -14.6540 C.3       3 GLC5        0.0000 
     35 CA          0.6380  -32.1150  -16.5000 C.3       6 GLP5        0.0000 
     36 CA          0.0540  -31.9690  -12.2660 C.3       3 GLC5        0.0000 
     37 CA          3.9975  -31.1970  -12.3215 C.3       3 GLC5        0.0000 
     38 CA          5.9800  -30.3020  -11.8350 C.3       6 GLP5        0.0000 
     39 CA          3.8715  -30.0645  -14.1495 C.3       3 GLC5        0.0000 
     40 CA          2.2710  -29.7610  -12.6070 C.3       9 GLL5        0.0000 
     41 N           9.8110  -24.6970  -17.3025 N.am      2 SEC2        0.0000 
     42 N           9.0910  -24.4810  -16.0880 N.am      8 SEL2        0.0000 
     43 N          10.5310  -24.9130  -18.5170 N.am      5 SEP2        0.0000 
     44 CA         10.5660  -28.1175  -13.4885 C.3       3 GLC5        0.0000 
     45 CA         10.9630  -26.1230  -12.6090 C.3       9 GLL5        0.0000 
     46 CA         10.1690  -30.1120  -14.3680 C.3       6 GLP5        0.0000 
     47 CA          9.2985  -26.3960  -10.1935 C.3       3 GLC5        0.0000 
     48 CA         10.9500  -25.7460  -11.1420 C.3       9 GLL5        0.0000 
     49 CA          7.6470  -27.0460   -9.2450 C.3       6 GLP5        0.0000 
     50 O          10.0380  -27.7825  -10.7020 O.2       1 ALC1        0.0000 
     51 O          11.0890  -26.9430  -10.3660 O.2       7 ALL1        0.0000 
     52 O           8.9870  -28.6220  -11.0380 O.2       4 ALP1        0.0000 
     53 CA         11.5055  -22.9145  -11.0920 C.3       3 GLC5        0.0000 
     54 CA         12.1470  -24.8390  -10.9200 C.3       9 GLL5        0.0000 
     55 CA         10.8640  -20.9900  -11.2640 C.3       6 GLP5        0.0000 
     56 CA         14.0135  -26.7580  -10.7285 C.3       3 GLC5        0.0000 
     57 CA         13.1060  -25.2860  -12.0000 C.3       9 GLL5        0.0000 
     58 CA         14.9210  -28.2300   -9.4570 C.3       6 GLP5        0.0000 
     59 CA         13.0670  -23.7085  -14.5885 C.3       3 GLC5        0.0000 
     60 CA         13.5350  -23.0310  -12.7890 C.3       9 GLL5        0.0000 
     61 CA         12.5990  -24.3860  -16.3880 C.3       6 GLP5        0.0000 
     62 CA         15.8905  -24.1000  -10.3565 C.3       3 GLC5        0.0000 
     63 CA         15.3710  -24.4390  -12.4160 C.3       9 GLL5        0.0000 
     64 CA         16.4100  -23.7610   -8.2970 C.3       6 GLP5        0.0000 
     65 CA          4.9099  -25.7635  -16.9666 C.3       3 GLC5        0.0000 
     66 CA          5.8800  -25.4840  -18.6610 C.3       6 GLP5        0.0000 
     67 CA          0.4215  -29.6810  -12.2245 C.3       3 GLC5        0.0000 
     68 CA         -1.2770  -29.5530  -12.5650 C.3       6 GLP5        0.0000 
     69 CA          4.0500  -30.0555  -11.8595 C.3       3 GLC5        0.0000 
     70 CA          2.7172  -30.1060   -9.0948 C.3       3 GLC5        0.0000 
     71 CA          3.6150  -29.6860   -7.3040 C.3       6 GLP5        0.0000 
     72 CA         11.2583  -25.8202  -14.9388 C.3       3 GLC5        0.0000 
     73 CA          9.7380  -25.6080  -13.4020 C.3       9 GLL5        0.0000 
     74 CA         12.1660  -25.7750  -16.8720 C.3       6 GLP5        0.0000 
     75 CA         12.4123  -21.7510  -12.1258 C.3       3 GLC5        0.0000 
     76 CA         15.1880  -23.4342  -14.7625 C.3       3 GLC5        0.0000 
     77 CA         14.3860  -21.9930  -13.1860 C.3       9 GLL5        0.0000 
     78 CA         15.2910  -24.7710  -16.3410 C.3       6 GLP5        0.0000 
     79 CA         15.5605  -24.3580  -14.4763 C.3       3 GLC5        0.0000 
     80 CA         16.2890  -23.4510  -12.8070 C.3       9 GLL5        0.0000 
     81 CA         17.5975  -24.8190  -11.9023 C.3       3 GLC5        0.0000 
     82 CA         19.3650  -25.6930  -11.1930 C.3       6 GLP5        0.0000 
@<TRIPOS>BOND
@<TRIPOS>SUBSTRUCTURE
     1 ALC1       15 GROUP        1 X    ALC  0     ROOT ALC X 1
     2 SEC2        1 GROUP        1 X    SEC  0     **** SEC X 2
     3 GLC5        6 GROUP        1 X    GLC  0     **** GLC X 6
     4 ALP1       17 GROUP        1 Y    ALP  0     ROOT ALP Y 8
     5 SEP2        3 GROUP        1 Y    SEP  0     **** SEP Y 9
     6 GLP5        8 GROUP        1 Y    GLP  0     **** GLP Y 13
     7 ALL1       16 GROUP        1 Z    ALL  0     ROOT ALL Z 15
     8 SEL2        2 GROUP        1 Z    SEL  0     **** SEL Z 16
     9 GLL5        7 GROUP        1 Z    GLL  0     **** GLL Z 20
@<TRIPOS>SET

