#    Name: 3ggo_NAI_4_ligand
#    Modification time : Tue Mar 25 12:29:47 2014

@<TRIPOS>MOLECULE
3ggo_NAI_4_ligand
   71    75     1     0     0
SMALL
NO_CHARGES


@<TRIPOS>ATOM
      1 PA          6.2810  -23.2230  -15.4430 P.3       1 NAI1372     0.0000 
      2 O1A         5.1840  -22.4960  -14.6810 O.co2     1 NAI1372     0.0000 
      3 O2A         6.6790  -22.8910  -16.8720 O.co2     1 NAI1372     0.0000 
      4 O5B         5.8680  -24.7640  -15.6150 O.3       1 NAI1372     0.0000 
      5 C5B         5.2780  -25.4970  -14.5520 C.3       1 NAI1372     0.0000 
      6 C4B         4.4150  -26.5670  -15.2370 C.3       1 NAI1372     0.0000 
      7 O4B         4.1940  -27.6100  -14.2800 O.3       1 NAI1372     0.0000 
      8 C3B         3.0330  -26.0540  -15.6500 C.3       1 NAI1372     0.0000 
      9 O3B         2.6460  -26.5860  -16.9490 O.3       1 NAI1372     0.0000 
     10 C2B         2.1450  -26.5810  -14.5220 C.3       1 NAI1372     0.0000 
     11 O2B         0.8670  -26.9070  -15.0200 O.3       1 NAI1372     0.0000 
     12 C1B         2.8120  -27.8920  -14.1620 C.3       1 NAI1372     0.0000 
     13 N9A         2.4770  -28.4640  -12.8370 N.pl3     1 NAI1372     0.0000 
     14 C8A         2.3300  -27.7890  -11.6770 C.2       1 NAI1372     0.0000 
     15 N7A         2.0260  -28.6190  -10.6500 N.2       1 NAI1372     0.0000 
     16 C5A         1.9690  -29.8570  -11.1610 C.ar      1 NAI1372     0.0000 
     17 C6A         1.6700  -31.1950  -10.6100 C.ar      1 NAI1372     0.0000 
     18 N6A         1.3910  -31.3300   -9.2780 N.pl3     1 NAI1372     0.0000 
     19 N1A         1.7220  -32.2480  -11.4850 N.ar      1 NAI1372     0.0000 
     20 C2A         2.0150  -32.0920  -12.8080 C.ar      1 NAI1372     0.0000 
     21 N3A         2.2660  -30.8890  -13.3790 N.ar      1 NAI1372     0.0000 
     22 C4A         2.2710  -29.7610  -12.6070 C.ar      1 NAI1372     0.0000 
     23 O3          7.5460  -23.2280  -14.4070 O.3       1 NAI1372     0.0000 
     24 PN          9.0760  -23.5030  -14.9370 P.3       1 NAI1372     0.0000 
     25 O1N         9.6810  -22.1240  -15.0530 O.co2     1 NAI1372     0.0000 
     26 O2N         9.0910  -24.4810  -16.0880 O.co2     1 NAI1372     0.0000 
     27 O5D         9.7490  -24.1880  -13.6270 O.3       1 NAI1372     0.0000 
     28 C5D         9.7380  -25.6080  -13.4020 C.3       1 NAI1372     0.0000 
     29 C4D        10.9630  -26.1230  -12.6090 C.3       1 NAI1372     0.0000 
     30 O4D        12.2500  -25.6770  -13.0870 O.3       1 NAI1372     0.0000 
     31 C3D        10.9500  -25.7460  -11.1420 C.3       1 NAI1372     0.0000 
     32 O3D        11.0890  -26.9430  -10.3660 O.3       1 NAI1372     0.0000 
     33 C2D        12.1470  -24.8390  -10.9200 C.3       1 NAI1372     0.0000 
     34 O2D        12.6550  -25.0730   -9.6150 O.3       1 NAI1372     0.0000 
     35 C1D        13.1060  -25.2860  -12.0000 C.3       1 NAI1372     0.0000 
     36 N1N        14.0350  -24.2250  -12.4050 N.pl3     1 NAI1372     0.0000 
     37 C2N        13.5350  -23.0310  -12.7890 C.2       1 NAI1372     0.0000 
     38 C3N        14.3860  -21.9930  -13.1860 C.2       1 NAI1372     0.0000 
     39 C7N        13.7750  -20.6550  -13.5740 C.2       1 NAI1372     0.0000 
     40 O7N        14.2720  -19.6270  -13.0960 O.2       1 NAI1372     0.0000 
     41 N7N        12.7120  -20.6140  -14.3910 N.am      1 NAI1372     0.0000 
     42 C4N        15.7840  -22.2020  -13.1820 C.3       1 NAI1372     0.0000 
     43 C5N        16.2890  -23.4510  -12.8070 C.2       1 NAI1372     0.0000 
     44 C6N        15.3710  -24.4390  -12.4160 C.2       1 NAI1372     0.0000 
     45 H           4.6290  -24.8909  -13.9414 H         1 NAI1372     0.0000 
     46 H           6.0086  -26.0030  -13.9425 H         1 NAI1372     0.0000 
     47 H           4.9248  -26.9383  -16.0930 H         1 NAI1372     0.0000 
     48 H           3.0444  -25.0008  -15.6064 H         1 NAI1372     0.0000 
     49 H           2.1689  -25.9438  -13.7190 H         1 NAI1372     0.0000 
     50 H           2.5383  -28.6101  -14.9546 H         1 NAI1372     0.0000 
     51 H           2.4308  -26.8130  -11.5857 H         1 NAI1372     0.0000 
     52 H           1.4253  -30.4916   -8.7341 H         1 NAI1372     0.0000 
     53 H           1.1772  -32.2553   -8.9648 H         1 NAI1372     0.0000 
     54 H           2.0472  -32.9601  -13.4188 H         1 NAI1372     0.0000 
     55 H           9.7119  -26.1688  -14.3596 H         1 NAI1372     0.0000 
     56 H           8.8328  -25.9214  -12.8410 H         1 NAI1372     0.0000 
     57 H          10.9439  -27.2324  -12.6384 H         1 NAI1372     0.0000 
     58 H          10.0631  -25.2170  -10.9284 H         1 NAI1372     0.0000 
     59 H          11.8494  -23.8485  -11.1025 H         1 NAI1372     0.0000 
     60 H          13.6378  -26.1470  -11.6294 H         1 NAI1372     0.0000 
     61 H          12.5104  -22.8591  -12.7975 H         1 NAI1372     0.0000 
     62 H          12.3633  -19.7037  -14.6140 H         1 NAI1372     0.0000 
     63 H          12.3633  -21.4974  -14.7040 H         1 NAI1372     0.0000 
     64 H          16.2752  -21.3854  -12.5333 H         1 NAI1372     0.0000 
     65 H          16.1998  -21.9224  -14.2203 H         1 NAI1372     0.0000 
     66 H          17.2808  -23.6389  -12.8162 H         1 NAI1372     0.0000 
     67 H          15.7570  -25.3708  -12.1253 H         1 NAI1372     0.0000 
     68 H           2.6160  -27.5777  -16.8239 H         1 NAI1372     0.0000 
     69 H           1.0380  -27.5289  -15.7842 H         1 NAI1372     0.0000 
     70 H          10.1546  -27.2711  -10.2269 H         1 NAI1372     0.0000 
     71 H          12.1040  -25.8254   -9.2540 H         1 NAI1372     0.0000 
@<TRIPOS>BOND
     1    2    1 ar   
     2    3    1 ar   
     3    4    1 1    
     4   23    1 1    
     5    5    4 1    
     6    6    5 1    
     7   45    5 1    
     8   46    5 1    
     9    7    6 1    
    10    8    6 1    
    11   47    6 1    
    12   12    7 1    
    13    9    8 1    
    14   10    8 1    
    15   48    8 1    
    16   68    9 1    
    17   11   10 1    
    18   12   10 1    
    19   49   10 1    
    20   69   11 1    
    21   13   12 1    
    22   50   12 1    
    23   14   13 1    
    24   22   13 1    
    25   15   14 2    
    26   51   14 1    
    27   16   15 1    
    28   17   16 ar   
    29   22   16 ar   
    30   18   17 1    
    31   19   17 ar   
    32   52   18 1    
    33   53   18 1    
    34   20   19 ar   
    35   21   20 ar   
    36   54   20 1    
    37   22   21 ar   
    38   24   23 1    
    39   25   24 ar   
    40   26   24 ar   
    41   27   24 1    
    42   28   27 1    
    43   29   28 1    
    44   55   28 1    
    45   56   28 1    
    46   30   29 1    
    47   31   29 1    
    48   57   29 1    
    49   35   30 1    
    50   32   31 1    
    51   33   31 1    
    52   58   31 1    
    53   70   32 1    
    54   34   33 1    
    55   35   33 1    
    56   59   33 1    
    57   71   34 1    
    58   36   35 1    
    59   60   35 1    
    60   37   36 1    
    61   44   36 1    
    62   38   37 2    
    63   61   37 1    
    64   39   38 1    
    65   42   38 1    
    66   40   39 2    
    67   41   39 am   
    68   62   41 1    
    69   63   41 1    
    70   43   42 1    
    71   64   42 1    
    72   65   42 1    
    73   44   43 2    
    74   66   43 1    
    75   67   44 1    
@<TRIPOS>SUBSTRUCTURE
     1 NAI1372     1 GROUP   
@<TRIPOS>SET

