#    Name: 4lxk_1YT_2_INTS_M
#    Modification time : Tue Mar 25 11:36:58 2014

@<TRIPOS>MOLECULE
4lxk_1YT_2_INTS_M
   72     0     9     0     0
SMALL
NO_CHARGES


@<TRIPOS>ATOM
      1 CA         19.3125    6.6445  -14.9320 C.3       3 GLC5        0.0000 
      2 CA         18.6320    4.9200  -13.9120 C.3       9 GLL5        0.0000 
      3 CA         19.9930    8.3690  -15.9520 C.3       6 GLP5        0.0000 
      4 CA         16.5330    3.3560  -12.4825 C.3       3 GLC5        0.0000 
      5 CA         18.2730    2.8760  -13.1820 C.3       9 GLL5        0.0000 
      6 CA         14.7930    3.8360  -11.7830 C.3       6 GLP5        0.0000 
      7 CA         13.3895    6.6720  -19.3370 C.3       3 GLC5        0.0000 
      8 CA         14.0730    6.1410  -17.4650 C.3       9 GLL5        0.0000 
      9 CA         12.7060    7.2030  -21.2090 C.3       6 GLP5        0.0000 
     10 CA         17.9710    8.1470  -16.7160 C.3       3 GLC5        0.0000 
     11 CA         15.9490    7.9250  -17.4800 C.3       9 GLL5        0.0000 
     12 CA         17.0150    6.7405  -23.1505 C.3       3 GLC5        0.0000 
     13 CA         17.9700    8.0780  -21.6410 C.3       9 GLL5        0.0000 
     14 CA         16.0600    5.4030  -24.6600 C.3       6 GLP5        0.0000 
     15 N          14.9225    6.4370  -22.6645 N.am      2 SEC2        0.0000 
     16 N          15.8430    6.4130  -21.5780 N.am      8 SEL2        0.0000 
     17 N          14.0020    6.4610  -23.7510 N.am      5 SEP2        0.0000 
     18 CA         17.7045   12.7455  -23.5960 C.3       3 GLC5        0.0000 
     19 CA         17.8070   10.9450  -22.9760 C.3       9 GLL5        0.0000 
     20 CA         17.6020   14.5460  -24.2160 C.3       6 GLP5        0.0000 
     21 CA         19.6170   11.7870  -23.3190 C.3       3 GLC5        0.0000 
     22 CA         21.4270   12.6290  -23.6620 C.3       6 GLP5        0.0000 
     23 CA         14.6130    7.7235  -24.8865 C.3       3 GLC5        0.0000 
     24 CA         14.7040    9.9510  -25.0530 C.3       9 GLL5        0.0000 
     25 CA         14.5220    5.4960  -24.7200 C.3       6 GLP5        0.0000 
     26 CA         13.8605   16.2325  -23.1920 C.3       3 GLC5        0.0000 
     27 CA         13.6570   14.3230  -23.0460 C.3       9 GLL5        0.0000 
     28 CA         14.0640   18.1420  -23.3380 C.3       6 GLP5        0.0000 
     29 CA         15.6295   14.4345  -23.6310 C.3       3 GLC5        0.0000 
     30 CA         10.5570   12.1640  -22.0740 C.3       3 GLC5        0.0000 
     31 CA         11.6810   12.9870  -23.8270 C.3       9 GLL5        0.0000 
     32 CA          9.4330   11.3410  -20.3210 C.3       6 GLP5        0.0000 
     33 CA         13.5750   12.9955  -19.9735 C.3       3 GLC5        0.0000 
     34 CA         12.6250   12.5460  -21.5520 C.3       9 GLL5        0.0000 
     35 CA         14.5250   13.4450  -18.3950 C.3       6 GLP5        0.0000 
     36 CA         11.0290   11.9435  -20.9365 C.3       3 GLC5        0.0000 
     37 CA         12.7590   10.8910  -20.6260 C.3       3 GLC5        0.0000 
     38 CA         12.8930    9.2360  -19.7000 C.3       6 GLP5        0.0000 
     39 O          17.3050   10.7530  -17.8975 O.2       1 ALC1        0.0000 
     40 O          16.1910   10.4040  -19.1860 O.2       7 ALL1        0.0000 
     41 O          18.4190   11.1020  -16.6090 O.2       4 ALP1        0.0000 
     42 O          16.2140   10.8530  -17.9425 O.2       1 ALC1        0.0000 
     43 O          16.2370   11.3020  -16.6990 O.2       4 ALP1        0.0000 
     44 CA         11.7195    6.1075  -18.4115 C.3       3 GLC5        0.0000 
     45 CA         12.3760    4.4740  -17.4620 C.3       9 GLL5        0.0000 
     46 CA         11.0630    7.7410  -19.3610 C.3       6 GLP5        0.0000 
     47 CA         11.4660    3.8765  -18.9020 C.3       3 GLC5        0.0000 
     48 CA         10.5560    3.2790  -20.3420 C.3       6 GLP5        0.0000 
     49 CA         11.3060    5.1180  -16.6070 C.3       3 GLC5        0.0000 
     50 CA         10.2360    5.7620  -15.7520 C.3       6 GLP5        0.0000 
     51 O          12.7205    2.5955  -15.2235 O.2       1 ALC1        0.0000 
     52 O          13.9170    2.7910  -15.9040 O.2       7 ALL1        0.0000 
     53 O          11.5240    2.4000  -14.5430 O.2       4 ALP1        0.0000 
     54 CA         19.3904    1.9931  -12.6698 C.3       3 GLC5        0.0000 
     55 CA         18.7180    3.6040  -14.2380 C.3       9 GLL5        0.0000 
     56 CA         19.9590    0.8190  -11.5640 C.3       6 GLP5        0.0000 
     57 CA         19.8350    3.9044  -12.4854 C.3       3 GLC5        0.0000 
     58 CA         20.8590    4.4770  -11.2360 C.3       6 GLP5        0.0000 
     59 CA         18.2865    5.2400  -12.4758 C.3       3 GLC5        0.0000 
     60 CA         18.0990    6.9110  -11.3230 C.3       6 GLP5        0.0000 
     61 CA         15.9639    6.5825  -14.7784 C.3       3 GLC5        0.0000 
     62 CA         15.6690    4.4330  -15.8690 C.3       9 GLL5        0.0000 
     63 CA         16.2870    7.3510  -12.9980 C.3       6 GLP5        0.0000 
     64 CA         14.7567    8.5352  -16.0332 C.3       3 GLC5        0.0000 
     65 CA         15.3700    6.5600  -17.0550 C.3       9 GLL5        0.0000 
     66 CA         13.8540    9.8280  -14.7990 C.3       6 GLP5        0.0000 
     67 CA         14.5170    8.5830  -18.9708 C.3       3 GLC5        0.0000 
     68 CA         14.9812    9.2517  -19.9977 C.3       3 GLC5        0.0000 
     69 CA         16.9890    9.2580  -19.5190 C.3       9 GLL5        0.0000 
     70 CA         13.2300    9.0478  -23.7013 C.3       3 GLC5        0.0000 
     71 CA         13.7540   10.8840  -24.5720 C.3       9 GLL5        0.0000 
     72 CA         12.2310    7.6780  -22.5900 C.3       6 GLP5        0.0000 
@<TRIPOS>BOND
@<TRIPOS>SUBSTRUCTURE
     1 ALC1       39 GROUP        1 X    ALC  0     ROOT ALC X 1
     2 SEC2       15 GROUP        1 X    SEC  0     **** SEC X 2
     3 GLC5        1 GROUP        1 X    GLC  0     **** GLC X 6
     4 ALP1       41 GROUP        1 Y    ALP  0     ROOT ALP Y 8
     5 SEP2       17 GROUP        1 Y    SEP  0     **** SEP Y 9
     6 GLP5        3 GROUP        1 Y    GLP  0     **** GLP Y 13
     7 ALL1       40 GROUP        1 Z    ALL  0     ROOT ALL Z 15
     8 SEL2       16 GROUP        1 Z    SEL  0     **** SEL Z 16
     9 GLL5        2 GROUP        1 Z    GLL  0     **** GLL Z 20
@<TRIPOS>SET

