#    Name: 4lxk_1YT_2_ligand
#    Modification time : Tue Mar 25 11:36:58 2014

@<TRIPOS>MOLECULE
4lxk_1YT_2_ligand
   73    75     1     0     0
SMALL
NO_CHARGES


@<TRIPOS>ATOM
      1 F1         18.6320    4.9200  -13.9120 F         1 1YT502      0.0000 
      2 C2         18.7180    3.6040  -14.2380 C.3       1 1YT502      0.0000 
      3 F3         20.0230    3.3130  -14.5000 F         1 1YT502      0.0000 
      4 F4         18.2730    2.8760  -13.1820 F         1 1YT502      0.0000 
      5 C5         17.8120    3.3060  -15.4560 C.3       1 1YT502      0.0000 
      6 O7         16.4410    3.5740  -15.0890 O.3       1 1YT502      0.0000 
      7 C8         15.6690    4.4330  -15.8690 C.ar      1 1YT502      0.0000 
      8 C9         14.3800    4.0100  -16.2770 C.ar      1 1YT502      0.0000 
      9 C10        13.5840    4.8690  -17.0760 C.ar      1 1YT502      0.0000 
     10 C11        14.0730    6.1410  -17.4650 C.ar      1 1YT502      0.0000 
     11 C13        15.3700    6.5600  -17.0550 C.ar      1 1YT502      0.0000 
     12 C14        16.1540    5.7030  -16.2560 C.ar      1 1YT502      0.0000 
     13 C16        15.9490    7.9250  -17.4800 C.3       1 1YT502      0.0000 
     14 C19        16.3330    7.9350  -19.0030 C.3       1 1YT502      0.0000 
     15 C21        16.9890    9.2580  -19.5190 C.3       1 1YT502      0.0000 
     16 C23        17.1500    9.2770  -21.0720 C.3       1 1YT502      0.0000 
     17 C25        17.9700    8.0780  -21.6410 C.3       1 1YT502      0.0000 
     18 S28        17.2810    6.4950  -21.1470 S.o       1 1YT502      0.0000 
     19 C29        17.2500    6.7220  -19.3760 C.3       1 1YT502      0.0000 
     20 O32        15.8430    6.4130  -21.5780 O.2       1 1YT502      0.0000 
     21 N33        17.7930   10.5410  -21.5410 N.3       1 1YT502      0.0000 
     22 C35        17.8070   10.9450  -22.9760 C.3       1 1YT502      0.0000 
     23 C38        16.3780   10.9130  -23.5510 C.ar      1 1YT502      0.0000 
     24 C39        15.4090   11.8360  -23.0860 C.ar      1 1YT502      0.0000 
     25 C41        14.0690   11.8560  -23.5760 C.ar      1 1YT502      0.0000 
     26 C42        13.7540   10.8840  -24.5720 C.ar      1 1YT502      0.0000 
     27 C44        14.7040    9.9510  -25.0530 C.ar      1 1YT502      0.0000 
     28 C46        16.0230    9.9620  -24.5430 C.ar      1 1YT502      0.0000 
     29 C48        13.0260   12.8950  -23.0270 C.3       1 1YT502      0.0000 
     30 C49        13.6570   14.3230  -23.0460 C.3       1 1YT502      0.0000 
     31 C53        11.6810   12.9870  -23.8270 C.3       1 1YT502      0.0000 
     32 C57        12.6250   12.5460  -21.5520 C.3       1 1YT502      0.0000 
     33 O61        16.1910   10.4040  -19.1860 O.3       1 1YT502      0.0000 
     34 F63        12.3760    4.4740  -17.4620 F         1 1YT502      0.0000 
     35 N64        13.9170    2.7910  -15.9040 N.pl3     1 1YT502      0.0000 
     36 C67        18.0070    1.8610  -15.9980 C.3       1 1YT502      0.0000 
     37 O70        17.1210    1.6490  -17.1160 O.3       1 1YT502      0.0000 
     38 C71        17.3580    0.4080  -17.8080 C.3       1 1YT502      0.0000 
     39 H          18.1223    3.9973  -16.2533 H         1 1YT502      0.0000 
     40 H          13.4989    6.7569  -18.0375 H         1 1YT502      0.0000 
     41 H          17.0869    6.0030  -15.9513 H         1 1YT502      0.0000 
     42 H          16.8411    8.1372  -16.9002 H         1 1YT502      0.0000 
     43 H          15.2115    8.7017  -17.3074 H         1 1YT502      0.0000 
     44 H          15.3961    7.7944  -19.5804 H         1 1YT502      0.0000 
     45 H          17.9758    9.3402  -19.0942 H         1 1YT502      0.0000 
     46 H          16.1485    9.2176  -21.5143 H         1 1YT502      0.0000 
     47 H          18.9642    8.0435  -21.2566 H         1 1YT502      0.0000 
     48 H          17.9453    8.0346  -22.7063 H         1 1YT502      0.0000 
     49 H          16.8711    5.8034  -19.0122 H         1 1YT502      0.0000 
     50 H          18.2644    6.8921  -19.1274 H         1 1YT502      0.0000 
     51 H          18.4268   10.2636  -23.5565 H         1 1YT502      0.0000 
     52 H          18.1982   11.9556  -23.0824 H         1 1YT502      0.0000 
     53 H          15.6800   12.5258  -22.3612 H         1 1YT502      0.0000 
     54 H          12.7913   10.8640  -24.9552 H         1 1YT502      0.0000 
     55 H          14.4371    9.2728  -25.7656 H         1 1YT502      0.0000 
     56 H          16.7110    9.2970  -24.8817 H         1 1YT502      0.0000 
     57 H          13.0789    2.7867  -15.3585 H         1 1YT502      0.0000 
     58 H          14.4547    2.0043  -16.2074 H         1 1YT502      0.0000 
     59 H          17.7982    1.1751  -15.1775 H         1 1YT502      0.0000 
     60 H          19.0537    1.7592  -16.2832 H         1 1YT502      0.0000 
     61 H          14.4776   14.3740  -22.4768 H         1 1YT502      0.0000 
     62 H          13.9232   14.5991  -23.9695 H         1 1YT502      0.0000 
     63 H          13.0204   15.0149  -22.7053 H         1 1YT502      0.0000 
     64 H          11.8331   13.2463  -24.7807 H         1 1YT502      0.0000 
     65 H          11.1931   12.1141  -23.8348 H         1 1YT502      0.0000 
     66 H          11.0608   13.6659  -23.4340 H         1 1YT502      0.0000 
     67 H          13.4163   12.5526  -20.9406 H         1 1YT502      0.0000 
     68 H          11.9637   13.1988  -21.1826 H         1 1YT502      0.0000 
     69 H          12.2101   11.6386  -21.4847 H         1 1YT502      0.0000 
     70 H          18.2853    0.3611  -18.1794 H         1 1YT502      0.0000 
     71 H          17.2436   -0.3813  -17.2048 H         1 1YT502      0.0000 
     72 H          16.7284    0.2844  -18.5750 H         1 1YT502      0.0000 
     73 H          16.3599   10.5630  -18.2133 H         1 1YT502      0.0000 
@<TRIPOS>BOND
     1    2    1 1    
     2    3    2 1    
     3    4    2 1    
     4    5    2 1    
     5    6    5 1    
     6   36    5 1    
     7   39    5 1    
     8    7    6 1    
     9    8    7 ar   
    10   12    7 ar   
    11    9    8 ar   
    12   35    8 1    
    13   10    9 ar   
    14   34    9 1    
    15   11   10 ar   
    16   40   10 1    
    17   12   11 ar   
    18   13   11 1    
    19   41   12 1    
    20   14   13 1    
    21   42   13 1    
    22   43   13 1    
    23   15   14 1    
    24   19   14 1    
    25   44   14 1    
    26   16   15 1    
    27   33   15 1    
    28   45   15 1    
    29   17   16 1    
    30   21   16 1    
    31   46   16 1    
    32   18   17 1    
    33   47   17 1    
    34   48   17 1    
    35   19   18 1    
    36   20   18 2    
    37   49   19 1    
    38   50   19 1    
    39   22   21 1    
    40   23   22 1    
    41   51   22 1    
    42   52   22 1    
    43   24   23 ar   
    44   28   23 ar   
    45   25   24 ar   
    46   53   24 1    
    47   26   25 ar   
    48   29   25 1    
    49   27   26 ar   
    50   54   26 1    
    51   28   27 ar   
    52   55   27 1    
    53   56   28 1    
    54   30   29 1    
    55   31   29 1    
    56   32   29 1    
    57   61   30 1    
    58   62   30 1    
    59   63   30 1    
    60   64   31 1    
    61   65   31 1    
    62   66   31 1    
    63   67   32 1    
    64   68   32 1    
    65   69   32 1    
    66   73   33 1    
    67   57   35 1    
    68   58   35 1    
    69   37   36 1    
    70   59   36 1    
    71   60   36 1    
    72   38   37 1    
    73   70   38 1    
    74   71   38 1    
    75   72   38 1    
@<TRIPOS>SUBSTRUCTURE
     1 1YT502      1 GROUP   
@<TRIPOS>SET

