#    Name: 2p4y_C03_2_INTS_M
#    Modification time : Mon Mar 24 18:20:42 2014

@<TRIPOS>MOLECULE
2p4y_C03_2_INTS_M
  112     0     6     0     0
SMALL
NO_CHARGES


@<TRIPOS>ATOM
      1 CA         36.5795  -18.2105   39.6995 C.3       2 GLC5        0.0000 
      2 CA         35.2640  -19.1410   38.7160 C.3       6 GLL5        0.0000 
      3 CA         37.8950  -17.2800   40.6830 C.3       4 GLP5        0.0000 
      4 CA         33.0640  -18.8350   38.4630 C.3       2 GLC5        0.0000 
      5 CA         30.8640  -18.5290   38.2100 C.3       4 GLP5        0.0000 
      6 CA         37.1915  -18.2470   38.2030 C.3       2 GLC5        0.0000 
      7 CA         35.6290  -19.1400   37.2970 C.3       6 GLL5        0.0000 
      8 CA         38.7540  -17.3540   39.1090 C.3       4 GLP5        0.0000 
      9 CA         32.3345  -21.6020   40.8440 C.3       2 GLC5        0.0000 
     10 CA         33.6010  -22.7630   41.8540 C.3       6 GLL5        0.0000 
     11 CA         31.0680  -20.4410   39.8340 C.3       4 GLP5        0.0000 
     12 CA         32.3415  -23.8775   41.5840 C.3       2 GLC5        0.0000 
     13 CA         31.0820  -24.9920   41.3140 C.3       4 GLP5        0.0000 
     14 CA         32.2810  -21.7555   42.8350 C.3       2 GLC5        0.0000 
     15 CA         30.9610  -20.7480   43.8160 C.3       4 GLP5        0.0000 
     16 CA         34.3435  -23.3205   43.7985 C.3       2 GLC5        0.0000 
     17 CA         35.0860  -23.8780   45.7430 C.3       4 GLP5        0.0000 
     18 CA         32.7110  -20.0420   40.8080 C.3       2 GLC5        0.0000 
     19 CA         34.3540  -19.6430   41.7820 C.3       6 GLL5        0.0000 
     20 CA         32.6575  -20.1955   42.7990 C.3       2 GLC5        0.0000 
     21 CA         33.8245  -17.5550   41.2305 C.3       2 GLC5        0.0000 
     22 CA         33.2950  -15.4670   40.6790 C.3       4 GLP5        0.0000 
     23 CA         32.6285  -17.4930   37.6540 C.3       2 GLC5        0.0000 
     24 CA         34.3930  -16.4570   37.0980 C.3       6 GLL5        0.0000 
     25 CA         33.2065  -14.8515   36.7380 C.3       2 GLC5        0.0000 
     26 CA         32.0200  -13.2460   36.3780 C.3       4 GLP5        0.0000 
     27 CA         33.5605  -19.1240   34.5590 C.3       2 GLC5        0.0000 
     28 CA         34.4220  -17.6040   35.2650 C.3       6 GLL5        0.0000 
     29 CA         32.6990  -20.6440   33.8530 C.3       4 GLP5        0.0000 
     30 CA         35.6820  -16.8525   45.7570 C.3       2 GLC5        0.0000 
     31 CA         34.6900  -17.1010   43.7890 C.3       6 GLL5        0.0000 
     32 CA         36.6740  -16.6040   47.7250 C.3       4 GLP5        0.0000 
     33 CA         33.9695  -15.8935   44.7730 C.3       2 GLC5        0.0000 
     34 CA         33.2490  -14.6860   45.7570 C.3       4 GLP5        0.0000 
     35 CA         33.9925  -16.2840   42.2340 C.3       2 GLC5        0.0000 
     36 CA         37.8120  -22.3620   44.8060 C.3       2 GLC5        0.0000 
     37 CA         39.6110  -22.0330   43.5290 C.3       6 GLL5        0.0000 
     38 CA         36.0130  -22.6910   46.0830 C.3       4 GLP5        0.0000 
     39 CA         39.7330  -23.9075   41.1190 C.3       2 GLC5        0.0000 
     40 CA         40.7330  -22.7690   42.7730 C.3       6 GLL5        0.0000 
     41 CA         38.7330  -25.0460   39.4650 C.3       4 GLP5        0.0000 
     42 N          38.7800  -24.4700   46.0480 N.am      1 SEC2        0.0000 
     43 N          38.5120  -23.5820   44.9570 N.am      5 SEL2        0.0000 
     44 N          39.0480  -25.3580   47.1390 N.am      3 SEP2        0.0000 
     45 N          37.3280  -24.4845   44.0705 N.am      1 SEC2        0.0000 
     46 N          37.8170  -23.4670   42.8260 N.am      5 SEL2        0.0000 
     47 N          36.8390  -25.5020   45.3150 N.am      3 SEP2        0.0000 
     48 CA         31.4225  -23.1380   34.0975 C.3       2 GLC5        0.0000 
     49 CA         31.9650  -24.3530   35.5360 C.3       6 GLL5        0.0000 
     50 CA         30.8800  -21.9230   32.6590 C.3       4 GLP5        0.0000 
     51 CA         32.6455  -22.1555   35.2330 C.3       2 GLC5        0.0000 
     52 CA         32.5920  -23.6670   36.6130 C.3       6 GLL5        0.0000 
     53 CA         30.7035  -22.7735   37.4045 C.3       2 GLC5        0.0000 
     54 CA         28.8150  -21.8800   38.1960 C.3       4 GLP5        0.0000 
     55 CA         31.7490  -28.5765   32.8415 C.3       2 GLC5        0.0000 
     56 CA         32.3000  -27.1490   33.4880 C.3       6 GLL5        0.0000 
     57 CA         31.1980  -30.0040   32.1950 C.3       4 GLP5        0.0000 
     58 CA         33.8240  -26.1930   33.5090 C.3       2 GLC5        0.0000 
     59 CA         35.3480  -25.2370   33.5300 C.3       4 GLP5        0.0000 
     60 CA         33.6030  -28.8350   32.8705 C.3       2 GLC5        0.0000 
     61 CA         34.9060  -30.5210   32.2530 C.3       4 GLP5        0.0000 
     62 CA         32.3035  -26.9800   31.7165 C.3       2 GLC5        0.0000 
     63 CA         32.3070  -26.8110   29.9450 C.3       4 GLP5        0.0000 
     64 CA         30.2595  -26.4825   33.6005 C.3       2 GLC5        0.0000 
     65 CA         28.2190  -25.8160   33.7130 C.3       4 GLP5        0.0000 
     66 CA         37.0515  -21.8820   37.5810 C.3       2 GLC5        0.0000 
     67 CA         35.1230  -21.5450   37.1260 C.3       6 GLL5        0.0000 
     68 CA         38.7650  -22.8100   38.3420 C.3       4 GLP5        0.0000 
     69 CA         36.7960  -21.4235   35.3885 C.3       2 GLC5        0.0000 
     70 CA         38.2540  -21.8930   33.9570 C.3       4 GLP5        0.0000 
     71 CA         34.0185  -20.7990   35.3365 C.3       2 GLC5        0.0000 
     72 CA         35.5530  -20.3630   36.5140 C.3       6 GLL5        0.0000 
     73 CA         36.2045  -22.9647   38.9795 C.3       2 GLC5        0.0000 
     74 CA         34.7450  -21.4820   38.6280 C.3       6 GLL5        0.0000 
     75 CA         37.8940  -23.8830   38.9670 C.3       4 GLP5        0.0000 
     76 CA         32.6362  -23.6547   40.6520 C.3       2 GLC5        0.0000 
     77 CA         34.0960  -22.0240   40.6240 C.3       6 GLL5        0.0000 
     78 CA         36.4592  -18.3980   41.4163 C.3       2 GLC5        0.0000 
     79 CA         35.1623  -20.4420   43.9783 C.3       2 GLC5        0.0000 
     80 CA         35.6930  -19.3890   42.5170 C.3       6 GLL5        0.0000 
     81 CA         35.3010  -21.3680   45.8070 C.3       4 GLP5        0.0000 
     82 CA         34.0620  -15.6902   37.8757 C.3       2 GLC5        0.0000 
     83 CA         35.1570  -17.0080   36.1870 C.3       6 GLL5        0.0000 
     84 CA         33.3490  -14.6480   39.1090 C.3       4 GLP5        0.0000 
     85 CA         36.1932  -15.1644   37.3566 C.3       2 GLC5        0.0000 
     86 CA         37.4290  -13.8260   38.2080 C.3       4 GLP5        0.0000 
     87 CA         33.1847  -16.8241   34.7884 C.3       2 GLC5        0.0000 
     88 CA         31.7710  -16.4800   33.6230 C.3       4 GLP5        0.0000 
     89 CA         37.6752  -18.7348   41.6573 C.3       2 GLC5        0.0000 
     90 CA         36.8240  -20.2830   42.3070 C.3       6 GLL5        0.0000 
     91 CA         36.3783  -20.7787   44.2193 C.3       2 GLC5        0.0000 
     92 CA         38.6212  -16.8590   44.1492 C.3       2 GLC5        0.0000 
     93 CA         38.2510  -18.9770   43.8610 C.3       6 GLL5        0.0000 
     94 CA         39.5320  -15.1960   44.3170 C.3       4 GLP5        0.0000 
     95 CA         37.8028  -17.9010   42.3323 C.3       2 GLC5        0.0000 
     96 CA         37.1700  -18.0670   44.1020 C.3       6 GLL5        0.0000 
     97 CA         37.7097  -18.2865   45.9707 C.3       2 GLC5        0.0000 
     98 CA         37.7090  -18.0510   47.9600 C.3       4 GLP5        0.0000 
     99 CA         36.5963  -17.4808   42.1483 C.3       2 GLC5        0.0000 
    100 CA         35.9050  -18.2620   43.4380 C.3       6 GLL5        0.0000 
    101 CA         33.6228  -18.2598   44.3633 C.3       2 GLC5        0.0000 
    102 CA         31.9480  -18.8380   45.1130 C.3       4 GLP5        0.0000 
    103 CA         36.0544  -19.8800   44.7584 C.3       2 GLC5        0.0000 
    104 CA         32.2135  -25.0568   39.4735 C.3       2 GLC5        0.0000 
    105 CA         33.3330  -24.4120   37.6950 C.3       6 GLL5        0.0000 
    106 CA         33.8667  -25.6960   34.7585 C.3       2 GLC5        0.0000 
    107 CA         32.7410  -26.5240   36.5110 C.3       6 GLL5        0.0000 
    108 CA         30.2848  -25.0892   35.2598 C.3       2 GLC5        0.0000 
    109 CA         32.0300  -25.7860   35.4630 C.3       6 GLL5        0.0000 
    110 CA         28.5720  -25.1090   35.0200 C.3       4 GLP5        0.0000 
    111 CA         33.8132  -24.6235   34.8023 C.3       2 GLC5        0.0000 
    112 CA         32.7775  -21.0275   39.6620 C.3       2 GLC5        0.0000 
@<TRIPOS>BOND
@<TRIPOS>SUBSTRUCTURE
     1 SEC2       42 GROUP        1 X    SEC  0     ROOT SEC X 2
     2 GLC5        1 GROUP        1 X    GLC  0     **** GLC X 6
     3 SEP2       44 GROUP        1 Y    SEP  0     ROOT SEP Y 9
     4 GLP5        3 GROUP        1 Y    GLP  0     **** GLP Y 13
     5 SEL2       43 GROUP        1 Z    SEL  0     ROOT SEL Z 16
     6 GLL5        2 GROUP        1 Z    GLL  0     **** GLL Z 20
@<TRIPOS>SET

