#    Name: 2p4y_C03_2_ligand
#    Modification time : Mon Mar 24 18:20:42 2014

@<TRIPOS>MOLECULE
2p4y_C03_2_ligand
   61    65     1     0     0
SMALL
NO_CHARGES


@<TRIPOS>ATOM
      1 C1         35.5530  -20.3630   36.5140 C.ar      1 C03478      0.0000 
      2 C2         35.1230  -21.5450   37.1260 C.ar      1 C03478      0.0000 
      3 C3         34.7450  -21.4820   38.6280 C.ar      1 C03478      0.0000 
      4 C4         34.8220  -20.3390   39.3520 C.ar      1 C03478      0.0000 
      5 C5         35.2640  -19.1410   38.7160 C.ar      1 C03478      0.0000 
      6 C6         35.6290  -19.1400   37.2970 C.ar      1 C03478      0.0000 
      7 C10        34.2850  -22.6110   39.3560 C.2       1 C03478      0.0000 
      8 C11        34.0960  -22.0240   40.6240 C.2       1 C03478      0.0000 
      9 N12        34.4160  -20.6290   40.6570 N.pl3     1 C03478      0.0000 
     10 C13        34.0650  -24.0340   38.8790 C.2       1 C03478      0.0000 
     11 C14        33.6010  -22.7630   41.8540 C.3       1 C03478      0.0000 
     12 C18        34.3540  -19.6430   41.7820 C.3       1 C03478      0.0000 
     13 O19        36.0350  -17.9250   36.7820 O.3       1 C03478      0.0000 
     14 C20        35.1570  -17.0080   36.1870 C.3       1 C03478      0.0000 
     15 F21        35.8870  -16.0890   35.6380 F         1 C03478      0.0000 
     16 F22        34.3930  -16.4570   37.0980 F         1 C03478      0.0000 
     17 F23        34.4220  -17.6040   35.2650 F         1 C03478      0.0000 
     18 C24        35.6930  -19.3890   42.5170 C.ar      1 C03478      0.0000 
     19 C27        36.8240  -20.2830   42.3070 C.ar      1 C03478      0.0000 
     20 C28        38.0870  -20.0960   42.9560 C.ar      1 C03478      0.0000 
     21 C29        38.2510  -18.9770   43.8610 C.ar      1 C03478      0.0000 
     22 C30        37.1700  -18.0670   44.1020 C.ar      1 C03478      0.0000 
     23 C31        35.9050  -18.2620   43.4380 C.ar      1 C03478      0.0000 
     24 CL1        34.6900  -17.1010   43.7890 Cl        1 C03478      0.0000 
     25 O36        39.1190  -21.0300   42.6350 O.3       1 C03478      0.0000 
     26 C37        39.6110  -22.0330   43.5290 C.3       1 C03478      0.0000 
     27 C38        40.7330  -22.7690   42.7730 C.3       1 C03478      0.0000 
     28 C42        38.5960  -23.1140   43.8820 C.2       1 C03478      0.0000 
     29 O44        38.5120  -23.5820   44.9570 O.co2     1 C03478      0.0000 
     30 O45        37.8170  -23.4670   42.8260 O.co2     1 C03478      0.0000 
     31 N46        34.4690  -25.2390   39.3950 N.2       1 C03478      0.0000 
     32 O47        34.0650  -26.2870   38.6420 O.3       1 C03478      0.0000 
     33 C48        33.3570  -25.8310   37.5710 C.ar      1 C03478      0.0000 
     34 C49        33.3330  -24.4120   37.6950 C.ar      1 C03478      0.0000 
     35 C50        32.7410  -26.5240   36.5110 C.ar      1 C03478      0.0000 
     36 C51        32.0300  -25.7860   35.4630 C.ar      1 C03478      0.0000 
     37 C52        31.9650  -24.3530   35.5360 C.ar      1 C03478      0.0000 
     38 C53        32.5920  -23.6670   36.6130 C.ar      1 C03478      0.0000 
     39 O57        31.4550  -26.5590   34.4520 O.3       1 C03478      0.0000 
     40 C58        32.3000  -27.1490   33.4880 C.3       1 C03478      0.0000 
     41 H          35.8144  -20.3335   35.5363 H         1 C03478      0.0000 
     42 H          35.0396  -22.4198   36.6799 H         1 C03478      0.0000 
     43 H          35.3320  -18.2728   39.2367 H         1 C03478      0.0000 
     44 H          33.6122  -19.9797   42.5361 H         1 C03478      0.0000 
     45 H          33.9836  -18.6666   41.4057 H         1 C03478      0.0000 
     46 H          36.7002  -21.0779   41.6645 H         1 C03478      0.0000 
     47 H          39.1441  -18.8413   44.3267 H         1 C03478      0.0000 
     48 H          37.2906  -17.2880   44.7363 H         1 C03478      0.0000 
     49 H          40.0369  -21.6374   44.4133 H         1 C03478      0.0000 
     50 H          32.7751  -27.5359   36.4499 H         1 C03478      0.0000 
     51 H          31.4703  -23.8354   34.8163 H         1 C03478      0.0000 
     52 H          32.5607  -22.6556   36.6874 H         1 C03478      0.0000 
     53 H          34.2088  -23.5166   42.1041 H         1 C03478      0.0000 
     54 H          33.5388  -22.1602   42.6495 H         1 C03478      0.0000 
     55 H          32.6920  -23.1546   41.7112 H         1 C03478      0.0000 
     56 H          41.4729  -22.1493   42.5112 H         1 C03478      0.0000 
     57 H          41.1406  -23.4944   43.3276 H         1 C03478      0.0000 
     58 H          40.3971  -23.1957   41.9333 H         1 C03478      0.0000 
     59 H          32.8256  -26.4628   32.9851 H         1 C03478      0.0000 
     60 H          32.9588  -27.7752   33.9050 H         1 C03478      0.0000 
     61 H          31.7828  -27.6748   32.8128 H         1 C03478      0.0000 
@<TRIPOS>BOND
     1    2    1 ar   
     2    6    1 ar   
     3   41    1 1    
     4    3    2 ar   
     5   42    2 1    
     6    4    3 ar   
     7    7    3 1    
     8    5    4 ar   
     9    9    4 1    
    10    6    5 ar   
    11   43    5 1    
    12   13    6 1    
    13    8    7 2    
    14   10    7 1    
    15    9    8 1    
    16   11    8 1    
    17   12    9 1    
    18   31   10 2    
    19   34   10 1    
    20   53   11 1    
    21   54   11 1    
    22   55   11 1    
    23   18   12 1    
    24   44   12 1    
    25   45   12 1    
    26   14   13 1    
    27   15   14 1    
    28   16   14 1    
    29   17   14 1    
    30   19   18 ar   
    31   23   18 ar   
    32   20   19 ar   
    33   46   19 1    
    34   21   20 ar   
    35   25   20 1    
    36   22   21 ar   
    37   47   21 1    
    38   23   22 ar   
    39   48   22 1    
    40   24   23 1    
    41   26   25 1    
    42   27   26 1    
    43   28   26 1    
    44   49   26 1    
    45   56   27 1    
    46   57   27 1    
    47   58   27 1    
    48   29   28 ar   
    49   30   28 ar   
    50   32   31 1    
    51   33   32 1    
    52   34   33 ar   
    53   35   33 ar   
    54   38   34 ar   
    55   36   35 ar   
    56   50   35 1    
    57   37   36 ar   
    58   39   36 1    
    59   38   37 ar   
    60   51   37 1    
    61   52   38 1    
    62   40   39 1    
    63   59   40 1    
    64   60   40 1    
    65   61   40 1    
@<TRIPOS>SUBSTRUCTURE
     1 C03478      1 GROUP   
@<TRIPOS>SET

