#    Name: 3ghw_GHW_1_INTS_M
#    Modification time : Tue Mar 25 12:33:15 2014

@<TRIPOS>MOLECULE
3ghw_GHW_1_INTS_M
   60     0    12     0     0
SMALL
NO_CHARGES


@<TRIPOS>ATOM
      1 CA         -2.8045   18.8650    4.3475 C.3       4 GLC5        0.0000 
      2 CA         -2.7060   18.5750    2.5570 C.3      12 GLL5        0.0000 
      3 CA         -2.9030   19.1550    6.1380 C.3       8 GLP5        0.0000 
      4 CA         -1.2565   20.0345    2.5895 C.3       4 GLC5        0.0000 
      5 CA          0.1930   21.4940    2.6220 C.3       8 GLP5        0.0000 
      6 CA         -4.0455   19.5430    3.0470 C.3       4 GLC5        0.0000 
      7 CA         -5.3850   20.5110    3.5370 C.3       8 GLP5        0.0000 
      8 O          -4.1245   17.1880   -4.6430 O.2       1 ALC1        0.0000 
      9 O          -3.7350   17.8880   -3.5080 O.2       9 ALL1        0.0000 
     10 O          -4.5140   16.4880   -5.7780 O.2       5 ALP1        0.0000 
     11 O          -3.4005   18.8560   -6.0100 O.2       1 ALC1        0.0000 
     12 O          -2.9710   19.6300   -4.9030 O.2       9 ALL1        0.0000 
     13 O          -3.8300   18.0820   -7.1170 O.2       5 ALP1        0.0000 
     14 CA         -0.9250   21.2630   -0.8105 C.3       4 GLC5        0.0000 
     15 CA         -2.4780   20.0100    0.0950 C.3      12 GLL5        0.0000 
     16 CA          0.6280   22.5160   -1.7160 C.3       8 GLP5        0.0000 
     17 CA         -1.1425   20.7520    1.3585 C.3       4 GLC5        0.0000 
     18 CA         -6.2125   16.1815    0.9250 C.3       4 GLC5        0.0000 
     19 CA         -4.2610   16.2320    0.9780 C.3      12 GLL5        0.0000 
     20 CA         -8.1640   16.1310    0.8720 C.3       8 GLP5        0.0000 
     21 CA         -4.2850   14.5790   -0.3730 C.3       4 GLC5        0.0000 
     22 CA         -4.3090   12.9260   -1.7240 C.3       8 GLP5        0.0000 
     23 CA         -5.4180   18.0685    1.2530 C.3       4 GLC5        0.0000 
     24 CA         -6.5750   19.9050    1.5280 C.3       8 GLP5        0.0000 
     25 CA         -2.2210   11.4140    3.0070 C.3       4 GLC5        0.0000 
     26 CA         -2.0300   12.9170    1.6110 C.3      12 GLL5        0.0000 
     27 CA         -2.4120    9.9110    4.4030 C.3       8 GLP5        0.0000 
     28 N           0.5530    9.7500    1.5680 N.am      2 SEC2        0.0000 
     29 N           0.0690   11.0970    1.3960 N.am     10 SEL2        0.0000 
     30 N           1.0370    8.4030    1.7400 N.am      6 SEP2        0.0000 
     31 CA          2.4470   10.4110    1.8560 C.3       4 GLC5        0.0000 
     32 CA          2.5160   11.6500    0.0990 C.3      12 GLL5        0.0000 
     33 CA          2.3780    9.1720    3.6130 C.3       8 GLP5        0.0000 
     34 CA          2.8955   12.8150    1.5645 C.3       4 GLC5        0.0000 
     35 CA          3.2750   13.9800    3.0300 C.3       8 GLP5        0.0000 
     36 NZ          4.4955   14.8015   -0.4765 N.4       3 LYC4        0.0000 
     37 NZ          3.4950   13.7760   -0.7020 N.4      11 LYL4        0.0000 
     38 NZ          6.6440   15.3230    0.2020 N.4       7 LYP4        0.0000 
     39 N           4.4955   14.8015   -0.4765 N.am      2 SEC2        0.0000 
     40 N           3.4950   13.7760   -0.7020 N.am     10 SEL2        0.0000 
     41 N           5.4960   15.8270   -0.2510 N.am      6 SEP2        0.0000 
     42 N           5.1400   13.8855   -0.2260 N.am      2 SEC2        0.0000 
     43 N           6.7850   13.9950    0.2500 N.am      6 SEP2        0.0000 
     44 NZ          5.1400   13.8855   -0.2260 N.4       3 LYC4        0.0000 
     45 NZ          4.8460   11.9930   -0.3190 N.4      11 LYL4        0.0000 
     46 N           5.3500   11.4790   -1.6120 N.am      2 SEC2        0.0000 
     47 N           4.8460   11.9930   -0.3190 N.am     10 SEL2        0.0000 
     48 N           5.8540   10.9650   -2.9050 N.am      6 SEP2        0.0000 
     49 N           5.8155   12.9940   -0.0345 N.am      2 SEC2        0.0000 
     50 CA          0.1950   11.4480   -3.3695 C.3       4 GLC5        0.0000 
     51 CA          2.0740   11.0180   -2.3560 C.3      12 GLL5        0.0000 
     52 CA         -1.6840   11.8780   -4.3830 C.3       8 GLP5        0.0000 
     53 CA          3.2680   12.4030   -3.2185 C.3       4 GLC5        0.0000 
     54 CA          4.4620   13.7880   -4.0810 C.3       8 GLP5        0.0000 
     55 CA         -3.6340   21.2875   -1.5787 C.3       4 GLC5        0.0000 
     56 CA         -2.9980   19.2780   -1.3860 C.3      12 GLL5        0.0000 
     57 CA         -4.5300   22.9310   -2.5120 C.3       8 GLP5        0.0000 
     58 CA         -1.7383   13.9230    3.5400 C.3       4 GLC5        0.0000 
     59 CA         -3.0570   13.8910    1.6570 C.3      12 GLL5        0.0000 
     60 CA         -0.9330   14.4420    5.4460 C.3       8 GLP5        0.0000 
@<TRIPOS>BOND
@<TRIPOS>SUBSTRUCTURE
     1 ALC1        8 GROUP        1 X    ALC  0     ROOT ALC X 1
     2 SEC2       28 GROUP        1 X    SEC  0     **** SEC X 2
     3 LYC4       36 GROUP        1 X    LYC  0     **** LYC X 4
     4 GLC5        1 GROUP        1 X    GLC  0     **** GLC X 6
     5 ALP1       10 GROUP        1 Y    ALP  0     ROOT ALP Y 8
     6 SEP2       30 GROUP        1 Y    SEP  0     **** SEP Y 9
     7 LYP4       38 GROUP        1 Y    LYP  0     **** LYP Y 11
     8 GLP5        3 GROUP        1 Y    GLP  0     **** GLP Y 13
     9 ALL1        9 GROUP        1 Z    ALL  0     ROOT ALL Z 15
    10 SEL2       29 GROUP        1 Z    SEL  0     **** SEL Z 16
    11 LYL4       37 GROUP        1 Z    LYL  0     **** LYL Z 18
    12 GLL5        2 GROUP        1 Z    GLL  0     **** GLL Z 20
@<TRIPOS>SET

