#    Name: 3ghw_GHW_1_ligand
#    Modification time : Tue Mar 25 12:33:15 2014

@<TRIPOS>MOLECULE
3ghw_GHW_1_ligand
   47    49     1     0     0
SMALL
NO_CHARGES


@<TRIPOS>ATOM
      1 C4         -2.9980   19.2780   -1.3860 C.2       1 GHW187      0.0000 
      2 C5         -3.5390   18.0360   -1.1630 C.2       1 GHW187      0.0000 
      3 C6         -4.0430   17.3040   -2.2850 C.2       1 GHW187      0.0000 
      4 C13        -2.7060   18.5750    2.5570 C.3       1 GHW187      0.0000 
      5 N1         -3.7350   17.8880   -3.5080 N.am      1 GHW187      0.0000 
      6 N2         -2.9710   19.6300   -4.9030 N.pl3     1 GHW187      0.0000 
      7 C3         -2.9990   18.6910    1.0110 C.2       1 GHW187      0.0000 
      8 N3         -2.7700   19.8440   -2.6380 N.2       1 GHW187      0.0000 
      9 S4         -2.4780   20.0100    0.0950 S.3       1 GHW187      0.0000 
     10 C2         -3.1540   19.1130   -3.6360 C.2       1 GHW187      0.0000 
     11 O6         -4.6090   16.1960   -2.2750 O.2       1 GHW187      0.0000 
     12 C1         -3.5870   17.6860    0.2340 C.2       1 GHW187      0.0000 
     13 SAT        -4.2610   16.2320    0.9780 S.3       1 GHW187      0.0000 
     14 CAZ        -2.8740   15.0650    0.9310 C.ar      1 GHW187      0.0000 
     15 CAJ        -3.0570   13.8910    1.6570 C.ar      1 GHW187      0.0000 
     16 CAL        -2.0300   12.9170    1.6110 C.ar      1 GHW187      0.0000 
     17 CAI        -1.7890   15.2870    0.1690 C.ar      1 GHW187      0.0000 
     18 CAK        -0.8000   14.3570    0.1350 C.ar      1 GHW187      0.0000 
     19 CBA        -0.9030   13.1740    0.8770 C.ar      1 GHW187      0.0000 
     20 CAX         0.2150   12.2070    0.8130 C.2       1 GHW187      0.0000 
     21 OAE         0.0690   11.0970    1.3960 O.2       1 GHW187      0.0000 
     22 NAS         1.3320   12.5390    0.1560 N.am      1 GHW187      0.0000 
     23 CAP         2.5160   11.6500    0.0990 C.3       1 GHW187      0.0000 
     24 CAW         3.6950   12.5550   -0.3870 C.2       1 GHW187      0.0000 
     25 OAG         3.4950   13.7760   -0.7020 O.co2     1 GHW187      0.0000 
     26 OAD         4.8460   11.9930   -0.3190 O.co2     1 GHW187      0.0000 
     27 CBG         2.3190   10.4740   -0.9350 C.3       1 GHW187      0.0000 
     28 CAN         2.0740   11.0180   -2.3560 C.3       1 GHW187      0.0000 
     29 CAV         1.7300    9.9280   -3.3620 C.2       1 GHW187      0.0000 
     30 OXT         1.3650    8.8240   -2.8950 O.co2     1 GHW187      0.0000 
     31 OAC         1.5980   10.2630   -4.5590 O.co2     1 GHW187      0.0000 
     32 H          -3.9700   17.3400   -4.3836 H         1 GHW187      0.0000 
     33 H          -2.4860   20.5029   -4.9562 H         1 GHW187      0.0000 
     34 H          -3.3394   19.0867   -5.6574 H         1 GHW187      0.0000 
     35 H          -3.8905   13.7289    2.2018 H         1 GHW187      0.0000 
     36 H          -2.1485   12.0428    2.1249 H         1 GHW187      0.0000 
     37 H          -1.7023   16.1563   -0.3887 H         1 GHW187      0.0000 
     38 H           0.0494   14.5074   -0.4418 H         1 GHW187      0.0000 
     39 H           1.4329   13.4421   -0.3532 H         1 GHW187      0.0000 
     40 H           2.7623   11.2592    1.0397 H         1 GHW187      0.0000 
     41 H           1.4682    9.8830   -0.6182 H         1 GHW187      0.0000 
     42 H           3.2130    9.8622   -0.9270 H         1 GHW187      0.0000 
     43 H           2.9756   11.5485   -2.6885 H         1 GHW187      0.0000 
     44 H           1.2548   11.7475   -2.3157 H         1 GHW187      0.0000 
     45 H          -1.7247   18.5691    2.7496 H         1 GHW187      0.0000 
     46 H          -3.1004   19.3387    3.0681 H         1 GHW187      0.0000 
     47 H          -3.0859   17.7353    2.9450 H         1 GHW187      0.0000 
@<TRIPOS>BOND
     1    2    1 2    
     2    8    1 1    
     3    9    1 1    
     4    3    2 1    
     5   12    2 1    
     6    5    3 am   
     7   11    3 2    
     8    7    4 1    
     9   45    4 1    
    10   46    4 1    
    11   47    4 1    
    12   10    5 1    
    13   32    5 1    
    14   10    6 1    
    15   33    6 1    
    16   34    6 1    
    17    9    7 1    
    18   12    7 2    
    19   10    8 2    
    20   13   12 1    
    21   14   13 1    
    22   15   14 ar   
    23   17   14 ar   
    24   16   15 ar   
    25   35   15 1    
    26   19   16 ar   
    27   36   16 1    
    28   18   17 ar   
    29   37   17 1    
    30   19   18 ar   
    31   38   18 1    
    32   20   19 1    
    33   21   20 2    
    34   22   20 am   
    35   23   22 1    
    36   39   22 1    
    37   24   23 1    
    38   27   23 1    
    39   40   23 1    
    40   25   24 ar   
    41   26   24 ar   
    42   28   27 1    
    43   41   27 1    
    44   42   27 1    
    45   29   28 1    
    46   43   28 1    
    47   44   28 1    
    48   30   29 ar   
    49   31   29 ar   
@<TRIPOS>SUBSTRUCTURE
     1 GHW187      1 GROUP   
@<TRIPOS>SET

