#    Name: 2fw3_BUI_1_INTS_M
#    Modification time : Tue Mar 25 13:11:33 2014

@<TRIPOS>MOLECULE
2fw3_BUI_1_INTS_M
   84     0     9     0     0
SMALL
NO_CHARGES


@<TRIPOS>ATOM
      1 N          28.3335   10.1445   31.0935 N.am      2 SEC2        0.0000 
      2 N          27.7370   10.0010   32.4040 N.am      8 SEL2        0.0000 
      3 N          28.9300   10.2880   29.7830 N.am      5 SEP2        0.0000 
      4 N          28.6070    9.2155   33.0465 N.am      2 SEC2        0.0000 
      5 N          29.4770    8.4300   33.6890 N.am      5 SEP2        0.0000 
      6 N          26.3520   11.9745   31.3150 N.am      2 SEC2        0.0000 
      7 N          25.8540   10.7190   31.4910 N.am      8 SEL2        0.0000 
      8 N          26.8500   13.2300   31.1390 N.am      5 SEP2        0.0000 
      9 N          25.4805   10.2185   30.2985 N.am      2 SEC2        0.0000 
     10 N          25.1070    9.7180   29.1060 N.am      5 SEP2        0.0000 
     11 CA         24.0370    9.7865   31.0120 C.3       3 GLC5        0.0000 
     12 CA         24.1790    9.1310   33.1180 C.3       9 GLL5        0.0000 
     13 CA         23.8950   10.4420   28.9060 C.3       6 GLP5        0.0000 
     14 CA         20.4705    9.5010   32.3400 C.3       3 GLC5        0.0000 
     15 CA         21.3620   10.0350   34.2790 C.3       9 GLL5        0.0000 
     16 CA         19.5790    8.9670   30.4010 C.3       6 GLP5        0.0000 
     17 CA         19.7880   10.4005   35.1565 C.3       3 GLC5        0.0000 
     18 CA         18.2140   10.7660   36.0340 C.3       6 GLP5        0.0000 
     19 CA         23.3880   12.5975   31.7430 C.3       3 GLC5        0.0000 
     20 CA         22.2860   11.5170   32.6320 C.3       9 GLL5        0.0000 
     21 CA         24.4900   13.6780   30.8540 C.3       6 GLP5        0.0000 
     22 CA         23.0905   10.9795   30.7690 C.3       3 GLC5        0.0000 
     23 CA         20.9325   10.2420   31.5165 C.3       3 GLC5        0.0000 
     24 CA         20.2345   11.7800   34.9270 C.3       3 GLC5        0.0000 
     25 CA         22.4240   11.9880   34.9730 C.3       9 GLL5        0.0000 
     26 CA         18.0450   11.5720   34.8810 C.3       6 GLP5        0.0000 
     27 CA         22.1030   13.2290   36.2660 C.3       3 GLC5        0.0000 
     28 CA         21.7820   14.4700   37.5590 C.3       6 GLP5        0.0000 
     29 O          24.4085    7.0755   34.6125 O.2       1 ALC1        0.0000 
     30 O          23.5840    7.9080   33.6690 O.2       7 ALL1        0.0000 
     31 O          25.2330    6.2430   35.5560 O.2       4 ALP1        0.0000 
     32 N          21.6580    7.7615   30.8950 N.am      2 SEC2        0.0000 
     33 N          22.6920    7.4560   31.6740 N.am      8 SEL2        0.0000 
     34 N          20.6240    8.0670   30.1160 N.am      5 SEP2        0.0000 
     35 CA         20.4680    2.2830   33.2620 C.3       3 GLC5        0.0000 
     36 CA         20.4290    4.4580   33.5690 C.3       9 GLL5        0.0000 
     37 CA         20.5070    0.1080   32.9550 C.3       6 GLP5        0.0000 
     38 CA         21.6885    3.2785   34.6330 C.3       3 GLC5        0.0000 
     39 CA         22.9480    2.0990   35.6970 C.3       6 GLP5        0.0000 
     40 CA         18.4320    6.8350   34.0730 C.3       3 GLC5        0.0000 
     41 CA         18.9530    4.8750   33.4300 C.3       9 GLL5        0.0000 
     42 CA         17.9110    8.7950   34.7160 C.3       6 GLP5        0.0000 
     43 CA         19.2590    3.3865   30.6555 C.3       3 GLC5        0.0000 
     44 CA         18.4310    4.7530   32.0110 C.3       9 GLL5        0.0000 
     45 CA         20.0870    2.0200   29.3000 C.3       6 GLP5        0.0000 
     46 CA         15.2905    3.9570   33.0160 C.3       3 GLC5        0.0000 
     47 CA         16.9150    4.9990   31.9480 C.3       9 GLL5        0.0000 
     48 CA         13.6660    2.9150   34.0840 C.3       6 GLP5        0.0000 
     49 CA         16.9515    5.8810   28.6810 C.3       3 GLC5        0.0000 
     50 CA         16.3310    4.8820   30.5350 C.3       9 GLL5        0.0000 
     51 CA         17.5720    6.8800   26.8270 C.3       6 GLP5        0.0000 
     52 CA         16.8880    3.0105   28.9170 C.3       3 GLC5        0.0000 
     53 CA         15.4030    3.6680   30.4390 C.3       9 GLL5        0.0000 
     54 CA         18.3730    2.3530   27.3950 C.3       6 GLP5        0.0000 
     55 CA         14.5345    3.2915   32.2615 C.3       3 GLC5        0.0000 
     56 CA         13.7235    6.1525   31.1115 C.3       3 GLC5        0.0000 
     57 CA         13.1460    4.7240   29.9610 C.3       9 GLL5        0.0000 
     58 CA         14.3010    7.5810   32.2620 C.3       6 GLP5        0.0000 
     59 CA         12.9545    6.5260   28.9315 C.3       3 GLC5        0.0000 
     60 CA         12.7630    8.3280   27.9020 C.3       6 GLP5        0.0000 
     61 CA         11.2655    2.6560   30.9970 C.3       3 GLC5        0.0000 
     62 CA         11.8080    4.0280   29.7190 C.3       9 GLL5        0.0000 
     63 CA         10.7230    1.2840   32.2750 C.3       6 GLP5        0.0000 
     64 CA          9.7500    6.9295   29.8405 C.3       3 GLC5        0.0000 
     65 CA         10.5940    4.8650   30.1240 C.3       9 GLL5        0.0000 
     66 CA          8.9060    8.9940   29.5570 C.3       6 GLP5        0.0000 
     67 CA         10.3045    5.9610   31.8765 C.3       3 GLC5        0.0000 
     68 CA         10.0150    7.0570   33.6290 C.3       6 GLP5        0.0000 
     69 CA          8.4850    6.9935   29.7000 C.3       3 GLC5        0.0000 
     70 CA          8.0640    4.9930   29.8430 C.3       9 GLL5        0.0000 
     71 CA          6.1750    5.6750   32.1795 C.3       3 GLC5        0.0000 
     72 CA          7.0850    4.2570   30.7270 C.3       9 GLL5        0.0000 
     73 CA          5.2650    7.0930   33.6320 C.3       6 GLP5        0.0000 
     74 CA          8.3465    3.1495   31.8680 C.3       3 GLC5        0.0000 
     75 CA          9.6080    2.0420   33.0090 C.3       6 GLP5        0.0000 
     76 CA         19.9020    4.8022   35.3773 C.3       3 GLC5        0.0000 
     77 CA         20.1130    4.9380   37.2550 C.3       6 GLP5        0.0000 
     78 CA         15.1570    5.9426   31.5511 C.3       3 GLC5        0.0000 
     79 CA         12.5521    4.2309   27.7037 C.3       3 GLC5        0.0000 
     80 CA         12.3420    4.3010   25.7050 C.3       6 GLP5        0.0000 
     81 CA          9.7867    3.2837   31.4348 C.3       3 GLC5        0.0000 
     82 CA          8.1867    5.6263   28.2680 C.3       3 GLC5        0.0000 
     83 CA          9.3370    4.1860   29.5970 C.3       9 GLL5        0.0000 
     84 CA          7.6730    6.6630   26.8160 C.3       6 GLP5        0.0000 
@<TRIPOS>BOND
@<TRIPOS>SUBSTRUCTURE
     1 ALC1       29 GROUP        1 X    ALC  0     ROOT ALC X 1
     2 SEC2        1 GROUP        1 X    SEC  0     **** SEC X 2
     3 GLC5       11 GROUP        1 X    GLC  0     **** GLC X 6
     4 ALP1       31 GROUP        1 Y    ALP  0     ROOT ALP Y 8
     5 SEP2        3 GROUP        1 Y    SEP  0     **** SEP Y 9
     6 GLP5       13 GROUP        1 Y    GLP  0     **** GLP Y 13
     7 ALL1       30 GROUP        1 Z    ALL  0     ROOT ALL Z 15
     8 SEL2        2 GROUP        1 Z    SEL  0     **** SEL Z 16
     9 GLL5       12 GROUP        1 Z    GLL  0     **** GLL Z 20
@<TRIPOS>SET

