#    Name: 2fw3_BUI_1_ligand
#    Modification time : Tue Mar 25 13:11:33 2014

@<TRIPOS>MOLECULE
2fw3_BUI_1_ligand
   73    72     1     0     0
SMALL
NO_CHARGES


@<TRIPOS>ATOM
      1 O9         27.7370   10.0010   32.4040 O.co2     1 BUI900      0.0000 
      2 C3         26.4760    9.9220   32.2400 C.2       1 BUI900      0.0000 
      3 O8         25.8540   10.7190   31.4910 O.co2     1 BUI900      0.0000 
      4 C2         25.6900    8.8300   32.9560 C.3       1 BUI900      0.0000 
      5 C5         24.1790    9.1310   33.1180 C.3       1 BUI900      0.0000 
      6 C10        23.8600   10.2710   34.1080 C.3       1 BUI900      0.0000 
      7 N6         22.5080   10.9210   33.9700 N.4       1 BUI900      0.0000 
      8 C14        21.3620   10.0350   34.2790 C.3       1 BUI900      0.0000 
      9 C13        22.2860   11.5170   32.6320 C.3       1 BUI900      0.0000 
     10 C12        22.4240   11.9880   34.9730 C.3       1 BUI900      0.0000 
     11 N4         23.5840    7.9080   33.6690 N.am      1 BUI900      0.0000 
     12 C1         22.8390    7.1140   32.8520 C.2       1 BUI900      0.0000 
     13 O7         22.6920    7.4560   31.6740 O.2       1 BUI900      0.0000 
     14 N11        22.2500    5.9720   33.3090 N.am      1 BUI900      0.0000 
     15 C15        21.4280    5.0230   32.5590 C.3       1 BUI900      0.0000 
     16 C16        20.4290    4.4580   33.5690 C.3       1 BUI900      0.0000 
     17 C24        18.9530    4.8750   33.4300 C.3       1 BUI900      0.0000 
     18 C26        18.4310    4.7530   32.0110 C.3       1 BUI900      0.0000 
     19 C27        16.9150    4.9990   31.9480 C.3       1 BUI900      0.0000 
     20 C19        16.3310    4.8820   30.5350 C.3       1 BUI900      0.0000 
     21 C20        15.4030    3.6680   30.4390 C.3       1 BUI900      0.0000 
     22 C21        14.2870    3.8630   29.4110 C.3       1 BUI900      0.0000 
     23 C22        13.1460    4.7240   29.9610 C.3       1 BUI900      0.0000 
     24 C23        11.8080    4.0280   29.7190 C.3       1 BUI900      0.0000 
     25 C25        10.5940    4.8650   30.1240 C.3       1 BUI900      0.0000 
     26 C18         9.3370    4.1860   29.5970 C.3       1 BUI900      0.0000 
     27 C17         8.0640    4.9930   29.8430 C.3       1 BUI900      0.0000 
     28 C28         7.0850    4.2570   30.7270 C.3       1 BUI900      0.0000 
     29 H          26.1204    8.6687   33.9580 H         1 BUI900      0.0000 
     30 H          25.7970    7.8821   32.4034 H         1 BUI900      0.0000 
     31 H          23.7572    9.3448   32.1705 H         1 BUI900      0.0000 
     32 H          24.6541   11.0460   34.0055 H         1 BUI900      0.0000 
     33 H          23.9723    9.8689   35.1412 H         1 BUI900      0.0000 
     34 H          23.7531    7.7006   34.6464 H         1 BUI900      0.0000 
     35 H          22.3856    5.7046   34.3454 H         1 BUI900      0.0000 
     36 H          22.0196    4.2137   32.1712 H         1 BUI900      0.0000 
     37 H          20.8824    5.5132   31.7733 H         1 BUI900      0.0000 
     38 H          20.7719    4.7279   34.5988 H         1 BUI900      0.0000 
     39 H          20.4803    3.3412   33.5348 H         1 BUI900      0.0000 
     40 H          18.8499    5.9145   33.7700 H         1 BUI900      0.0000 
     41 H          18.3479    4.2470   34.0980 H         1 BUI900      0.0000 
     42 H          18.6414    3.7529   31.6279 H         1 BUI900      0.0000 
     43 H          18.9326    5.4820   31.3722 H         1 BUI900      0.0000 
     44 H          16.7019    6.0034   32.3408 H         1 BUI900      0.0000 
     45 H          16.4106    4.2755   32.6043 H         1 BUI900      0.0000 
     46 H          17.1419    4.7716   29.8210 H         1 BUI900      0.0000 
     47 H          15.7693    5.7826   30.3046 H         1 BUI900      0.0000 
     48 H          14.9563    3.4811   31.4217 H         1 BUI900      0.0000 
     49 H          15.9938    2.7875   30.1637 H         1 BUI900      0.0000 
     50 H          13.8906    2.8863   29.1223 H         1 BUI900      0.0000 
     51 H          14.6997    4.3432   28.5202 H         1 BUI900      0.0000 
     52 H          13.1487    5.6848   29.4586 H         1 BUI900      0.0000 
     53 H          13.2892    4.8698   31.0258 H         1 BUI900      0.0000 
     54 H          11.7909    3.0800   30.2800 H         1 BUI900      0.0000 
     55 H          11.7252    3.7731   28.6504 H         1 BUI900      0.0000 
     56 H          10.6802    5.8520   29.6941 H         1 BUI900      0.0000 
     57 H          10.5468    4.9293   31.2010 H         1 BUI900      0.0000 
     58 H           9.2327    3.2005   30.0753 H         1 BUI900      0.0000 
     59 H           9.4471    4.0141   28.5157 H         1 BUI900      0.0000 
     60 H           7.5922    5.2137   28.8782 H         1 BUI900      0.0000 
     61 H           8.3341    5.9473   30.3105 H         1 BUI900      0.0000 
     62 H          21.3358    9.2377   33.6759 H         1 BUI900      0.0000 
     63 H          21.4005    9.6916   35.2174 H         1 BUI900      0.0000 
     64 H          20.4876   10.5092   34.1761 H         1 BUI900      0.0000 
     65 H          22.9607   12.2253   32.4243 H         1 BUI900      0.0000 
     66 H          22.3468   10.8323   31.9057 H         1 BUI900      0.0000 
     67 H          21.3835   11.9417   32.5597 H         1 BUI900      0.0000 
     68 H          22.5229   11.6326   35.9025 H         1 BUI900      0.0000 
     69 H          23.1386   12.6756   34.8445 H         1 BUI900      0.0000 
     70 H          21.5467   12.4663   34.9339 H         1 BUI900      0.0000 
     71 H           7.4749    4.0553   31.6255 H         1 BUI900      0.0000 
     72 H           6.2521    4.7884   30.8816 H         1 BUI900      0.0000 
     73 H           6.8058    3.3845   30.3260 H         1 BUI900      0.0000 
@<TRIPOS>BOND
     1    2    1 ar   
     2    3    2 ar   
     3    4    2 1    
     4    5    4 1    
     5   29    4 1    
     6   30    4 1    
     7    6    5 1    
     8   11    5 1    
     9   31    5 1    
    10    7    6 1    
    11   32    6 1    
    12   33    6 1    
    13    8    7 1    
    14    9    7 1    
    15   10    7 1    
    16   62    8 1    
    17   63    8 1    
    18   64    8 1    
    19   65    9 1    
    20   66    9 1    
    21   67    9 1    
    22   68   10 1    
    23   69   10 1    
    24   70   10 1    
    25   12   11 am   
    26   34   11 1    
    27   13   12 2    
    28   14   12 am   
    29   15   14 1    
    30   35   14 1    
    31   16   15 1    
    32   36   15 1    
    33   37   15 1    
    34   17   16 1    
    35   38   16 1    
    36   39   16 1    
    37   18   17 1    
    38   40   17 1    
    39   41   17 1    
    40   19   18 1    
    41   42   18 1    
    42   43   18 1    
    43   20   19 1    
    44   44   19 1    
    45   45   19 1    
    46   21   20 1    
    47   46   20 1    
    48   47   20 1    
    49   22   21 1    
    50   48   21 1    
    51   49   21 1    
    52   23   22 1    
    53   50   22 1    
    54   51   22 1    
    55   24   23 1    
    56   52   23 1    
    57   53   23 1    
    58   25   24 1    
    59   54   24 1    
    60   55   24 1    
    61   26   25 1    
    62   56   25 1    
    63   57   25 1    
    64   27   26 1    
    65   58   26 1    
    66   59   26 1    
    67   28   27 1    
    68   60   27 1    
    69   61   27 1    
    70   71   28 1    
    71   72   28 1    
    72   73   28 1    
@<TRIPOS>SUBSTRUCTURE
     1 BUI900      1 GROUP   
@<TRIPOS>SET

