#    Name: 2amb_17H_1_INTS_M
#    Modification time : Mon Mar 24 19:24:35 2014

@<TRIPOS>MOLECULE
2amb_17H_1_INTS_M
   85     0     9     0     0
SMALL
NO_CHARGES


@<TRIPOS>ATOM
      1 CA         26.9040    8.2600    5.2455 C.3       3 GLC5        0.0000 
      2 CA         26.1860    6.5660    4.2300 C.3       9 GLL5        0.0000 
      3 CA         27.6220    9.9540    6.2610 C.3       6 GLP5        0.0000 
      4 CA         25.0110    5.8325    2.5030 C.3       3 GLC5        0.0000 
      5 CA         23.8360    5.0990    0.7760 C.3       6 GLP5        0.0000 
      6 CA         22.2705    6.2095    4.1235 C.3       3 GLC5        0.0000 
      7 CA         23.9360    5.3010    4.5210 C.3       9 GLL5        0.0000 
      8 CA         20.6050    7.1180    3.7260 C.3       6 GLP5        0.0000 
      9 CA         23.8860    5.2000    2.6485 C.3       3 GLC5        0.0000 
     10 CA         25.5135    3.3850    6.5135 C.3       3 GLC5        0.0000 
     11 CA         24.1130    2.7540    4.9660 C.3       9 GLL5        0.0000 
     12 CA         26.9140    4.0160    8.0610 C.3       6 GLP5        0.0000 
     13 CA         22.5295    2.3755    6.1670 C.3       3 GLC5        0.0000 
     14 CA         20.9460    1.9970    7.3680 C.3       6 GLP5        0.0000 
     15 CA         22.3340    1.8815    4.0935 C.3       3 GLC5        0.0000 
     16 CA         20.5550    1.0090    3.2210 C.3       6 GLP5        0.0000 
     17 CA         29.5425    4.4285    5.1115 C.3       3 GLC5        0.0000 
     18 CA         28.5290    2.8900    4.2100 C.3       9 GLL5        0.0000 
     19 CA         30.5560    5.9670    6.0130 C.3       6 GLP5        0.0000 
     20 CA         27.1010    4.5470    2.0095 C.3       3 GLC5        0.0000 
     21 CA         26.9780    5.4000    4.0800 C.3       9 GLL5        0.0000 
     22 CA         27.2240    3.6940   -0.0610 C.3       6 GLP5        0.0000 
     23 CA         28.7670    5.6835    5.0465 C.3       3 GLC5        0.0000 
     24 CA         26.6330    2.7890    6.4850 C.3       3 GLC5        0.0000 
     25 CA         26.3520    1.5620    4.9090 C.3       9 GLL5        0.0000 
     26 CA         31.1475    2.3460    3.6240 C.3       3 GLC5        0.0000 
     27 CA         29.3230    1.7300    4.1900 C.3       9 GLL5        0.0000 
     28 CA         32.9720    2.9620    3.0580 C.3       6 GLP5        0.0000 
     29 CA         24.9010   -1.7175    4.4770 C.3       3 GLC5        0.0000 
     30 CA         26.6720   -0.9750    4.3500 C.3       9 GLL5        0.0000 
     31 CA         23.1300   -2.4600    4.6040 C.3       6 GLP5        0.0000 
     32 CA         27.6695   -3.5885    3.3565 C.3       3 GLC5        0.0000 
     33 CA         27.9280   -1.7590    3.8640 C.3       9 GLL5        0.0000 
     34 CA         27.4110   -5.4180    2.8490 C.3       6 GLP5        0.0000 
     35 CA         30.3465    1.5355    8.6225 C.3       3 GLC5        0.0000 
     36 CA         30.1120    0.7600    7.0210 C.3       9 GLL5        0.0000 
     37 CA         30.5810    2.3110   10.2240 C.3       6 GLP5        0.0000 
     38 CA         32.2460    1.3645    7.2145 C.3       3 GLC5        0.0000 
     39 CA         34.3800    1.9690    7.4080 C.3       6 GLP5        0.0000 
     40 CA         31.4405   -0.3970    8.1195 C.3       3 GLC5        0.0000 
     41 CA         32.7690   -1.5540    9.2180 C.3       6 GLP5        0.0000 
     42 CA         29.0530   -3.5220    1.6335 C.3       3 GLC5        0.0000 
     43 CA         30.2000   -1.7920    1.7320 C.3       9 GLL5        0.0000 
     44 CA         27.9060   -5.2520    1.5350 C.3       6 GLP5        0.0000 
     45 CA         30.9560   -3.2305    1.7480 C.3       3 GLC5        0.0000 
     46 CA         31.7120   -4.6690    1.7640 C.3       6 GLP5        0.0000 
     47 CA         29.4240    1.0280    1.3125 C.3       3 GLC5        0.0000 
     48 CA         29.3560   -0.5200    2.2780 C.3       9 GLL5        0.0000 
     49 CA         29.4920    2.5760    0.3470 C.3       6 GLP5        0.0000 
     50 N          23.4555    8.7675    3.6495 N.am      2 SEC2        0.0000 
     51 N          24.0530    7.5960    3.9480 N.am      8 SEL2        0.0000 
     52 N          22.8580    9.9390    3.3510 N.am      5 SEP2        0.0000 
     53 N          30.4610   -2.0570    5.7245 N.am      2 SEC2        0.0000 
     54 N          30.3170   -1.3240    4.4910 N.am      8 SEL2        0.0000 
     55 N          30.6050   -2.7900    6.9580 N.am      5 SEP2        0.0000 
     56 O          31.3640   -0.4750    4.1760 O.2       1 ALC1        0.0000 
     57 O          30.3170   -1.3240    4.4910 O.2       7 ALL1        0.0000 
     58 O          32.4110    0.3740    3.8610 O.2       4 ALP1        0.0000 
     59 CA         27.1260    7.1195    2.7415 C.3       3 GLC5        0.0000 
     60 CA         27.6700    8.2560    1.3280 C.3       6 GLP5        0.0000 
     61 CA         26.7805    5.8895    6.0860 C.3       3 GLC5        0.0000 
     62 CA         26.9790    5.7960    8.0170 C.3       6 GLP5        0.0000 
     63 CA         24.2820    5.2568    6.4177 C.3       3 GLC5        0.0000 
     64 CA         24.7280    4.1340    4.6640 C.3       9 GLL5        0.0000 
     65 CA         24.2320    5.7960    8.2430 C.3       6 GLP5        0.0000 
     66 CA         23.2655    0.6975    5.4068 C.3       3 GLC5        0.0000 
     67 CA         22.0270   -0.7760    6.1630 C.3       6 GLP5        0.0000 
     68 CA         29.2090    2.4430    2.2735 C.3       3 GLC5        0.0000 
     69 CA         23.9890    3.4423    2.7721 C.3       3 GLC5        0.0000 
     70 CA         24.8950    1.5880    4.3350 C.3       9 GLL5        0.0000 
     71 CA         23.3620    3.7320    0.8870 C.3       6 GLP5        0.0000 
     72 CA         25.3560    1.0813    6.6614 C.3       3 GLC5        0.0000 
     73 CA         25.2840    0.2960    8.5430 C.3       6 GLP5        0.0000 
     74 CA         26.9679    3.7669    6.2459 C.3       3 GLC5        0.0000 
     75 CA         27.0300    2.9390    4.5530 C.3       9 GLL5        0.0000 
     76 CA         26.3870   -1.9550    2.4065 C.3       3 GLC5        0.0000 
     77 CA         25.4740   -2.5430    0.7060 C.3       6 GLP5        0.0000 
     78 CA         28.9917   -2.4240    5.4830 C.3       3 GLC5        0.0000 
     79 CA         29.4320   -3.5790    7.1460 C.3       6 GLP5        0.0000 
     80 CA         28.0150   -0.1668    7.8365 C.3       3 GLC5        0.0000 
     81 CA         28.7820    0.2990    6.2170 C.3       9 GLL5        0.0000 
     82 CA         26.5830   -0.8630    9.0540 C.3       6 GLP5        0.0000 
     83 CA         29.4395   -1.5248    6.8825 C.3       3 GLC5        0.0000 
     84 CA         29.5685   -1.5840    0.0670 C.3       3 GLC5        0.0000 
     85 CA         29.3590   -2.0120   -1.8710 C.3       6 GLP5        0.0000 
@<TRIPOS>BOND
@<TRIPOS>SUBSTRUCTURE
     1 ALC1       56 GROUP        1 X    ALC  0     ROOT ALC X 1
     2 SEC2       50 GROUP        1 X    SEC  0     **** SEC X 2
     3 GLC5        1 GROUP        1 X    GLC  0     **** GLC X 6
     4 ALP1       58 GROUP        1 Y    ALP  0     ROOT ALP Y 8
     5 SEP2       52 GROUP        1 Y    SEP  0     **** SEP Y 9
     6 GLP5        3 GROUP        1 Y    GLP  0     **** GLP Y 13
     7 ALL1       57 GROUP        1 Z    ALL  0     ROOT ALL Z 15
     8 SEL2       51 GROUP        1 Z    SEL  0     **** SEL Z 16
     9 GLL5        2 GROUP        1 Z    GLL  0     **** GLL Z 20
@<TRIPOS>SET

