#    Name: 2amb_17H_1_ligand
#    Modification time : Mon Mar 24 19:24:35 2014

@<TRIPOS>MOLECULE
2amb_17H_1_ligand
   51    54     1     0     0
SMALL
NO_CHARGES


@<TRIPOS>ATOM
      1 C2         26.1860    6.5660    4.2300 C.3       1 17H1001     0.0000 
      2 C4         23.9360    5.3010    4.5210 C.2       1 17H1001     0.0000 
      3 C7         24.8950    1.5880    4.3350 C.3       1 17H1001     0.0000 
      4 C6         24.1130    2.7540    4.9660 C.3       1 17H1001     0.0000 
      5 C9         27.0300    2.9390    4.5530 C.2       1 17H1001     0.0000 
      6 C11        28.5290    2.8900    4.2100 C.2       1 17H1001     0.0000 
      7 C1         26.9780    5.4000    4.0800 C.3       1 17H1001     0.0000 
      8 C3         24.7530    6.4030    4.2380 C.2       1 17H1001     0.0000 
      9 C5         24.7280    4.1340    4.6640 C.2       1 17H1001     0.0000 
     10 C8         26.3520    1.5620    4.9090 C.3       1 17H1001     0.0000 
     11 C10        26.2640    4.1210    4.4800 C.2       1 17H1001     0.0000 
     12 C12        29.3230    1.7300    4.1900 C.2       1 17H1001     0.0000 
     13 C13        28.7190    0.4120    4.5790 C.3       1 17H1001     0.0000 
     14 C14        27.2050    0.4630    4.2080 C.3       1 17H1001     0.0000 
     15 C15        26.6720   -0.9750    4.3500 C.3       1 17H1001     0.0000 
     16 C16        27.9280   -1.7590    3.8640 C.3       1 17H1001     0.0000 
     17 C17        29.1750   -0.7790    3.7760 C.3       1 17H1001     0.0000 
     18 C18        28.7820    0.2990    6.2170 C.3       1 17H1001     0.0000 
     19 C22        30.1120    0.7600    7.0210 C.3       1 17H1001     0.0000 
     20 C21        30.2000   -1.7920    1.7320 C.3       1 17H1001     0.0000 
     21 C20        29.3560   -0.5200    2.2780 C.3       1 17H1001     0.0000 
     22 O3         24.0530    7.5960    3.9480 O.2       1 17H1001     0.0000 
     23 O17        30.3170   -1.3240    4.4910 O.3       1 17H1001     0.0000 
     24 H          26.4606    7.3194    3.4201 H         1 17H1001     0.0000 
     25 H          26.4936    7.1154    5.1800 H         1 17H1001     0.0000 
     26 H          22.9870    5.3228    4.6067 H         1 17H1001     0.0000 
     27 H          24.9480    1.7217    3.2666 H         1 17H1001     0.0000 
     28 H          24.4131    0.6543    4.5760 H         1 17H1001     0.0000 
     29 H          24.0771    2.6117    6.0529 H         1 17H1001     0.0000 
     30 H          23.0823    2.7352    4.5917 H         1 17H1001     0.0000 
     31 H          28.9432    3.8198    3.9807 H         1 17H1001     0.0000 
     32 H          27.9123    5.4628    4.6857 H         1 17H1001     0.0000 
     33 H          27.3203    5.2743    3.0261 H         1 17H1001     0.0000 
     34 H          26.3488    1.4334    5.9329 H         1 17H1001     0.0000 
     35 H          30.2921    1.7389    3.9236 H         1 17H1001     0.0000 
     36 H          27.1843    0.6765    3.0999 H         1 17H1001     0.0000 
     37 H          25.8888   -1.1331    3.6861 H         1 17H1001     0.0000 
     38 H          26.4950   -1.1935    5.3501 H         1 17H1001     0.0000 
     39 H          27.7443   -2.1623    2.8849 H         1 17H1001     0.0000 
     40 H          28.1593   -2.5394    4.5658 H         1 17H1001     0.0000 
     41 H          28.5763   -0.7612    6.4781 H         1 17H1001     0.0000 
     42 H          27.9236    0.8805    6.6165 H         1 17H1001     0.0000 
     43 H          29.9398    0.3422    2.1098 H         1 17H1001     0.0000 
     44 H          28.4272   -0.5191    1.7781 H         1 17H1001     0.0000 
     45 H          30.9152    0.2330    6.7433 H         1 17H1001     0.0000 
     46 H          30.3254    1.7242    6.8639 H         1 17H1001     0.0000 
     47 H          30.0095    0.6396    8.0084 H         1 17H1001     0.0000 
     48 H          31.0893   -1.8688    2.1828 H         1 17H1001     0.0000 
     49 H          29.7167   -2.6533    1.8887 H         1 17H1001     0.0000 
     50 H          30.3740   -1.7281    0.7493 H         1 17H1001     0.0000 
     51 H          31.0857   -0.7372    4.2364 H         1 17H1001     0.0000 
@<TRIPOS>BOND
     1    7    1 1    
     2    8    1 1    
     3   24    1 1    
     4   25    1 1    
     5    8    2 1    
     6    9    2 2    
     7   26    2 1    
     8    4    3 1    
     9   10    3 1    
    10   27    3 1    
    11   28    3 1    
    12    9    4 1    
    13   29    4 1    
    14   30    4 1    
    15    6    5 1    
    16   10    5 1    
    17   11    5 2    
    18   12    6 2    
    19   31    6 1    
    20   11    7 1    
    21   32    7 1    
    22   33    7 1    
    23   22    8 2    
    24   11    9 1    
    25   14   10 1    
    26   34   10 1    
    27   13   12 1    
    28   35   12 1    
    29   14   13 1    
    30   17   13 1    
    31   18   13 1    
    32   15   14 1    
    33   36   14 1    
    34   16   15 1    
    35   37   15 1    
    36   38   15 1    
    37   17   16 1    
    38   39   16 1    
    39   40   16 1    
    40   21   17 1    
    41   23   17 1    
    42   19   18 1    
    43   41   18 1    
    44   42   18 1    
    45   45   19 1    
    46   46   19 1    
    47   47   19 1    
    48   21   20 1    
    49   48   20 1    
    50   49   20 1    
    51   50   20 1    
    52   43   21 1    
    53   44   21 1    
    54   51   23 1    
@<TRIPOS>SUBSTRUCTURE
     1 17H1001     1 GROUP   
@<TRIPOS>SET

