#    Name: 1v7a_FRC_1_INTS_M
#    Modification time : Tue Mar 25 07:32:03 2014

@<TRIPOS>MOLECULE
1v7a_FRC_1_INTS_M
   70     0     9     0     0
SMALL
NO_CHARGES


@<TRIPOS>ATOM
      1 N          50.6110   52.1755   24.1775 N.am      2 SEC2        0.0000 
      2 N          50.6320   53.0020   23.0840 N.am      8 SEL2        0.0000 
      3 N          50.5900   51.3490   25.2710 N.am      5 SEP2        0.0000 
      4 O          50.5145   49.9160   23.0835 O.2       1 ALC1        0.0000 
      5 O          50.1500   50.4890   21.6260 O.2       7 ALL1        0.0000 
      6 O          50.8790   49.3430   24.5410 O.2       4 ALP1        0.0000 
      7 O          50.1810   48.8575   21.4085 O.2       1 ALC1        0.0000 
      8 O          50.2120   47.2260   21.1910 O.2       4 ALP1        0.0000 
      9 CA         49.2135   55.5850   23.2460 C.3       3 GLC5        0.0000 
     10 CA         50.9040   56.4390   22.0460 C.3       9 GLL5        0.0000 
     11 CA         47.5230   54.7310   24.4460 C.3       6 GLP5        0.0000 
     12 CA         54.2000   57.6410   22.7895 C.3       3 GLC5        0.0000 
     13 CA         52.3720   56.9050   21.8960 C.3       9 GLL5        0.0000 
     14 CA         56.0280   58.3770   23.6830 C.3       6 GLP5        0.0000 
     15 N          53.4775   55.1735   22.8710 N.am      2 SEC2        0.0000 
     16 N          53.2270   56.6770   23.0760 N.am      8 SEL2        0.0000 
     17 N          53.7280   53.6700   22.6660 N.am      5 SEP2        0.0000 
     18 O          52.6465   56.6865   24.3060 O.2       1 ALC1        0.0000 
     19 O          53.2270   56.6770   23.0760 O.2       7 ALL1        0.0000 
     20 O          52.0660   56.6960   25.5360 O.2       4 ALP1        0.0000 
     21 O          51.9700   57.4240   23.9170 O.2       1 ALC1        0.0000 
     22 O          50.7130   58.1710   24.7580 O.2       4 ALP1        0.0000 
     23 CA         50.0790   57.4205   19.0375 C.3       3 GLC5        0.0000 
     24 CA         49.9540   56.9960   20.9920 C.3       9 GLL5        0.0000 
     25 CA         50.2040   57.8450   17.0830 C.3       6 GLP5        0.0000 
     26 CA         48.0250   55.8980   23.0080 C.3       3 GLC5        0.0000 
     27 CA         48.5270   57.0650   21.5700 C.3       9 GLL5        0.0000 
     28 CA         47.0095   58.4765   21.8215 C.3       3 GLC5        0.0000 
     29 CA         45.4920   59.8880   22.0730 C.3       6 GLP5        0.0000 
     30 CA         54.8060   56.6410   20.3555 C.3       3 GLC5        0.0000 
     31 CA         52.9090   56.4890   20.4960 C.3       9 GLL5        0.0000 
     32 CA         56.7030   56.7930   20.2150 C.3       6 GLP5        0.0000 
     33 CA         52.3765   57.4630   18.9720 C.3       3 GLC5        0.0000 
     34 CA         51.8440   58.4370   17.4480 C.3       6 GLP5        0.0000 
     35 CA         53.5435   55.6770   18.9670 C.3       3 GLC5        0.0000 
     36 CA         54.1780   54.8650   17.4380 C.3       6 GLP5        0.0000 
     37 CA         48.1065   52.4080   14.8505 C.3       3 GLC5        0.0000 
     38 CA         47.4660   52.5760   16.9620 C.3       9 GLL5        0.0000 
     39 CA         48.7470   52.2400   12.7390 C.3       6 GLP5        0.0000 
     40 CA         45.9230   54.5325   18.9485 C.3       3 GLC5        0.0000 
     41 CA         47.7540   55.3330   19.4230 C.3       9 GLL5        0.0000 
     42 CA         44.0920   53.7320   18.4740 C.3       6 GLP5        0.0000 
     43 CA         52.2420   53.2275   22.5832 C.3       3 GLC5        0.0000 
     44 CA         50.7510   54.0540   21.0480 C.3       9 GLL5        0.0000 
     45 CA         53.8350   53.0010   23.8360 C.3       6 GLP5        0.0000 
     46 CA         53.0673   58.7470   20.8245 C.3       3 GLC5        0.0000 
     47 CA         53.4940   60.7970   20.4530 C.3       6 GLP5        0.0000 
     48 CA         49.3708   58.7597   20.6320 C.3       3 GLC5        0.0000 
     49 CA         49.5010   60.4890   19.9830 C.3       6 GLP5        0.0000 
     50 CA         45.4117   53.8325   17.2000 C.3       3 GLC5        0.0000 
     51 CA         46.5800   54.6160   15.9670 C.3       9 GLL5        0.0000 
     52 CA         48.5403   54.0055   15.8035 C.3       3 GLC5        0.0000 
     53 CA         50.3490   54.0780   15.6810 C.3       6 GLP5        0.0000 
     54 CA         47.0983   53.4860   14.2235 C.3       3 GLC5        0.0000 
     55 CA         46.8830   53.2500   15.8850 C.3       9 GLL5        0.0000 
     56 CA         47.4650   53.0390   12.5210 C.3       6 GLP5        0.0000 
     57 CA         48.7010   56.4137   17.3810 C.3       3 GLC5        0.0000 
     58 CA         47.4710   54.6410   18.2340 C.3       9 GLL5        0.0000 
     59 CA         48.7735   54.5302   16.6800 C.3       3 GLC5        0.0000 
     60 CA         46.9250   55.3240   17.1240 C.3       9 GLL5        0.0000 
     61 CA         45.8580   53.3295   18.0098 C.3       3 GLC5        0.0000 
     62 CA         47.7820   53.2780   18.1290 C.3       9 GLL5        0.0000 
     63 CA         48.9865   53.5025   16.6133 C.3       3 GLC5        0.0000 
     64 CA         45.4917   54.7816   17.9585 C.3       3 GLC5        0.0000 
     65 CA         48.4622   57.4305   17.4432 C.3       3 GLC5        0.0000 
     66 CA         46.5850   56.6800   17.2070 C.3       9 GLL5        0.0000 
     67 CA         48.3185   58.7585   19.4685 C.3       3 GLC5        0.0000 
     68 CA         46.8560   57.3520   18.4000 C.3       9 GLL5        0.0000 
     69 CA         48.8945   56.9318   18.2742 C.3       3 GLC5        0.0000 
     70 CA         47.4160   56.7040   19.5080 C.3       9 GLL5        0.0000 
@<TRIPOS>BOND
@<TRIPOS>SUBSTRUCTURE
     1 ALC1        4 GROUP        1 X    ALC  0     ROOT ALC X 1
     2 SEC2        1 GROUP        1 X    SEC  0     **** SEC X 2
     3 GLC5        9 GROUP        1 X    GLC  0     **** GLC X 6
     4 ALP1        6 GROUP        1 Y    ALP  0     ROOT ALP Y 8
     5 SEP2        3 GROUP        1 Y    SEP  0     **** SEP Y 9
     6 GLP5       11 GROUP        1 Y    GLP  0     **** GLP Y 13
     7 ALL1        5 GROUP        1 Z    ALL  0     ROOT ALL Z 15
     8 SEL2        2 GROUP        1 Z    SEL  0     **** SEL Z 16
     9 GLL5       10 GROUP        1 Z    GLL  0     **** GLL Z 20
@<TRIPOS>SET

