#    Name: 1v7a_FRC_1_ligand
#    Modification time : Tue Mar 25 07:32:03 2014

@<TRIPOS>MOLECULE
1v7a_FRC_1_ligand
   46    48     1     0     0
SMALL
NO_CHARGES


@<TRIPOS>ATOM
      1 C1         50.7510   54.0540   21.0480 C.2       1 FRC1001     0.0000 
      2 N2         50.8140   55.0020   22.1580 N.pl3     1 FRC1001     0.0000 
      3 C3         50.6630   54.3300   23.3010 C.2       1 FRC1001     0.0000 
      4 N4         50.6320   53.0020   23.0840 N.2       1 FRC1001     0.0000 
      5 C5         50.5470   52.8540   21.6130 C.2       1 FRC1001     0.0000 
      6 C8         50.2530   51.5860   20.8930 C.2       1 FRC1001     0.0000 
      7 O9         50.1320   51.5300   19.6800 O.2       1 FRC1001     0.0000 
      8 N10        50.1500   50.4890   21.6260 N.am      1 FRC1001     0.0000 
      9 C13        50.9040   56.4390   22.0460 C.3       1 FRC1001     0.0000 
     10 C14        52.3720   56.9050   21.8960 C.3       1 FRC1001     0.0000 
     11 O15        53.2270   56.6770   23.0760 O.3       1 FRC1001     0.0000 
     12 C18        49.9540   56.9960   20.9920 C.3       1 FRC1001     0.0000 
     13 C2         48.5270   57.0650   21.5700 C.3       1 FRC1001     0.0000 
     14 C9         52.9090   56.4890   20.4960 C.3       1 FRC1001     0.0000 
     15 O1         47.6000   57.5200   20.6120 O.3       1 FRC1001     0.0000 
     16 C11        46.8830   53.2500   15.8850 C.ar      1 FRC1001     0.0000 
     17 C17        46.5800   54.6160   15.9670 C.ar      1 FRC1001     0.0000 
     18 C12        46.9250   55.3240   17.1240 C.ar      1 FRC1001     0.0000 
     19 C4         47.4710   54.6410   18.2340 C.ar      1 FRC1001     0.0000 
     20 C15        47.7820   53.2780   18.1290 C.ar      1 FRC1001     0.0000 
     21 C6         47.4660   52.5760   16.9620 C.ar      1 FRC1001     0.0000 
     22 C7         46.5850   56.6800   17.2070 C.ar      1 FRC1001     0.0000 
     23 C16        46.8560   57.3520   18.4000 C.ar      1 FRC1001     0.0000 
     24 C19        47.4160   56.7040   19.5080 C.ar      1 FRC1001     0.0000 
     25 C10        47.7540   55.3330   19.4230 C.ar      1 FRC1001     0.0000 
     26 H          50.8420   54.3027   20.1587 H         1 FRC1001     0.0000 
     27 H          50.5838   54.7465   24.1922 H         1 FRC1001     0.0000 
     28 H          50.2421   50.6100   22.6144 H         1 FRC1001     0.0000 
     29 H          49.9894   49.6385   21.1251 H         1 FRC1001     0.0000 
     30 H          50.5576   56.8761   23.0356 H         1 FRC1001     0.0000 
     31 H          52.2540   58.0680   21.7935 H         1 FRC1001     0.0000 
     32 H          49.9520   56.3489   20.1246 H         1 FRC1001     0.0000 
     33 H          50.2679   57.9920   20.7082 H         1 FRC1001     0.0000 
     34 H          48.5703   57.7245   22.4560 H         1 FRC1001     0.0000 
     35 H          48.2813   56.0535   21.9420 H         1 FRC1001     0.0000 
     36 H          46.6718   52.7353   15.0155 H         1 FRC1001     0.0000 
     37 H          46.1139   55.0875   15.1927 H         1 FRC1001     0.0000 
     38 H          48.2415   52.7973   18.9095 H         1 FRC1001     0.0000 
     39 H          47.6607   51.5732   16.8966 H         1 FRC1001     0.0000 
     40 H          46.1558   57.1564   16.4243 H         1 FRC1001     0.0000 
     41 H          46.6357   58.3665   18.4703 H         1 FRC1001     0.0000 
     42 H          48.1914   54.8638   20.2067 H         1 FRC1001     0.0000 
     43 H          53.8585   56.7732   20.3629 H         1 FRC1001     0.0000 
     44 H          52.8787   55.4979   20.3661 H         1 FRC1001     0.0000 
     45 H          52.3743   56.8980   19.7566 H         1 FRC1001     0.0000 
     46 H          52.6075   56.7331   23.8590 H         1 FRC1001     0.0000 
@<TRIPOS>BOND
     1    2    1 1    
     2    5    1 2    
     3   26    1 1    
     4    3    2 1    
     5    9    2 1    
     6    4    3 2    
     7   27    3 1    
     8    5    4 1    
     9    6    5 1    
    10    7    6 2    
    11    8    6 am   
    12   28    8 1    
    13   29    8 1    
    14   10    9 1    
    15   12    9 1    
    16   30    9 1    
    17   11   10 1    
    18   14   10 1    
    19   31   10 1    
    20   46   11 1    
    21   13   12 1    
    22   32   12 1    
    23   33   12 1    
    24   15   13 1    
    25   34   13 1    
    26   35   13 1    
    27   43   14 1    
    28   44   14 1    
    29   45   14 1    
    30   24   15 1    
    31   17   16 ar   
    32   21   16 ar   
    33   36   16 1    
    34   18   17 ar   
    35   37   17 1    
    36   19   18 ar   
    37   22   18 ar   
    38   20   19 ar   
    39   25   19 ar   
    40   21   20 ar   
    41   38   20 1    
    42   39   21 1    
    43   23   22 ar   
    44   40   22 1    
    45   24   23 ar   
    46   41   23 1    
    47   25   24 ar   
    48   42   25 1    
@<TRIPOS>SUBSTRUCTURE
     1 FRC1001     1 GROUP   
@<TRIPOS>SET

