#    Name: 4DRX_3_CAVITY_N1_6.mol2
#    Modification time : Mon Mar 10 14:45:40 2014

@<TRIPOS>MOLECULE
4DRX_3_CAVITY_N1_6.mol2
   60     0     7     0     0
SMALL
NO_CHARGES


@<TRIPOS>ATOM
      1 CZ        -12.9114   18.9524  -19.0686 C.ar      5 PHE5        0.0000 
      2 CA        -12.2206   17.6332  -19.2490 C.3       6 GLY6        0.0000 
      3 O         -11.7387   19.7800  -20.6307 O.2       2 ALA2        0.0000 
      4 CA        -11.0480   18.4607  -20.8110 C.3       6 GLY6        0.0000 
      5 CZ        -13.0617   19.0770  -20.5558 C.ar      5 PHE5        0.0000 
      6 CA        -12.3710   17.7578  -20.7362 C.3       6 GLY6        0.0000 
      7 CA        -11.6803   16.4386  -20.9165 C.3       6 GLY6        0.0000 
      8 O         -13.6940   17.0549  -20.6613 O.2       2 ALA2        0.0000 
      9 CA        -13.0033   15.7357  -20.8417 C.3       6 GLY6        0.0000 
     10 CA        -12.3125   14.4164  -21.0220 C.3       6 GLY6        0.0000 
     11 CA        -13.6355   13.7135  -20.9472 C.3       6 GLY6        0.0000 
     12 O          -7.1709   17.3527  -22.8087 O.2       2 ALA2        0.0000 
     13 CA         -9.8754   19.2882  -22.3731 C.3       6 GLY6        0.0000 
     14 O          -9.1846   17.9690  -22.5535 O.2       2 ALA2        0.0000 
     15 OG         -8.4939   16.6498  -22.7338 O.2       1 SER1        0.0000 
     16 O         -11.1983   18.5853  -22.2983 O.2       2 ALA2        0.0000 
     17 CA        -10.5076   17.2661  -22.4786 C.3       6 GLY6        0.0000 
     18 OG         -9.8169   15.9469  -22.6590 O.2       1 SER1        0.0000 
     19 OG        -12.5213   17.8824  -22.2234 O.2       1 SER1        0.0000 
     20 CA        -11.8306   16.5632  -22.4038 C.3       6 GLY6        0.0000 
     21 CA        -11.1399   15.2439  -22.5841 C.3       6 GLY6        0.0000 
     22 OG        -13.8443   17.1795  -22.1486 O.2       1 SER1        0.0000 
     23 DU        -13.1536   15.8602  -22.3289 H         7 CUB7        0.0000 
     24 CA        -12.4629   14.5410  -22.5093 C.3       6 GLY6        0.0000 
     25 O         -11.7722   13.2218  -22.6896 O.2       2 ALA2        0.0000 
     26 O         -15.1673   16.4766  -22.0737 O.2       2 ALA2        0.0000 
     27 O         -14.4766   15.1573  -22.2541 O.2       2 ALA2        0.0000 
     28 CA        -13.7859   13.8381  -22.4344 C.3       6 GLY6        0.0000 
     29 O         -13.0951   12.5189  -22.6148 O.2       2 ALA2        0.0000 
     30 N         -12.7610   18.8278  -17.5814 N.2       2 ALA2        0.0000 
     31 CA         -8.0120   18.7965  -24.1156 C.3       6 GLY6        0.0000 
     32 OD1        -7.3213   17.4773  -24.2959 O.3       3 ASP3        0.0000 
     33 CA         -6.6305   16.1581  -24.4763 C.3       6 GLY6        0.0000 
     34 O         -10.0257   19.4128  -23.8604 O.2       2 ALA2        0.0000 
     35 CA         -9.3350   18.0936  -24.0407 C.3       6 GLY6        0.0000 
     36 CA         -8.6443   16.7744  -24.2211 C.3       6 GLY6        0.0000 
     37 O         -12.0394   20.0292  -23.6052 O.2       2 ALA2        0.0000 
     38 O         -11.3487   18.7099  -23.7855 O.2       2 ALA2        0.0000 
     39 DU        -10.6580   17.3907  -23.9659 H         7 CUB7        0.0000 
     40 CA         -9.9672   16.0715  -24.1462 C.3       6 GLY6        0.0000 
     41 OG        -12.6717   18.0070  -23.7107 O.2       1 SER1        0.0000 
     42 OG        -11.9810   16.6878  -23.8910 O.2       1 SER1        0.0000 
     43 O         -11.2902   15.3685  -24.0714 O.2       2 ALA2        0.0000 
     44 OG        -13.9947   17.3041  -23.6358 O.2       1 SER1        0.0000 
     45 NZ        -13.3039   15.9848  -23.8162 N.2       4 LYS4        0.0000 
     46 NZ        -12.6132   14.6656  -23.9965 N.2       4 LYS4        0.0000 
     47 CA        -11.9225   13.3464  -24.1769 C.3       6 GLY6        0.0000 
     48 NZ        -14.6269   15.2819  -23.7413 N.2       4 LYS4        0.0000 
     49 NZ        -13.9362   13.9627  -23.9217 N.2       4 LYS4        0.0000 
     50 OD1        -5.4579   16.9856  -26.0383 O.3       3 ASP3        0.0000 
     51 OD1        -7.4716   17.6019  -25.7831 O.3       3 ASP3        0.0000 
     52 CA         -6.7809   16.2827  -25.9635 C.3       6 GLY6        0.0000 
     53 OD1        -9.4853   18.2182  -25.5279 O.3       3 ASP3        0.0000 
     54 N          -8.7946   16.8990  -25.7083 N.2       2 ALA2        0.0000 
     55 N         -12.1898   20.1538  -25.0924 N.2       2 ALA2        0.0000 
     56 OG        -11.4990   18.8345  -25.2728 O.2       1 SER1        0.0000 
     57 OG        -10.8083   17.5153  -25.4531 O.2       1 SER1        0.0000 
     58 N         -10.1176   16.1961  -25.6334 N.2       2 ALA2        0.0000 
     59 NZ        -11.4406   15.4931  -25.5586 N.2       4 LYS4        0.0000 
     60 OD1        -9.6357   18.3428  -27.0152 O.3       3 ASP3        0.0000 
@<TRIPOS>BOND
@<TRIPOS>SUBSTRUCTURE
     1 SER1       15 GROUP   
     2 ALA2        3 GROUP   
     3 ASP3       32 GROUP   
     4 LYS4       45 GROUP   
     5 PHE5        1 GROUP   
     6 GLY6        2 GROUP   
     7 CUB7       23 GROUP   
@<TRIPOS>SET

