#    Name: 4drx_GTP_3_INTS_M
#    Modification time : Mon Apr  7 22:56:49 2014

@<TRIPOS>MOLECULE
4drx_GTP_3_INTS_M
   75     0    15     0     0
SMALL
NO_CHARGES


@<TRIPOS>ATOM
      1 N          -2.8825   16.6545  -26.3120 N.am      2 SEC2        0.0000 
      2 N          -3.7730   17.2220  -27.1460 N.am     12 SEL2        0.0000 
      3 N          -1.9920   16.0870  -25.4780 N.am      7 SEP2        0.0000 
      4 N          -2.8155   16.9405  -28.2735 N.am      2 SEC2        0.0000 
      5 N          -1.8580   16.6590  -29.4010 N.am      7 SEP2        0.0000 
      6 N          -5.9200   14.6050  -27.5220 N.am      2 SEC2        0.0000 
      7 N          -5.6080   15.9580  -28.1640 N.am     12 SEL2        0.0000 
      8 N          -6.2320   13.2520  -26.8800 N.am      7 SEP2        0.0000 
      9 N          -6.0115   15.5000  -29.3660 N.am      2 SEC2        0.0000 
     10 N          -6.4150   15.0420  -30.5680 N.am      7 SEP2        0.0000 
     11 NZ         -6.8475   18.8555  -28.0720 N.4       3 LYC4        0.0000 
     12 NZ         -6.0690   18.1400  -27.0970 N.4      13 LYL4        0.0000 
     13 NZ         -7.6260   19.5710  -29.0470 N.4       8 LYP4        0.0000 
     14 Zn         -5.9285   18.8925  -26.3475 Zn        4 ZIC7        0.0000 
     15 Zn         -6.0690   18.1400  -27.0970 Zn       14 ZIL7        0.0000 
     16 Zn         -5.7880   19.6450  -25.5980 Zn        9 ZIP7        0.0000 
     17 N          -6.8475   18.8555  -28.0720 N.am      2 SEC2        0.0000 
     18 N          -6.0690   18.1400  -27.0970 N.am     12 SEL2        0.0000 
     19 N          -7.6260   19.5710  -29.0470 N.am      7 SEP2        0.0000 
     20 N          -4.5865   14.9500  -25.6445 N.am      2 SEC2        0.0000 
     21 N          -5.4300   16.1110  -25.6230 N.am     12 SEL2        0.0000 
     22 N          -3.7430   13.7890  -25.6660 N.am      7 SEP2        0.0000 
     23 N          -3.7110   16.0990  -25.5505 N.am      2 SEC2        0.0000 
     24 N          -5.1415   14.6540  -23.0550 N.am      2 SEC2        0.0000 
     25 N          -5.8680   15.9160  -23.1470 N.am     12 SEL2        0.0000 
     26 N          -4.4150   13.3920  -22.9630 N.am      7 SEP2        0.0000 
     27 Zn         -5.6835   18.9265  -24.8390 Zn        4 ZIC7        0.0000 
     28 Zn         -5.5790   18.2080  -24.0800 Zn       14 ZIL7        0.0000 
     29 N          -5.7115   18.6165  -22.6290 N.am      2 SEC2        0.0000 
     30 N          -5.5790   18.2080  -24.0800 N.am     12 SEL2        0.0000 
     31 N          -5.8440   19.0250  -21.1780 N.am      7 SEP2        0.0000 
     32 N          -8.3560   17.8460  -21.0435 N.am      2 SEC2        0.0000 
     33 N          -8.3960   17.1650  -22.3480 N.am     12 SEL2        0.0000 
     34 N          -8.3160   18.5270  -19.7390 N.am      7 SEP2        0.0000 
     35 N          -9.2420   14.6425  -22.8805 N.am      2 SEC2        0.0000 
     36 N          -9.7600   15.6680  -23.8960 N.am     12 SEL2        0.0000 
     37 N          -8.7240   13.6170  -21.8650 N.am      7 SEP2        0.0000 
     38 CA         -9.5970   14.5705  -24.8705 C.3       5 GLC5        0.0000 
     39 CA        -11.0910   15.6600  -24.3840 C.3      15 GLL5        0.0000 
     40 CA         -8.1030   13.4810  -25.3570 C.3      10 GLP5        0.0000 
     41 CA        -14.5000   18.5255  -22.4860 C.3       5 GLC5        0.0000 
     42 CA        -13.8840   16.5810  -22.9180 C.3      15 GLL5        0.0000 
     43 CA        -15.1160   20.4700  -22.0540 C.3      10 GLP5        0.0000 
     44 N         -15.1740   18.1330  -22.8895 N.am      2 SEC2        0.0000 
     45 N         -15.2550   16.5870  -22.5950 N.am     12 SEL2        0.0000 
     46 N         -15.0930   19.6790  -23.1840 N.am      7 SEP2        0.0000 
     47 CA        -11.4205   16.5495  -20.3635 C.3       5 GLC5        0.0000 
     48 CA        -13.0390   16.3940  -21.6740 C.3      15 GLL5        0.0000 
     49 CA         -9.8020   16.7050  -19.0530 C.3      10 GLP5        0.0000 
     50 N         -11.3280   20.8935  -21.6680 N.am      2 SEC2        0.0000 
     51 N         -11.8260   19.6740  -20.6610 N.am     12 SEL2        0.0000 
     52 N         -10.8300   22.1130  -22.6750 N.am      7 SEP2        0.0000 
     53 CA        -10.8620   18.6830  -19.1190 C.3       5 GLC5        0.0000 
     54 CA        -12.5170   19.3120  -19.5540 C.3      15 GLL5        0.0000 
     55 CA         -9.2070   18.0540  -18.6840 C.3      10 GLP5        0.0000 
     56 N         -11.6375   22.0400  -18.4895 N.am      2 SEC2        0.0000 
     57 N         -12.2880   21.0490  -18.0940 N.am     12 SEL2        0.0000 
     58 N         -10.9870   23.0310  -18.8850 N.am      7 SEP2        0.0000 
     59 N         -12.4840   21.5270  -16.6840 N.am      2 SEC2        0.0000 
     60 N         -12.6800   22.0050  -15.2740 N.am      7 SEP2        0.0000 
     61 O         -13.6750   19.7000  -16.1655 O.2       1 ALC1        0.0000 
     62 O         -13.5180   19.3000  -17.3830 O.2      11 ALL1        0.0000 
     63 O         -13.8320   20.1000  -14.9480 O.2       6 ALP1        0.0000 
     64 O         -15.7880   16.3855  -17.1085 O.2       1 ALC1        0.0000 
     65 O         -14.7910   17.4510  -16.7060 O.2      11 ALL1        0.0000 
     66 O         -16.7850   15.3200  -17.5110 O.2       6 ALP1        0.0000 
     67 O         -14.3115   18.7755  -15.8270 O.2       1 ALC1        0.0000 
     68 N         -15.0645   16.4185  -19.2720 N.am      2 SEC2        0.0000 
     69 N         -13.8140   17.4430  -18.8430 N.am     12 SEL2        0.0000 
     70 N         -16.3150   15.3940  -19.7010 N.am      7 SEP2        0.0000 
     71 CA        -11.4325   17.3820  -19.4200 C.3       5 GLC5        0.0000 
     72 CA        -13.0630   18.0590  -19.7870 C.3      15 GLL5        0.0000 
     73 CA        -10.6142   14.4703  -22.3310 C.3       5 GLC5        0.0000 
     74 CA        -12.0640   15.1010  -23.3520 C.3      15 GLL5        0.0000 
     75 CA         -9.6510   13.5600  -20.7940 C.3      10 GLP5        0.0000 
@<TRIPOS>BOND
@<TRIPOS>SUBSTRUCTURE
     1 ALC1       61 GROUP        1 X    ALC  0     ROOT ALC X 1
     2 SEC2        1 GROUP        1 X    SEC  0     **** SEC X 2
     3 LYC4       11 GROUP        1 X    LYC  0     **** LYC X 4
     4 ZIC7       14 GROUP        1 X    ZIC  0     **** ZIC X 5
     5 GLC5       38 GROUP        1 X    GLC  0     **** GLC X 6
     6 ALP1       63 GROUP        1 Y    ALP  0     ROOT ALP Y 8
     7 SEP2        3 GROUP        1 Y    SEP  0     **** SEP Y 9
     8 LYP4       13 GROUP        1 Y    LYP  0     **** LYP Y 11
     9 ZIP7       16 GROUP        1 Y    ZIP  0     **** ZIP Y 12
    10 GLP5       40 GROUP        1 Y    GLP  0     **** GLP Y 13
    11 ALL1       62 GROUP        1 Z    ALL  0     ROOT ALL Z 15
    12 SEL2        2 GROUP        1 Z    SEL  0     **** SEL Z 16
    13 LYL4       12 GROUP        1 Z    LYL  0     **** LYL Z 18
    14 ZIL7       15 GROUP        1 Z    ZIL  0     **** ZIL Z 19
    15 GLL5       39 GROUP        1 Z    GLL  0     **** GLL Z 20
@<TRIPOS>SET

