#    Name: 4drx_GTP_3_ligand
#    Modification time : Mon Apr  7 22:56:49 2014

@<TRIPOS>MOLECULE
4drx_GTP_3_ligand
   44    46     1     0     0
SMALL
NO_CHARGES


@<TRIPOS>ATOM
      1 PG         -5.2380   16.8800  -27.0300 P.3       1 GTP600      0.0000 
      2 O1G        -3.7730   17.2220  -27.1460 O.co2     1 GTP600      0.0000 
      3 O2G        -5.6080   15.9580  -28.1640 O.co2     1 GTP600      0.0000 
      4 O3G        -6.0690   18.1400  -27.0970 O.co2     1 GTP600      0.0000 
      5 O3B        -5.4300   16.1110  -25.6230 O.3       1 GTP600      0.0000 
      6 PB         -6.1000   16.8120  -24.3370 P.3       1 GTP600      0.0000 
      7 O1B        -5.8680   15.9160  -23.1470 O.co2     1 GTP600      0.0000 
      8 O2B        -5.5790   18.2080  -24.0800 O.co2     1 GTP600      0.0000 
      9 O3A        -7.6530   16.8360  -24.7800 O.3       1 GTP600      0.0000 
     10 PA         -8.8870   17.0210  -23.7680 P.3       1 GTP600      0.0000 
     11 O1A        -8.3960   17.1650  -22.3480 O.co2     1 GTP600      0.0000 
     12 O2A        -9.6950   18.2220  -24.1910 O.co2     1 GTP600      0.0000 
     13 O5'        -9.7600   15.6680  -23.8960 O.3       1 GTP600      0.0000 
     14 C5'       -11.0910   15.6600  -24.3840 C.3       1 GTP600      0.0000 
     15 C4'       -12.0640   15.1010  -23.3520 C.3       1 GTP600      0.0000 
     16 O4'       -11.8540   15.7570  -22.1160 O.3       1 GTP600      0.0000 
     17 C3'       -13.5060   15.3680  -23.7390 C.3       1 GTP600      0.0000 
     18 O3'       -14.2750   14.2680  -23.3070 O.3       1 GTP600      0.0000 
     19 C2'       -13.8840   16.5810  -22.9180 C.3       1 GTP600      0.0000 
     20 O2'       -15.2550   16.5870  -22.5950 O.3       1 GTP600      0.0000 
     21 C1'       -13.0390   16.3940  -21.6740 C.3       1 GTP600      0.0000 
     22 N9        -12.6870   17.6790  -21.0480 N.pl3     1 GTP600      0.0000 
     23 C8        -11.9130   18.6820  -21.5790 C.2       1 GTP600      0.0000 
     24 N7        -11.8260   19.6740  -20.6610 N.2       1 GTP600      0.0000 
     25 C5        -12.5170   19.3120  -19.5540 C.2       1 GTP600      0.0000 
     26 C6        -12.7530   19.9360  -18.3350 C.2       1 GTP600      0.0000 
     27 O6        -12.2880   21.0490  -18.0940 O.2       1 GTP600      0.0000 
     28 N1        -13.5180   19.3000  -17.3830 N.am      1 GTP600      0.0000 
     29 C2        -14.0500   18.0550  -17.6340 C.2       1 GTP600      0.0000 
     30 N2        -14.7910   17.4510  -16.7060 N.pl3     1 GTP600      0.0000 
     31 N3        -13.8140   17.4430  -18.8430 N.2       1 GTP600      0.0000 
     32 C4        -13.0630   18.0590  -19.7870 C.2       1 GTP600      0.0000 
     33 H         -11.1883   15.0463  -25.2984 H         1 GTP600      0.0000 
     34 H         -11.4362   16.6763  -24.6491 H         1 GTP600      0.0000 
     35 H         -11.9193   14.0466  -23.2646 H         1 GTP600      0.0000 
     36 H         -13.5668   15.5817  -24.7469 H         1 GTP600      0.0000 
     37 H         -13.5432   17.4464  -23.4212 H         1 GTP600      0.0000 
     38 H         -13.5746   15.7715  -20.9909 H         1 GTP600      0.0000 
     39 H         -11.5104   18.6710  -22.4475 H         1 GTP600      0.0000 
     40 H         -13.6944   19.7609  -16.4725 H         1 GTP600      0.0000 
     41 H         -15.4963   16.8275  -17.0433 H         1 GTP600      0.0000 
     42 H         -14.5751   17.6755  -15.7558 H         1 GTP600      0.0000 
     43 H         -15.0161   14.6667  -22.7669 H         1 GTP600      0.0000 
     44 H         -15.2853   16.6164  -21.5959 H         1 GTP600      0.0000 
@<TRIPOS>BOND
     1    2    1 ar   
     2    3    1 ar   
     3    4    1 ar   
     4    5    1 1    
     5    6    5 1    
     6    7    6 ar   
     7    8    6 ar   
     8    9    6 1    
     9   10    9 1    
    10   11   10 ar   
    11   12   10 ar   
    12   13   10 1    
    13   14   13 1    
    14   15   14 1    
    15   33   14 1    
    16   34   14 1    
    17   16   15 1    
    18   17   15 1    
    19   35   15 1    
    20   21   16 1    
    21   18   17 1    
    22   19   17 1    
    23   36   17 1    
    24   43   18 1    
    25   20   19 1    
    26   21   19 1    
    27   37   19 1    
    28   44   20 1    
    29   22   21 1    
    30   38   21 1    
    31   23   22 1    
    32   32   22 1    
    33   24   23 2    
    34   39   23 1    
    35   25   24 1    
    36   26   25 1    
    37   32   25 2    
    38   27   26 2    
    39   28   26 am   
    40   29   28 1    
    41   40   28 1    
    42   30   29 1    
    43   31   29 2    
    44   41   30 1    
    45   42   30 1    
    46   32   31 1    
@<TRIPOS>SUBSTRUCTURE
     1 GTP600      1 GROUP   
@<TRIPOS>SET

