#    Name: 3l7k_C2G_1_INTS_M
#    Modification time : Mon Mar 24 21:07:07 2014

@<TRIPOS>MOLECULE
3l7k_C2G_1_INTS_M
   54     0     9     0     0
SMALL
NO_CHARGES


@<TRIPOS>ATOM
      1 CA        -67.4625   79.3665    7.8665 C.3       3 GLC5        0.0000 
      2 CA        -69.1530   80.2370    8.7380 C.3       9 GLL5        0.0000 
      3 CA        -65.7720   78.4960    6.9950 C.3       6 GLP5        0.0000 
      4 N         -72.2795   84.0200   10.0530 N.am      2 SEC2        0.0000 
      5 N         -72.5910   82.9150    9.2740 N.am      8 SEL2        0.0000 
      6 N         -71.9680   85.1250   10.8320 N.am      5 SEP2        0.0000 
      7 N         -73.4155   84.1215   10.1335 N.am      2 SEC2        0.0000 
      8 N         -74.2400   85.3280   10.9930 N.am      5 SEP2        0.0000 
      9 O         -66.9335   80.1260   11.2130 O.2       1 ALC1        0.0000 
     10 O         -68.2040   81.0270   10.9530 O.2       7 ALL1        0.0000 
     11 O         -65.6630   79.2250   11.4730 O.2       4 ALP1        0.0000 
     12 O         -67.8040   81.9870   12.2830 O.2       1 ALC1        0.0000 
     13 O         -67.4040   82.9470   13.6130 O.2       4 ALP1        0.0000 
     14 CA        -71.7290   83.7965    5.5710 C.3       3 GLC5        0.0000 
     15 CA        -71.8700   81.6540    5.4450 C.3       9 GLL5        0.0000 
     16 CA        -71.5880   85.9390    5.6970 C.3       6 GLP5        0.0000 
     17 O         -70.9070   81.3290    2.3040 O.2       1 ALC1        0.0000 
     18 O         -71.5170   80.5690    3.3020 O.2       7 ALL1        0.0000 
     19 O         -70.2970   82.0890    1.3060 O.2       4 ALP1        0.0000 
     20 N         -69.8945   77.8720    4.0010 N.am      2 SEC2        0.0000 
     21 N         -70.3750   77.9490    5.5180 N.am      8 SEL2        0.0000 
     22 N         -69.4140   77.7950    2.4840 N.am      5 SEP2        0.0000 
     23 N         -67.7455   78.0215    6.9020 N.am      2 SEC2        0.0000 
     24 N         -68.5410   76.9730    7.3370 N.am      8 SEL2        0.0000 
     25 N         -66.9500   79.0700    6.4670 N.am      5 SEP2        0.0000 
     26 N         -67.8610   76.6675    4.6875 N.am      2 SEC2        0.0000 
     27 N         -68.9680   75.8310    5.1090 N.am      8 SEL2        0.0000 
     28 N         -66.7540   77.5040    4.2660 N.am      5 SEP2        0.0000 
     29 N         -71.5925   76.5100    7.9010 N.am      2 SEC2        0.0000 
     30 N         -70.8590   75.6930    6.8240 N.am      8 SEL2        0.0000 
     31 N         -72.3260   77.3270    8.9780 N.am      5 SEP2        0.0000 
     32 CA        -72.7285   73.4015    0.3410 C.3       3 GLC5        0.0000 
     33 CA        -70.7770   73.4840    1.3470 C.3       9 GLL5        0.0000 
     34 CA        -74.6800   73.3190   -0.6650 C.3       6 GLP5        0.0000 
     35 CA        -71.3325   75.5305    0.6285 C.3       3 GLC5        0.0000 
     36 CA        -71.8880   77.5770   -0.0900 C.3       6 GLP5        0.0000 
     37 CA        -69.4125   73.1380    0.4360 C.3       3 GLC5        0.0000 
     38 CA        -68.0480   72.7920   -0.4750 C.3       6 GLP5        0.0000 
     39 CA        -69.5200   75.2275    1.8705 C.3       3 GLC5        0.0000 
     40 CA        -68.2630   76.9710    2.3940 C.3       6 GLP5        0.0000 
     41 CA        -73.3610   72.4095    1.7975 C.3       3 GLC5        0.0000 
     42 CA        -71.3790   72.8360    2.6050 C.3       9 GLL5        0.0000 
     43 CA        -75.3430   71.9830    0.9900 C.3       6 GLP5        0.0000 
     44 O         -73.6620   74.2125    3.2875 O.2       1 ALC1        0.0000 
     45 O         -72.7450   73.1600    2.6970 O.2       7 ALL1        0.0000 
     46 O         -74.5790   75.2650    3.8780 O.2       4 ALP1        0.0000 
     47 CA        -70.4860   78.9460    9.0135 C.3       3 GLC5        0.0000 
     48 CA        -70.2430   80.2870    7.7020 C.3       9 GLL5        0.0000 
     49 CA        -71.2740   77.6300    9.8070 C.3       6 GLP5        0.0000 
     50 CA        -69.0540   81.0770    6.9740 C.3       3 GLC5        0.0000 
     51 CA        -68.4100   81.8920    5.7280 C.3       6 GLP5        0.0000 
     52 CA        -70.1014   81.3987    5.5694 C.3       3 GLC5        0.0000 
     53 CA        -71.6000   71.2565    1.1185 C.3       3 GLC5        0.0000 
     54 CA        -72.1220   69.3530    0.2610 C.3       6 GLP5        0.0000 
@<TRIPOS>BOND
@<TRIPOS>SUBSTRUCTURE
     1 ALC1        9 GROUP        1 X    ALC  0     ROOT ALC X 1
     2 SEC2        4 GROUP        1 X    SEC  0     **** SEC X 2
     3 GLC5        1 GROUP        1 X    GLC  0     **** GLC X 6
     4 ALP1       11 GROUP        1 Y    ALP  0     ROOT ALP Y 8
     5 SEP2        6 GROUP        1 Y    SEP  0     **** SEP Y 9
     6 GLP5        3 GROUP        1 Y    GLP  0     **** GLP Y 13
     7 ALL1       10 GROUP        1 Z    ALL  0     ROOT ALL Z 15
     8 SEL2        5 GROUP        1 Z    SEL  0     **** SEL Z 16
     9 GLL5        2 GROUP        1 Z    GLL  0     **** GLL Z 20
@<TRIPOS>SET

