#    Name: 3l7k_C2G_1_ligand
#    Modification time : Mon Mar 24 21:07:07 2014

@<TRIPOS>MOLECULE
3l7k_C2G_1_ligand
   49    50     1     0     0
SMALL
NO_CHARGES


@<TRIPOS>ATOM
      1 N1        -71.3970   81.1810    7.8430 N.am      1 C2G730      0.0000 
      2 C2        -71.4970   82.0640    9.0910 C.2       1 C2G730      0.0000 
      3 N3        -70.4220   82.0130   10.1260 N.2       1 C2G730      0.0000 
      4 C4        -69.2570   81.1110    9.9590 C.2       1 C2G730      0.0000 
      5 C5        -69.1530   80.2370    8.7380 C.2       1 C2G730      0.0000 
      6 C6        -70.2430   80.2870    7.7020 C.2       1 C2G730      0.0000 
      7 O2        -72.5910   82.9150    9.2740 O.2       1 C2G730      0.0000 
      8 N4        -68.2040   81.0270   10.9530 N.pl3     1 C2G730      0.0000 
      9 C1'       -72.4250   81.1540    6.7900 C.3       1 C2G730      0.0000 
     10 C2'       -71.8700   81.6540    5.4450 C.3       1 C2G730      0.0000 
     11 O2'       -72.8550   82.3470    4.7190 O.3       1 C2G730      0.0000 
     12 C3'       -71.4380   80.4070    4.7040 C.3       1 C2G730      0.0000 
     13 C4'       -72.4020   79.3310    5.2340 C.3       1 C2G730      0.0000 
     14 O4'       -72.8230   79.7530    6.5760 O.3       1 C2G730      0.0000 
     15 O3'       -71.5170   80.5690    3.3020 O.3       1 C2G730      0.0000 
     16 C5'       -71.7700   77.9210    5.2980 C.3       1 C2G730      0.0000 
     17 O5'       -70.3750   77.9490    5.5180 O.3       1 C2G730      0.0000 
     18 PA        -69.6430   76.5980    6.1570 P.3       1 C2G730      0.0000 
     19 O1A       -68.5410   76.9730    7.3370 O.co2     1 C2G730      0.0000 
     20 O2A       -68.9680   75.8310    5.1090 O.co2     1 C2G730      0.0000 
     21 O3A       -70.8590   75.6930    6.8240 O.3       1 C2G730      0.0000 
     22 PB        -71.3090   74.1940    6.2700 P.3       1 C2G730      0.0000 
     23 O1B       -72.7930   73.8940    6.9370 O.co2     1 C2G730      0.0000 
     24 O2B       -70.3010   73.2050    6.7010 O.co2     1 C2G730      0.0000 
     25 O3B       -71.5090   74.1400    4.6210 O.3       1 C2G730      0.0000 
     26 O1G       -71.8080   73.7800    0.4530 O.3       1 C2G730      0.0000 
     27 C1G       -70.7770   73.4840    1.3470 C.3       1 C2G730      0.0000 
     28 C2G       -71.3790   72.8360    2.6050 C.3       1 C2G730      0.0000 
     29 O2G       -72.7450   73.1600    2.6970 O.3       1 C2G730      0.0000 
     30 C3G       -70.6190   73.4080    3.8160 C.3       1 C2G730      0.0000 
     31 H         -68.3798   79.6389    8.6187 H         1 C2G730      0.0000 
     32 H         -70.1634   79.6847    6.8966 H         1 C2G730      0.0000 
     33 H         -68.3055   81.6188   11.7527 H         1 C2G730      0.0000 
     34 H         -67.4636   80.3842   10.7564 H         1 C2G730      0.0000 
     35 H         -73.2687   81.7368    7.0515 H         1 C2G730      0.0000 
     36 H         -71.0001   82.2392    5.6521 H         1 C2G730      0.0000 
     37 H         -70.4548   80.1467    5.0536 H         1 C2G730      0.0000 
     38 H         -73.2613   79.2970    4.5816 H         1 C2G730      0.0000 
     39 H         -72.0313   77.4107    4.3470 H         1 C2G730      0.0000 
     40 H         -72.3064   77.3668    6.0969 H         1 C2G730      0.0000 
     41 H         -70.2299   74.3754    1.6746 H         1 C2G730      0.0000 
     42 H         -70.0494   72.7746    0.9364 H         1 C2G730      0.0000 
     43 H         -71.1938   71.7887    2.5604 H         1 C2G730      0.0000 
     44 H         -70.1723   72.5594    4.3472 H         1 C2G730      0.0000 
     45 H         -69.8027   74.0253    3.4229 H         1 C2G730      0.0000 
     46 H         -72.8518   81.9262    3.8119 H         1 C2G730      0.0000 
     47 H         -70.5963   80.8394    3.0206 H         1 C2G730      0.0000 
     48 H         -72.6497   73.5677    0.9494 H         1 C2G730      0.0000 
     49 H         -72.8341   73.6635    3.5563 H         1 C2G730      0.0000 
@<TRIPOS>BOND
     1    2    1 am   
     2    6    1 1    
     3    9    1 1    
     4    3    2 1    
     5    7    2 2    
     6    4    3 2    
     7    5    4 1    
     8    8    4 1    
     9    6    5 2    
    10   31    5 1    
    11   32    6 1    
    12   33    8 1    
    13   34    8 1    
    14   10    9 1    
    15   14    9 1    
    16   35    9 1    
    17   11   10 1    
    18   12   10 1    
    19   36   10 1    
    20   46   11 1    
    21   13   12 1    
    22   15   12 1    
    23   37   12 1    
    24   14   13 1    
    25   16   13 1    
    26   38   13 1    
    27   47   15 1    
    28   17   16 1    
    29   39   16 1    
    30   40   16 1    
    31   18   17 1    
    32   19   18 ar   
    33   20   18 ar   
    34   21   18 1    
    35   22   21 1    
    36   23   22 ar   
    37   24   22 ar   
    38   25   22 1    
    39   30   25 1    
    40   27   26 1    
    41   48   26 1    
    42   28   27 1    
    43   41   27 1    
    44   42   27 1    
    45   29   28 1    
    46   30   28 1    
    47   43   28 1    
    48   49   29 1    
    49   44   30 1    
    50   45   30 1    
@<TRIPOS>SUBSTRUCTURE
     1 C2G730      1 GROUP   
@<TRIPOS>SET

