#    Name: 1j0x_NAD_1_INTS_M
#    Modification time : Tue Mar 25 08:26:21 2014

@<TRIPOS>MOLECULE
1j0x_NAD_1_INTS_M
   64     0     9     0     0
SMALL
NO_CHARGES


@<TRIPOS>ATOM
      1 N          -0.3670    2.1940   35.9530 N.am      2 SEC2        0.0000 
      2 N          -0.9860    3.4310   35.5410 N.am      8 SEL2        0.0000 
      3 N           0.2520    0.9570   36.3650 N.am      5 SEP2        0.0000 
      4 CA          0.9750    4.5705   41.6610 C.3       3 GLC5        0.0000 
      5 CA         -0.2600    5.0580   40.0710 C.3       9 GLL5        0.0000 
      6 CA          2.2100    4.0830   43.2510 C.3       6 GLP5        0.0000 
      7 CA         -1.0280    3.2025   39.4615 C.3       3 GLC5        0.0000 
      8 CA         -1.7820    4.6860   40.2930 C.3       9 GLL5        0.0000 
      9 CA         -0.2740    1.7190   38.6300 C.3       6 GLP5        0.0000 
     10 O          -1.6460    3.2080   42.1920 O.2       1 ALC1        0.0000 
     11 O          -1.9340    3.2740   40.6300 O.2       7 ALL1        0.0000 
     12 O          -1.3580    3.1420   43.7540 O.2       4 ALP1        0.0000 
     13 CA         -3.4705    6.5800   42.9710 C.3       3 GLC5        0.0000 
     14 CA         -2.2990    5.6240   41.3830 C.3       9 GLL5        0.0000 
     15 CA         -4.6420    7.5360   44.5590 C.3       6 GLP5        0.0000 
     16 O          -3.0660    4.6170   43.6550 O.2       1 ALC1        0.0000 
     17 O          -3.2950    5.1460   42.2390 O.2       7 ALL1        0.0000 
     18 O          -2.8370    4.0880   45.0710 O.2       4 ALP1        0.0000 
     19 O          -2.3265    4.1440   42.9965 O.2       1 ALC1        0.0000 
     20 CA          0.6205    5.0660   42.6590 C.3       3 GLC5        0.0000 
     21 CA         -0.9690    6.0490   42.0670 C.3       9 GLL5        0.0000 
     22 CA         -1.0540    8.1000   46.5695 C.3       3 GLC5        0.0000 
     23 CA         -0.2380    9.7140   45.4300 C.3       9 GLL5        0.0000 
     24 CA         -1.8700    6.4860   47.7090 C.3       6 GLP5        0.0000 
     25 O           0.0050   11.4840   47.3190 O.2       1 ALC1        0.0000 
     26 O          -0.4710   10.9780   45.7490 O.2       7 ALL1        0.0000 
     27 O           0.4810   11.9900   48.8890 O.2       4 ALP1        0.0000 
     28 CA         -0.0445    5.6625   46.5800 C.3       3 GLC5        0.0000 
     29 CA          0.7790    7.5570   45.9700 C.3       9 GLL5        0.0000 
     30 CA         -0.8680    3.7680   47.1900 C.3       6 GLP5        0.0000 
     31 CA         -0.5455    7.0215   46.8395 C.3       3 GLC5        0.0000 
     32 CA          1.8690    7.7585   44.5885 C.3       3 GLC5        0.0000 
     33 CA          2.9590    7.9600   43.2070 C.3       6 GLP5        0.0000 
     34 CA         -1.1605    7.1060   45.8180 C.3       3 GLC5        0.0000 
     35 CA         -0.4510    7.7260   43.9270 C.3       9 GLL5        0.0000 
     36 N           2.6150    2.1405   35.8980 N.am      2 SEC2        0.0000 
     37 N           2.0780    3.3150   35.9660 N.am      8 SEL2        0.0000 
     38 N           3.1520    0.9660   35.8300 N.am      5 SEP2        0.0000 
     39 CA          5.4690    4.8470   34.0685 C.3       3 GLC5        0.0000 
     40 CA          5.7270    6.9570   33.6480 C.3       9 GLL5        0.0000 
     41 CA          5.2110    2.7370   34.4890 C.3       6 GLP5        0.0000 
     42 CA          5.0620    4.0105   33.1855 C.3       3 GLC5        0.0000 
     43 CA          4.9130    5.2840   31.8820 C.3       9 GLL5        0.0000 
     44 CA         -0.1713    3.5253   39.0082 C.3       3 GLC5        0.0000 
     45 CA          0.1230    5.6050   38.7020 C.3       9 GLL5        0.0000 
     46 CA          1.4597    6.6648   40.0423 C.3       3 GLC5        0.0000 
     47 CA          2.9880    7.9980   40.6980 C.3       6 GLP5        0.0000 
     48 CA          1.2430    8.2629   43.7867 C.3       3 GLC5        0.0000 
     49 CA          4.4817    4.6732   35.1510 C.3       3 GLC5        0.0000 
     50 CA          3.1140    6.2600   35.9710 C.3       9 GLL5        0.0000 
     51 CA          4.1093    9.1022   36.6638 C.3       3 GLC5        0.0000 
     52 CA          4.3910    6.9590   35.6550 C.3       9 GLL5        0.0000 
     53 CA          3.9090   10.5540   38.0390 C.3       6 GLP5        0.0000 
     54 CA          6.6944    8.6871   34.4874 C.3       3 GLC5        0.0000 
     55 CA          4.2280    8.3420   34.9220 C.3       9 GLL5        0.0000 
     56 CA          8.3150    9.7980   35.0550 C.3       6 GLP5        0.0000 
     57 CA          5.9383    2.9612   32.1917 C.3       3 GLC5        0.0000 
     58 CA          5.1670    4.2780   31.0250 C.3       9 GLL5        0.0000 
     59 CA          5.9900    1.8120   33.5630 C.3       6 GLP5        0.0000 
     60 CA          8.4965    3.0322   30.6502 C.3       3 GLC5        0.0000 
     61 CA          6.6060    3.9430   30.6160 C.3       9 GLL5        0.0000 
     62 CA          9.9320    1.5130   30.6140 C.3       6 GLP5        0.0000 
     63 CA          7.8290    4.2828   29.2692 C.3       3 GLC5        0.0000 
     64 CA          8.5970    4.0140   27.8520 C.3       6 GLP5        0.0000 
@<TRIPOS>BOND
@<TRIPOS>SUBSTRUCTURE
     1 ALC1       10 GROUP        1 X    ALC  0     ROOT ALC X 1
     2 SEC2        1 GROUP        1 X    SEC  0     **** SEC X 2
     3 GLC5        4 GROUP        1 X    GLC  0     **** GLC X 6
     4 ALP1       12 GROUP        1 Y    ALP  0     ROOT ALP Y 8
     5 SEP2        3 GROUP        1 Y    SEP  0     **** SEP Y 9
     6 GLP5        6 GROUP        1 Y    GLP  0     **** GLP Y 13
     7 ALL1       11 GROUP        1 Z    ALL  0     ROOT ALL Z 15
     8 SEL2        2 GROUP        1 Z    SEL  0     **** SEL Z 16
     9 GLL5        5 GROUP        1 Z    GLL  0     **** GLL Z 20
@<TRIPOS>SET

