#    Name: 1j0x_NAD_1_ligand
#    Modification time : Tue Mar 25 08:26:22 2014

@<TRIPOS>MOLECULE
1j0x_NAD_1_ligand
   70    74     1     0     0
SMALL
NO_CHARGES


@<TRIPOS>ATOM
      1 PA         -1.0580    4.6110   36.4530 P.3       1 NAD1336     0.0000 
      2 O1A        -1.4680    6.0200   36.2380 O.co2     1 NAD1336     0.0000 
      3 O2A        -0.9860    3.4310   35.5410 O.co2     1 NAD1336     0.0000 
      4 O5B        -0.0490    4.5320   37.7060 O.3       1 NAD1336     0.0000 
      5 C5B         0.1230    5.6050   38.7020 C.3       1 NAD1336     0.0000 
      6 C4B        -0.2600    5.0580   40.0710 C.3       1 NAD1336     0.0000 
      7 O4B        -0.0260    6.1710   41.0210 O.3       1 NAD1336     0.0000 
      8 C3B        -1.7820    4.6860   40.2930 C.3       1 NAD1336     0.0000 
      9 O3B        -1.9340    3.2740   40.6300 O.3       1 NAD1336     0.0000 
     10 C2B        -2.2990    5.6240   41.3830 C.3       1 NAD1336     0.0000 
     11 O2B        -3.2950    5.1460   42.2390 O.3       1 NAD1336     0.0000 
     12 C1B        -0.9690    6.0490   42.0670 C.3       1 NAD1336     0.0000 
     13 N9A        -1.0470    7.3770   42.6900 N.pl3     1 NAD1336     0.0000 
     14 C8A        -1.6580    8.5750   42.3040 C.2       1 NAD1336     0.0000 
     15 N7A        -1.4900    9.5680   43.1620 N.2       1 NAD1336     0.0000 
     16 C5A        -0.7520    9.0970   44.1820 C.ar      1 NAD1336     0.0000 
     17 C6A        -0.2380    9.7140   45.4300 C.ar      1 NAD1336     0.0000 
     18 N6A        -0.4710   10.9780   45.7490 N.pl3     1 NAD1336     0.0000 
     19 N1A         0.5080    8.8550   46.2400 N.ar      1 NAD1336     0.0000 
     20 C2A         0.7790    7.5570   45.9700 C.ar      1 NAD1336     0.0000 
     21 N3A         0.3130    6.9210   44.8000 N.ar      1 NAD1336     0.0000 
     22 C4A        -0.4510    7.7260   43.9270 C.ar      1 NAD1336     0.0000 
     23 O3          0.2590    5.0470   35.6020 O.3       1 NAD1336     0.0000 
     24 PN          1.5950    4.2950   34.9460 P.3       1 NAD1336     0.0000 
     25 O1N         1.2560    3.8150   33.5920 O.co2     1 NAD1336     0.0000 
     26 O2N         2.0780    3.3150   35.9660 O.co2     1 NAD1336     0.0000 
     27 O5D         2.5960    5.5690   34.7830 O.3       1 NAD1336     0.0000 
     28 C5D         3.1140    6.2600   35.9710 C.3       1 NAD1336     0.0000 
     29 C4D         4.3910    6.9590   35.6550 C.3       1 NAD1336     0.0000 
     30 O4D         5.2060    6.1310   34.7150 O.3       1 NAD1336     0.0000 
     31 C3D         4.2280    8.3420   34.9220 C.3       1 NAD1336     0.0000 
     32 O3D         5.1170    9.3230   35.4960 O.3       1 NAD1336     0.0000 
     33 C2D         4.6130    8.0490   33.4610 C.3       1 NAD1336     0.0000 
     34 O2D         5.0200    9.1960   32.7620 O.3       1 NAD1336     0.0000 
     35 C1D         5.7270    6.9570   33.6480 C.3       1 NAD1336     0.0000 
     36 N1N         5.9990    6.0880   32.4440 N.pl3     1 NAD1336     0.0000 
     37 C2N         4.9130    5.2840   31.8820 C.ar      1 NAD1336     0.0000 
     38 C3N         5.1670    4.2780   31.0250 C.ar      1 NAD1336     0.0000 
     39 C7N         4.0460    3.4240   30.4290 C.2       1 NAD1336     0.0000 
     40 O7N         3.8560    3.4620   29.1840 O.2       1 NAD1336     0.0000 
     41 N7N         3.3000    2.6560   31.2400 N.am      1 NAD1336     0.0000 
     42 C4N         6.6060    3.9430   30.6160 C.ar      1 NAD1336     0.0000 
     43 C5N         7.5160    5.1600   30.7570 C.ar      1 NAD1336     0.0000 
     44 C6N         7.3010    6.0210   31.8680 C.ar      1 NAD1336     0.0000 
     45 H          -0.5191    6.4494   38.4718 H         1 NAD1336     0.0000 
     46 H           1.1563    5.9361   38.7354 H         1 NAD1336     0.0000 
     47 H           0.3401    4.2376   40.3445 H         1 NAD1336     0.0000 
     48 H          -2.2866    4.9341   39.3688 H         1 NAD1336     0.0000 
     49 H          -2.6121    6.5487   40.8315 H         1 NAD1336     0.0000 
     50 H          -0.6887    5.3067   42.7586 H         1 NAD1336     0.0000 
     51 H          -2.1682    8.6355   41.4474 H         1 NAD1336     0.0000 
     52 H          -1.0537   11.4907   45.1184 H         1 NAD1336     0.0000 
     53 H          -0.0432   11.3052   46.5915 H         1 NAD1336     0.0000 
     54 H           1.3504    6.9858   46.6348 H         1 NAD1336     0.0000 
     55 H           3.2868    5.5390   36.7816 H         1 NAD1336     0.0000 
     56 H           2.3795    6.9930   36.3315 H         1 NAD1336     0.0000 
     57 H           4.9735    7.1351   36.5410 H         1 NAD1336     0.0000 
     58 H           3.2115    8.6082   34.9606 H         1 NAD1336     0.0000 
     59 H           3.7677    7.5324   33.0257 H         1 NAD1336     0.0000 
     60 H           6.6138    7.4523   33.9764 H         1 NAD1336     0.0000 
     61 H           3.9563    5.5325   32.1789 H         1 NAD1336     0.0000 
     62 H           3.5025    2.7215   32.2171 H         1 NAD1336     0.0000 
     63 H           2.6087    2.0873   30.7943 H         1 NAD1336     0.0000 
     64 H           6.8800    3.1194   30.3256 H         1 NAD1336     0.0000 
     65 H           8.2138    5.3021   30.0770 H         1 NAD1336     0.0000 
     66 H           8.0559    6.5754   32.2431 H         1 NAD1336     0.0000 
     67 H          -1.7311    3.2181   41.6076 H         1 NAD1336     0.0000 
     68 H          -2.8194    4.9223   43.0898 H         1 NAD1336     0.0000 
     69 H           5.5183    9.7980   34.7129 H         1 NAD1336     0.0000 
     70 H           5.7546    8.8845   32.1592 H         1 NAD1336     0.0000 
@<TRIPOS>BOND
     1    2    1 ar   
     2    3    1 ar   
     3    4    1 1    
     4   23    1 1    
     5    5    4 1    
     6    6    5 1    
     7   45    5 1    
     8   46    5 1    
     9    7    6 1    
    10    8    6 1    
    11   47    6 1    
    12   12    7 1    
    13    9    8 1    
    14   10    8 1    
    15   48    8 1    
    16   67    9 1    
    17   11   10 1    
    18   12   10 1    
    19   49   10 1    
    20   68   11 1    
    21   13   12 1    
    22   50   12 1    
    23   14   13 1    
    24   22   13 1    
    25   15   14 2    
    26   51   14 1    
    27   16   15 1    
    28   17   16 ar   
    29   22   16 ar   
    30   18   17 1    
    31   19   17 ar   
    32   52   18 1    
    33   53   18 1    
    34   20   19 ar   
    35   21   20 ar   
    36   54   20 1    
    37   22   21 ar   
    38   24   23 1    
    39   25   24 ar   
    40   26   24 ar   
    41   27   24 1    
    42   28   27 1    
    43   29   28 1    
    44   55   28 1    
    45   56   28 1    
    46   30   29 1    
    47   31   29 1    
    48   57   29 1    
    49   35   30 1    
    50   32   31 1    
    51   33   31 1    
    52   58   31 1    
    53   69   32 1    
    54   34   33 1    
    55   35   33 1    
    56   59   33 1    
    57   70   34 1    
    58   36   35 1    
    59   60   35 1    
    60   37   36 ar   
    61   44   36 ar   
    62   38   37 ar   
    63   61   37 1    
    64   39   38 1    
    65   42   38 ar   
    66   40   39 2    
    67   41   39 am   
    68   62   41 1    
    69   63   41 1    
    70   43   42 ar   
    71   64   42 1    
    72   44   43 ar   
    73   65   43 1    
    74   66   44 1    
@<TRIPOS>SUBSTRUCTURE
     1 NAD1336     1 GROUP   
@<TRIPOS>SET

