#    Name: 2r5q_1UN_2_INTS_M
#    Modification time : Mon Mar 24 23:13:52 2014

@<TRIPOS>MOLECULE
2r5q_1UN_2_INTS_M
   98     0     9     0     0
SMALL
NO_CHARGES


@<TRIPOS>ATOM
      1 CA         25.9470  -23.4235  -43.5665 C.3       3 GLC5        0.0000 
      2 CA         24.9800  -22.2350  -45.0980 C.3       9 GLL5        0.0000 
      3 CA         26.9140  -24.6120  -42.0350 C.3       6 GLP5        0.0000 
      4 CA         26.9790  -22.5540  -45.1165 C.3       3 GLC5        0.0000 
      5 CA         28.9780  -22.8730  -45.1350 C.3       6 GLP5        0.0000 
      6 CA         25.2420  -23.2250  -42.3225 C.3       3 GLC5        0.0000 
      7 CA         24.6570  -22.1120  -43.5930 C.3       9 GLL5        0.0000 
      8 CA         25.8270  -24.3380  -41.0520 C.3       6 GLP5        0.0000 
      9 CA         25.8240  -22.0165  -41.6050 C.3       3 GLC5        0.0000 
     10 CA         25.2870  -20.8310  -42.9950 C.3       9 GLL5        0.0000 
     11 CA         26.3610  -23.2020  -40.2150 C.3       6 GLP5        0.0000 
     12 CA         21.9975  -21.6825  -44.4120 C.3       3 GLC5        0.0000 
     13 CA         22.9170  -20.9210  -45.8900 C.3       9 GLL5        0.0000 
     14 CA         21.0780  -22.4440  -42.9340 C.3       6 GLP5        0.0000 
     15 CA         26.2265  -18.2705  -47.1695 C.3       3 GLC5        0.0000 
     16 CA         24.5090  -18.4380  -46.0140 C.3       9 GLL5        0.0000 
     17 CA         27.9440  -18.1030  -48.3250 C.3       6 GLP5        0.0000 
     18 CA         25.7545  -17.7940  -44.6625 C.3       3 GLC5        0.0000 
     19 CA         27.0000  -17.1500  -43.3110 C.3       6 GLP5        0.0000 
     20 CA         16.6570  -21.9885  -47.7240 C.3       3 GLC5        0.0000 
     21 CA         18.2430  -21.2320  -47.1810 C.3       9 GLL5        0.0000 
     22 CA         15.0710  -22.7450  -48.2670 C.3       6 GLP5        0.0000 
     23 CA         17.9515  -21.1575  -45.3120 C.3       3 GLC5        0.0000 
     24 CA         17.6600  -21.0830  -43.4430 C.3       6 GLP5        0.0000 
     25 CA         19.5910  -18.0030  -49.4125 C.3       3 GLC5        0.0000 
     26 CA         18.2730  -18.8270  -47.9830 C.3       9 GLL5        0.0000 
     27 CA         20.9090  -17.1790  -50.8420 C.3       6 GLP5        0.0000 
     28 CA         16.3850  -18.6045  -48.7335 C.3       3 GLC5        0.0000 
     29 CA         14.4970  -18.3820  -49.4840 C.3       6 GLP5        0.0000 
     30 CA         17.4015  -16.8925  -48.1950 C.3       3 GLC5        0.0000 
     31 CA         16.5300  -14.9580  -48.4070 C.3       6 GLP5        0.0000 
     32 CA         16.8315  -18.8730  -46.7630 C.3       3 GLC5        0.0000 
     33 CA         15.3900  -18.9190  -45.5430 C.3       6 GLP5        0.0000 
     34 CA         19.8910  -18.9740  -50.2120 C.3       3 GLC5        0.0000 
     35 CA         18.8730  -20.7690  -49.5820 C.3       9 GLL5        0.0000 
     36 CA         18.3905  -21.2445  -51.4800 C.3       3 GLC5        0.0000 
     37 CA         17.9080  -21.7200  -53.3780 C.3       6 GLP5        0.0000 
     38 CA         16.9720  -21.7570  -48.9245 C.3       3 GLC5        0.0000 
     39 CA         24.0470  -16.6355  -48.3215 C.3       3 GLC5        0.0000 
     40 CA         22.6210  -17.1720  -46.7260 C.3       9 GLL5        0.0000 
     41 CA         25.4730  -16.0990  -49.9170 C.3       6 GLP5        0.0000 
     42 CA         22.4420  -17.5230  -48.8415 C.3       3 GLC5        0.0000 
     43 CA         22.2630  -17.8740  -50.9570 C.3       6 GLP5        0.0000 
     44 N          22.8640  -14.3730  -47.8725 N.am      2 SEC2        0.0000 
     45 N          22.7430  -14.8320  -46.4410 N.am      8 SEL2        0.0000 
     46 N          22.9850  -13.9140  -49.3040 N.am      5 SEP2        0.0000 
     47 O          23.8120  -14.1855  -46.8615 O.2       1 ALC1        0.0000 
     48 O          22.7430  -14.8320  -46.4410 O.2       7 ALL1        0.0000 
     49 O          24.8810  -13.5390  -47.2820 O.2       4 ALP1        0.0000 
     50 O          24.1190  -15.0045  -46.2090 O.2       1 ALC1        0.0000 
     51 O          25.4950  -15.1770  -45.9770 O.2       4 ALP1        0.0000 
     52 O          21.6350  -13.4765  -44.4435 O.2       1 ALC1        0.0000 
     53 O          21.4600  -14.8540  -43.9050 O.2       7 ALL1        0.0000 
     54 O          21.8100  -12.0990  -44.9820 O.2       4 ALP1        0.0000 
     55 CA         22.8125   -9.8865  -40.2260 C.3       3 GLC5        0.0000 
     56 CA         22.2040  -11.8330  -39.9060 C.3       9 GLL5        0.0000 
     57 CA         23.4210   -7.9400  -40.5460 C.3       6 GLP5        0.0000 
     58 CA         22.9360  -13.4325  -37.9115 C.3       3 GLC5        0.0000 
     59 CA         23.1710  -12.8620  -39.9710 C.3       9 GLL5        0.0000 
     60 CA         22.7010  -14.0030  -35.8520 C.3       6 GLP5        0.0000 
     61 O          24.3795  -11.6980  -38.4600 O.2       1 ALC1        0.0000 
     62 O          24.2980  -12.7840  -39.1770 O.2       7 ALL1        0.0000 
     63 O          24.4610  -10.6120  -37.7430 O.2       4 ALP1        0.0000 
     64 CA         23.8635  -17.0440  -40.3965 C.3       3 GLC5        0.0000 
     65 CA         24.1070  -15.0490  -40.8390 C.3       9 GLL5        0.0000 
     66 CA         23.6200  -19.0390  -39.9540 C.3       6 GLP5        0.0000 
     67 CA         25.5535  -16.0995  -42.0750 C.3       3 GLC5        0.0000 
     68 CA         17.7185  -17.8510  -44.1730 C.3       3 GLC5        0.0000 
     69 CA         18.5090  -15.9230  -44.6530 C.3       9 GLL5        0.0000 
     70 CA         16.9280  -19.7790  -43.6930 C.3       6 GLP5        0.0000 
     71 CA         18.2430  -15.9195  -41.3450 C.3       3 GLC5        0.0000 
     72 CA         17.4610  -14.5770  -42.6030 C.3       9 GLL5        0.0000 
     73 CA         19.0250  -17.2620  -40.0870 C.3       6 GLP5        0.0000 
     74 CA         16.2450  -12.4875  -44.7515 C.3       3 GLC5        0.0000 
     75 CA         18.3370  -13.1890  -44.4560 C.3       9 GLL5        0.0000 
     76 CA         14.1530  -11.7860  -45.0470 C.3       6 GLP5        0.0000 
     77 CA         22.9483  -22.3087  -43.6397 C.3       3 GLC5        0.0000 
     78 CA         24.3068  -19.6123  -41.6500 C.3       3 GLC5        0.0000 
     79 CA         26.0406  -18.6839  -43.5187 C.3       3 GLC5        0.0000 
     80 CA         18.2398  -14.7190  -46.5770 C.3       3 GLC5        0.0000 
     81 CA         19.9940  -15.5790  -45.6310 C.3       9 GLL5        0.0000 
     82 CA         17.2280  -13.6870  -48.0120 C.3       6 GLP5        0.0000 
     83 CA         22.8135  -12.4920  -42.7235 C.3       3 GLC5        0.0000 
     84 CA         20.8890  -13.0110  -41.5720 C.3       9 GLL5        0.0000 
     85 CA         24.2610  -11.4540  -43.8330 C.3       6 GLP5        0.0000 
     86 CA         23.3304  -11.9093  -41.9865 C.3       3 GLC5        0.0000 
     87 CA         21.0530  -11.9010  -40.7120 C.3       9 GLL5        0.0000 
     88 CA         24.4850  -13.4932  -42.2207 C.3       3 GLC5        0.0000 
     89 CA         23.0210  -13.9940  -40.8360 C.3       9 GLL5        0.0000 
     90 CA         25.4060  -12.4650  -43.6040 C.3       6 GLP5        0.0000 
     91 CA         17.7185  -13.7525  -46.0865 C.3       3 GLC5        0.0000 
     92 CA         15.4780  -14.6325  -42.0102 C.3       3 GLC5        0.0000 
     93 CA         13.6800  -15.2790  -41.7580 C.3       6 GLP5        0.0000 
     94 CA         18.5287  -11.2488  -45.5482 C.3       3 GLC5        0.0000 
     95 CA         17.9640  -12.0100  -43.7690 C.3       9 GLL5        0.0000 
     96 CA         18.9070   -9.8980  -46.9840 C.3       6 GLP5        0.0000 
     97 CA         15.8346  -11.7254  -43.3489 C.3       3 GLC5        0.0000 
     98 CA         14.0790  -11.0650  -43.7070 C.3       6 GLP5        0.0000 
@<TRIPOS>BOND
@<TRIPOS>SUBSTRUCTURE
     1 ALC1       47 GROUP        1 X    ALC  0     ROOT ALC X 1
     2 SEC2       44 GROUP        1 X    SEC  0     **** SEC X 2
     3 GLC5        1 GROUP        1 X    GLC  0     **** GLC X 6
     4 ALP1       49 GROUP        1 Y    ALP  0     ROOT ALP Y 8
     5 SEP2       46 GROUP        1 Y    SEP  0     **** SEP Y 9
     6 GLP5        3 GROUP        1 Y    GLP  0     **** GLP Y 13
     7 ALL1       48 GROUP        1 Z    ALL  0     ROOT ALL Z 15
     8 SEL2       45 GROUP        1 Z    SEL  0     **** SEL Z 16
     9 GLL5        2 GROUP        1 Z    GLL  0     **** GLL Z 20
@<TRIPOS>SET

