#    Name: 2r5q_1UN_2_ligand
#    Modification time : Mon Mar 24 23:13:52 2014

@<TRIPOS>MOLECULE
2r5q_1UN_2_ligand
   86    89     1     0     0
SMALL
NO_CHARGES


@<TRIPOS>ATOM
      1 C1         25.0510  -19.6690  -45.2190 C.3       1 1UN900      0.0000 
      2 C2         24.4760  -21.0030  -45.8630 C.3       1 1UN900      0.0000 
      3 C3         24.9800  -22.2350  -45.0980 C.3       1 1UN900      0.0000 
      4 C4         24.6570  -22.1120  -43.5930 C.3       1 1UN900      0.0000 
      5 C5         25.2870  -20.8310  -42.9950 C.3       1 1UN900      0.0000 
      6 C6         24.7000  -19.5400  -43.6970 C.3       1 1UN900      0.0000 
      7 N7         23.0020  -18.4180  -46.0090 N.4       1 1UN900      0.0000 
      8 C8         22.4530  -19.6620  -46.6680 C.3       1 1UN900      0.0000 
      9 C9         22.9170  -20.9210  -45.8900 C.3       1 1UN900      0.0000 
     10 C10        24.5090  -18.4380  -46.0140 C.3       1 1UN900      0.0000 
     11 C11        20.9510  -19.6680  -46.6330 C.2       1 1UN900      0.0000 
     12 N12        20.4180  -20.0990  -47.8140 N.am      1 1UN900      0.0000 
     13 C13        18.9570  -20.2260  -48.1310 C.3       1 1UN900      0.0000 
     14 C14        18.2430  -21.2320  -47.1810 C.3       1 1UN900      0.0000 
     15 C15        18.2730  -18.8270  -47.9830 C.3       1 1UN900      0.0000 
     16 C16        18.8730  -20.7690  -49.5820 C.3       1 1UN900      0.0000 
     17 O17        20.3660  -19.3050  -45.5940 O.2       1 1UN900      0.0000 
     18 C18        22.6210  -17.1720  -46.7260 C.3       1 1UN900      0.0000 
     19 C19        22.5430  -16.0390  -45.6730 C.3       1 1UN900      0.0000 
     20 C20        21.2330  -15.9630  -44.8540 C.3       1 1UN900      0.0000 
     21 O21        22.7430  -14.8320  -46.4410 O.3       1 1UN900      0.0000 
     22 N22        21.4600  -14.8540  -43.9050 N.am      1 1UN900      0.0000 
     23 C23        19.9940  -15.5790  -45.6310 C.3       1 1UN900      0.0000 
     24 C24        21.6070  -15.1630  -42.5690 C.2       1 1UN900      0.0000 
     25 O25        21.5520  -16.3360  -42.1500 O.2       1 1UN900      0.0000 
     26 C29        21.8430  -14.0490  -41.6560 C.ar      1 1UN900      0.0000 
     27 C30        20.8890  -13.0110  -41.5720 C.ar      1 1UN900      0.0000 
     28 C31        21.0530  -11.9010  -40.7120 C.ar      1 1UN900      0.0000 
     29 C32        22.2040  -11.8330  -39.9060 C.ar      1 1UN900      0.0000 
     30 C33        23.1710  -12.8620  -39.9710 C.ar      1 1UN900      0.0000 
     31 C34        23.0210  -13.9940  -40.8360 C.ar      1 1UN900      0.0000 
     32 O38        24.2980  -12.7840  -39.1770 O.3       1 1UN900      0.0000 
     33 C39        24.1070  -15.0490  -40.8390 C.3       1 1UN900      0.0000 
     34 S74        18.5090  -15.9230  -44.6530 S.3       1 1UN900      0.0000 
     35 C77        18.0810  -14.4470  -43.8660 C.ar      1 1UN900      0.0000 
     36 C78        17.4610  -14.5770  -42.6030 C.ar      1 1UN900      0.0000 
     37 C79        17.0910  -13.3950  -41.9220 C.ar      1 1UN900      0.0000 
     38 C80        17.3420  -12.1280  -42.5030 C.ar      1 1UN900      0.0000 
     39 C81        17.9640  -12.0100  -43.7690 C.ar      1 1UN900      0.0000 
     40 C82        18.3370  -13.1890  -44.4560 C.ar      1 1UN900      0.0000 
     41 H          26.1244  -19.6888  -45.3270 H         1 1UN900      0.0000 
     42 H          24.8303  -21.0396  -46.8814 H         1 1UN900      0.0000 
     43 H          26.0548  -22.3213  -45.2229 H         1 1UN900      0.0000 
     44 H          24.4984  -23.1247  -45.4913 H         1 1UN900      0.0000 
     45 H          25.0526  -22.9776  -43.0715 H         1 1UN900      0.0000 
     46 H          23.5805  -22.0716  -43.4615 H         1 1UN900      0.0000 
     47 H          26.3557  -20.8449  -43.1503 H         1 1UN900      0.0000 
     48 H          25.0634  -20.7743  -41.9399 H         1 1UN900      0.0000 
     49 H          23.6473  -19.5321  -43.5760 H         1 1UN900      0.0000 
     50 H          25.1774  -18.6836  -43.2950 H         1 1UN900      0.0000 
     51 H          22.6694  -18.3611  -44.9901 H         1 1UN900      0.0000 
     52 H          22.7955  -19.7427  -47.6676 H         1 1UN900      0.0000 
     53 H          22.5522  -20.8670  -44.8737 H         1 1UN900      0.0000 
     54 H          22.5290  -21.8047  -46.3772 H         1 1UN900      0.0000 
     55 H          24.8822  -18.5031  -47.0334 H         1 1UN900      0.0000 
     56 H          24.9000  -17.5363  -45.5484 H         1 1UN900      0.0000 
     57 H          21.0537  -20.3825  -48.6142 H         1 1UN900      0.0000 
     58 H          21.6535  -17.2747  -47.1874 H         1 1UN900      0.0000 
     59 H          23.3657  -16.9063  -47.4570 H         1 1UN900      0.0000 
     60 H          23.3810  -16.1706  -44.9950 H         1 1UN900      0.0000 
     61 H          21.0911  -16.8572  -44.3182 H         1 1UN900      0.0000 
     62 H          21.4987  -13.9193  -44.2665 H         1 1UN900      0.0000 
     63 H          19.8304  -16.1660  -46.5041 H         1 1UN900      0.0000 
     64 H          19.9050  -14.5344  -45.8168 H         1 1UN900      0.0000 
     65 H          20.0373  -13.0644  -42.1622 H         1 1UN900      0.0000 
     66 H          20.3528  -11.1697  -40.6790 H         1 1UN900      0.0000 
     67 H          22.3434  -11.0432  -39.2743 H         1 1UN900      0.0000 
     68 H          17.2881  -15.4829  -42.2006 H         1 1UN900      0.0000 
     69 H          16.6404  -13.4535  -41.0064 H         1 1UN900      0.0000 
     70 H          17.0667  -11.2767  -41.9946 H         1 1UN900      0.0000 
     71 H          18.1382  -11.1002  -44.1743 H         1 1UN900      0.0000 
     72 H          18.7854  -13.1307  -45.3665 H         1 1UN900      0.0000 
     73 H          18.6351  -22.1494  -47.2491 H         1 1UN900      0.0000 
     74 H          18.3143  -20.9531  -46.2233 H         1 1UN900      0.0000 
     75 H          17.2686  -21.3134  -47.3908 H         1 1UN900      0.0000 
     76 H          18.3653  -18.4647  -47.0555 H         1 1UN900      0.0000 
     77 H          18.6719  -18.1511  -48.6027 H         1 1UN900      0.0000 
     78 H          17.2946  -18.8687  -48.1853 H         1 1UN900      0.0000 
     79 H          19.3136  -20.1531  -50.2351 H         1 1UN900      0.0000 
     80 H          19.3193  -21.6594  -49.6718 H         1 1UN900      0.0000 
     81 H          17.9258  -20.8845  -49.8811 H         1 1UN900      0.0000 
     82 H          24.5272  -15.1469  -41.7411 H         1 1UN900      0.0000 
     83 H          24.8407  -14.8285  -40.1963 H         1 1UN900      0.0000 
     84 H          23.7523  -15.9479  -40.5818 H         1 1UN900      0.0000 
     85 H          23.7317  -14.6823  -46.4348 H         1 1UN900      0.0000 
     86 H          24.2134  -11.9132  -38.6926 H         1 1UN900      0.0000 
@<TRIPOS>BOND
     1    2    1 1    
     2    6    1 1    
     3   10    1 1    
     4   41    1 1    
     5    3    2 1    
     6    9    2 1    
     7   42    2 1    
     8    4    3 1    
     9   43    3 1    
    10   44    3 1    
    11    5    4 1    
    12   45    4 1    
    13   46    4 1    
    14    6    5 1    
    15   47    5 1    
    16   48    5 1    
    17   49    6 1    
    18   50    6 1    
    19    8    7 1    
    20   10    7 1    
    21   18    7 1    
    22   51    7 1    
    23    9    8 1    
    24   11    8 1    
    25   52    8 1    
    26   53    9 1    
    27   54    9 1    
    28   55   10 1    
    29   56   10 1    
    30   12   11 am   
    31   17   11 2    
    32   13   12 1    
    33   57   12 1    
    34   14   13 1    
    35   15   13 1    
    36   16   13 1    
    37   73   14 1    
    38   74   14 1    
    39   75   14 1    
    40   76   15 1    
    41   77   15 1    
    42   78   15 1    
    43   79   16 1    
    44   80   16 1    
    45   81   16 1    
    46   19   18 1    
    47   58   18 1    
    48   59   18 1    
    49   20   19 1    
    50   21   19 1    
    51   60   19 1    
    52   22   20 1    
    53   23   20 1    
    54   61   20 1    
    55   85   21 1    
    56   24   22 am   
    57   62   22 1    
    58   34   23 1    
    59   63   23 1    
    60   64   23 1    
    61   25   24 2    
    62   26   24 1    
    63   27   26 ar   
    64   31   26 ar   
    65   28   27 ar   
    66   65   27 1    
    67   29   28 ar   
    68   66   28 1    
    69   30   29 ar   
    70   67   29 1    
    71   31   30 ar   
    72   32   30 1    
    73   33   31 1    
    74   86   32 1    
    75   82   33 1    
    76   83   33 1    
    77   84   33 1    
    78   35   34 1    
    79   36   35 ar   
    80   40   35 ar   
    81   37   36 ar   
    82   68   36 1    
    83   38   37 ar   
    84   69   37 1    
    85   39   38 ar   
    86   70   38 1    
    87   40   39 ar   
    88   71   39 1    
    89   72   40 1    
@<TRIPOS>SUBSTRUCTURE
     1 1UN900      1 GROUP   
@<TRIPOS>SET

