#    Name: 3q65_NAP_1_INTS_M
#    Modification time : Tue Mar 25 08:56:42 2014

@<TRIPOS>MOLECULE
3q65_NAP_1_INTS_M
  124     0    12     0     0
SMALL
NO_CHARGES


@<TRIPOS>ATOM
      1 N          16.0630   -6.8010   10.0020 N.am      2 SEC2        0.0000 
      2 N          15.3640   -5.9550    9.1560 N.am     10 SEL2        0.0000 
      3 N          16.7620   -7.6470   10.8480 N.am      6 SEP2        0.0000 
      4 N          14.5435   -7.0550    8.3500 N.am      2 SEC2        0.0000 
      5 N          13.7230   -8.1550    7.5440 N.am      6 SEP2        0.0000 
      6 N          15.3980   -2.1235   10.0415 N.am      2 SEC2        0.0000 
      7 N          15.3420   -3.4530    9.3540 N.am     10 SEL2        0.0000 
      8 N          15.4540   -0.7940   10.7290 N.am      6 SEP2        0.0000 
      9 CA         12.4855   -5.5685    8.0335 C.3       4 GLC5        0.0000 
     10 CA         12.1480   -3.8010    9.3340 C.3      12 GLL5        0.0000 
     11 CA         12.8230   -7.3360    6.7330 C.3       8 GLP5        0.0000 
     12 CA         11.8850   -1.9320    8.7955 C.3       4 GLC5        0.0000 
     13 CA         11.6220   -0.0630    8.2570 C.3       8 GLP5        0.0000 
     14 CA          8.7135   -3.7515    8.3355 C.3       4 GLC5        0.0000 
     15 CA          9.8250   -3.2080    9.9370 C.3      12 GLL5        0.0000 
     16 CA          7.6020   -4.2950    6.7340 C.3       8 GLP5        0.0000 
     17 CA         10.7235   -1.6355    9.0970 C.3       4 GLC5        0.0000 
     18 N           7.7535   -4.8845    9.9285 N.am      2 SEC2        0.0000 
     19 N           8.7010   -3.7730    9.5360 N.am     10 SEL2        0.0000 
     20 N           6.8060   -5.9960   10.3210 N.am      6 SEP2        0.0000 
     21 CA         12.1090   -4.6320   12.7870 C.3       4 GLC5        0.0000 
     22 CA         10.1190   -4.0570   12.1190 C.3      12 GLL5        0.0000 
     23 CA         14.0990   -5.2070   13.4550 C.3       8 GLP5        0.0000 
     24 N          13.2555   -2.1465   15.3925 N.am      2 SEC2        0.0000 
     25 N          12.0320   -2.9450   15.0360 N.am     10 SEL2        0.0000 
     26 N          14.4790   -1.3480   15.7490 N.am      6 SEP2        0.0000 
     27 O          12.0135   -4.1665   19.1660 O.2       1 ALC1        0.0000 
     28 O          11.8360   -3.8540   17.8320 O.2       9 ALL1        0.0000 
     29 O          12.1910   -4.4790   20.5000 O.2       5 ALP1        0.0000 
     30 O          13.0750   -3.1085   17.7900 O.2       1 ALC1        0.0000 
     31 O          14.3140   -2.3630   17.7480 O.2       5 ALP1        0.0000 
     32 CA         10.1050   -7.3040   14.7810 C.3       4 GLC5        0.0000 
     33 CA          9.3650   -5.7690   16.1030 C.3      12 GLL5        0.0000 
     34 CA         10.8450   -8.8390   13.4590 C.3       8 GLP5        0.0000 
     35 CA          8.8415   -3.7725   16.2450 C.3       4 GLC5        0.0000 
     36 CA          8.3180   -1.7760   16.3870 C.3       8 GLP5        0.0000 
     37 NZ         12.8410   -2.4450    5.8175 N.4       3 LYC4        0.0000 
     38 NZ         14.2400   -2.3870    6.3060 N.4      11 LYL4        0.0000 
     39 NZ         11.4420   -2.5030    5.3290 N.4       7 LYP4        0.0000 
     40 N          12.8410   -2.4450    5.8175 N.am      2 SEC2        0.0000 
     41 N          14.2400   -2.3870    6.3060 N.am     10 SEL2        0.0000 
     42 N          11.4420   -2.5030    5.3290 N.am      6 SEP2        0.0000 
     43 N          15.9495   -5.4460    4.8565 N.am      2 SEC2        0.0000 
     44 N          14.9220   -4.5190    5.0700 N.am     10 SEL2        0.0000 
     45 N          16.9770   -6.3730    4.6430 N.am      6 SEP2        0.0000 
     46 N          13.8945   -5.3560    4.8020 N.am      2 SEC2        0.0000 
     47 N          12.8670   -6.1930    4.5340 N.am      6 SEP2        0.0000 
     48 N          17.7305   -4.3515    6.5630 N.am      2 SEC2        0.0000 
     49 N          16.5430   -3.3140    6.5230 N.am     10 SEL2        0.0000 
     50 N          18.9180   -5.3890    6.6030 N.am      6 SEP2        0.0000 
     51 CA         17.3745   -4.2705    7.1135 C.3       4 GLC5        0.0000 
     52 CA         16.9070   -2.1960    7.3320 C.3      12 GLL5        0.0000 
     53 CA         17.8420   -6.3450    6.8950 C.3       8 GLP5        0.0000 
     54 CA         17.7915   -3.6865    8.3690 C.3       4 GLC5        0.0000 
     55 CA         18.6760   -5.1770    9.4060 C.3       8 GLP5        0.0000 
     56 CA         17.2315   -1.9005    9.4695 C.3       4 GLC5        0.0000 
     57 CA         17.5560   -1.6050   11.6070 C.3       8 GLP5        0.0000 
     58 CA         19.4440   -0.8630    7.1700 C.3       4 GLC5        0.0000 
     59 CA         17.5370   -1.0540    6.5430 C.3      12 GLL5        0.0000 
     60 CA         21.3510   -0.6720    7.7970 C.3       8 GLP5        0.0000 
     61 N          14.8750    1.2305    5.1455 N.am      2 SEC2        0.0000 
     62 N          15.5480    0.1440    5.8690 N.am     10 SEL2        0.0000 
     63 N          14.2020    2.3170    4.4220 N.am      6 SEP2        0.0000 
     64 CA         17.2465    1.5425    3.1565 C.3       4 GLC5        0.0000 
     65 CA         17.5660    0.0650    4.5270 C.3      12 GLL5        0.0000 
     66 CA         16.9270    3.0200    1.7860 C.3       8 GLP5        0.0000 
     67 N          16.7925    2.3340    5.8420 N.am      2 SEC2        0.0000 
     68 N          17.9380    1.3230    5.1360 N.am     10 SEL2        0.0000 
     69 N          15.6470    3.3450    6.5480 N.am      6 SEP2        0.0000 
     70 O          19.0765    1.8460    4.8645 O.2       1 ALC1        0.0000 
     71 O          17.9380    1.3230    5.1360 O.2       9 ALL1        0.0000 
     72 O          20.2150    2.3690    4.5930 O.2       5 ALP1        0.0000 
     73 CA         19.8830   -2.3860    4.8055 C.3       4 GLC5        0.0000 
     74 CA         18.7420   -0.9250    4.5690 C.3      12 GLL5        0.0000 
     75 CA         21.0240   -3.8470    5.0420 C.3       8 GLP5        0.0000 
     76 CA         20.2030   -0.4965    5.5255 C.3       4 GLC5        0.0000 
     77 CA         21.6640   -0.0680    6.4820 C.3       8 GLP5        0.0000 
     78 N          21.4390   -3.5000   -1.7815 N.am      2 SEC2        0.0000 
     79 N          20.3180   -2.8110   -1.0210 N.am     10 SEL2        0.0000 
     80 N          22.5600   -4.1890   -2.5420 N.am      6 SEP2        0.0000 
     81 O          22.9425   -1.8685   -0.0475 O.2       1 ALC1        0.0000 
     82 O          21.6590   -1.7460    0.4700 O.2       9 ALL1        0.0000 
     83 O          24.2260   -1.9910   -0.5650 O.2       5 ALP1        0.0000 
     84 O          21.9685   -1.1840    1.8210 O.2       1 ALC1        0.0000 
     85 O          22.2780   -0.6220    3.1720 O.2       5 ALP1        0.0000 
     86 NZ          8.9425   -0.0785    9.2010 N.4       3 LYC4        0.0000 
     87 NZ          8.7290   -0.1190   10.5730 N.4      11 LYL4        0.0000 
     88 NZ          9.1560   -0.0380    7.8290 N.4       7 LYP4        0.0000 
     89 N           8.9425   -0.0785    9.2010 N.am      2 SEC2        0.0000 
     90 N           8.7290   -0.1190   10.5730 N.am     10 SEL2        0.0000 
     91 N           9.1560   -0.0380    7.8290 N.am      6 SEP2        0.0000 
     92 N           9.1575    1.3445   11.2340 N.am      2 SEC2        0.0000 
     93 N           9.5860    2.8080   11.8950 N.am      6 SEP2        0.0000 
     94 N           9.2100    0.3450   13.8230 N.am      2 SEC2        0.0000 
     95 N           8.1160   -0.3450   13.1750 N.am     10 SEL2        0.0000 
     96 N          10.3040    1.0350   14.4710 N.am      6 SEP2        0.0000 
     97 N           7.2420    0.3360   13.8935 N.am      2 SEC2        0.0000 
     98 N           6.3680    1.0170   14.6120 N.am      6 SEP2        0.0000 
     99 N           7.4475   -1.6990   13.7665 N.am      2 SEC2        0.0000 
    100 N           6.7790   -3.0530   14.3580 N.am      6 SEP2        0.0000 
    101 CA         11.4230   -5.9330    9.4492 C.3       4 GLC5        0.0000 
    102 CA         10.8620   -4.3490    9.9150 C.3      12 GLL5        0.0000 
    103 CA         11.3410   -7.7910    9.2740 C.3       8 GLP5        0.0000 
    104 CA         12.4597   -4.6658   14.2580 C.3       4 GLC5        0.0000 
    105 CA         10.4120   -4.3810   14.5550 C.3      12 GLL5        0.0000 
    106 CA         12.6148   -5.2387   16.9390 C.3       4 GLC5        0.0000 
    107 CA         11.2290   -3.8680   15.5670 C.3      12 GLL5        0.0000 
    108 CA         14.0870   -6.3700   17.6640 C.3       8 GLP5        0.0000 
    109 CA          9.5476   -3.0101   15.8857 C.3       4 GLC5        0.0000 
    110 CA         11.0560   -4.3470   16.8610 C.3      12 GLL5        0.0000 
    111 CA         15.7117    0.0540    3.9022 C.3       4 GLC5        0.0000 
    112 CA         16.6010   -0.6830    5.4120 C.3      12 GLL5        0.0000 
    113 CA         14.3400    0.4170    2.8350 C.3       8 GLP5        0.0000 
    114 CA         15.5072   -0.5815    7.4999 C.3       4 GLC5        0.0000 
    115 CA         14.1030   -0.0090    8.8250 C.3       8 GLP5        0.0000 
    116 CA         17.2213    0.9711    6.7066 C.3       4 GLC5        0.0000 
    117 CA         17.1250    2.3440    8.1610 C.3       8 GLP5        0.0000 
    118 CA         20.2688   -2.9692    3.4190 C.3       4 GLC5        0.0000 
    119 CA         19.5320   -1.6900    2.3570 C.3      12 GLL5        0.0000 
    120 CA         17.3960   -5.0932    0.8265 C.3       4 GLC5        0.0000 
    121 CA         18.5240   -3.4700    1.1650 C.3      12 GLL5        0.0000 
    122 CA         16.7170   -6.6430   -0.0260 C.3       8 GLP5        0.0000 
    123 CA         19.3365   -3.5337    3.9047 C.3       4 GLC5        0.0000 
    124 CA         17.6260   -3.6170    2.1930 C.3      12 GLL5        0.0000 
@<TRIPOS>BOND
@<TRIPOS>SUBSTRUCTURE
     1 ALC1       27 GROUP        1 X    ALC  0     ROOT ALC X 1
     2 SEC2        1 GROUP        1 X    SEC  0     **** SEC X 2
     3 LYC4       37 GROUP        1 X    LYC  0     **** LYC X 4
     4 GLC5        9 GROUP        1 X    GLC  0     **** GLC X 6
     5 ALP1       29 GROUP        1 Y    ALP  0     ROOT ALP Y 8
     6 SEP2        3 GROUP        1 Y    SEP  0     **** SEP Y 9
     7 LYP4       39 GROUP        1 Y    LYP  0     **** LYP Y 11
     8 GLP5       11 GROUP        1 Y    GLP  0     **** GLP Y 13
     9 ALL1       28 GROUP        1 Z    ALL  0     ROOT ALL Z 15
    10 SEL2        2 GROUP        1 Z    SEL  0     **** SEL Z 16
    11 LYL4       38 GROUP        1 Z    LYL  0     **** LYL Z 18
    12 GLL5       10 GROUP        1 Z    GLL  0     **** GLL Z 20
@<TRIPOS>SET

