#    Name: 3q65_NAP_1_ligand
#    Modification time : Tue Mar 25 08:56:42 2014

@<TRIPOS>MOLECULE
3q65_NAP_1_ligand
   73    77     1     0     0
SMALL
NO_CHARGES


@<TRIPOS>ATOM
      1 PA         14.7020   -4.6560    8.8800 P.3       1 NAP318      0.0000 
      2 O1A        15.3640   -5.9550    9.1560 O.co2     1 NAP318      0.0000 
      3 O2A        15.3420   -3.4530    9.3540 O.co2     1 NAP318      0.0000 
      4 O5B        13.1770   -4.7860    9.4130 O.3       1 NAP318      0.0000 
      5 C5B        12.1480   -3.8010    9.3340 C.3       1 NAP318      0.0000 
      6 C4B        10.8620   -4.3490    9.9150 C.3       1 NAP318      0.0000 
      7 O4B        11.1510   -4.6770   11.3030 O.3       1 NAP318      0.0000 
      8 C3B         9.8250   -3.2080    9.9370 C.3       1 NAP318      0.0000 
      9 O3B         8.7010   -3.7730    9.5360 O.3       1 NAP318      0.0000 
     10 C2B         9.7490   -2.7910   11.4090 C.3       1 NAP318      0.0000 
     11 O2B         8.3870   -2.4390   11.7380 O.3       1 NAP318      0.0000 
     12 C1B        10.1190   -4.0570   12.1190 C.3       1 NAP318      0.0000 
     13 N9A        10.7400   -3.7700   13.4260 N.pl3     1 NAP318      0.0000 
     14 C8A        11.7170   -2.8930   13.7140 C.2       1 NAP318      0.0000 
     15 N7A        12.0320   -2.9450   15.0360 N.2       1 NAP318      0.0000 
     16 C5A        11.2290   -3.8680   15.5670 C.ar      1 NAP318      0.0000 
     17 C6A        11.0560   -4.3470   16.8610 C.ar      1 NAP318      0.0000 
     18 N6A        11.8360   -3.8540   17.8320 N.pl3     1 NAP318      0.0000 
     19 N1A        10.1290   -5.3040   17.0850 N.ar      1 NAP318      0.0000 
     20 C2A         9.3650   -5.7690   16.1030 C.ar      1 NAP318      0.0000 
     21 N3A         9.5040   -5.3310   14.8500 N.ar      1 NAP318      0.0000 
     22 C4A        10.4120   -4.3810   14.5550 C.ar      1 NAP318      0.0000 
     23 O3         14.3460   -4.5540    7.3290 O.3       1 NAP318      0.0000 
     24 PN         14.9830   -3.6550    6.2710 P.3       1 NAP318      0.0000 
     25 O1N        14.2400   -2.3870    6.3060 O.co2     1 NAP318      0.0000 
     26 O2N        14.9220   -4.5190    5.0700 O.co2     1 NAP318      0.0000 
     27 O5D        16.5430   -3.3140    6.5230 O.3       1 NAP318      0.0000 
     28 C5D        16.9070   -2.1960    7.3320 C.3       1 NAP318      0.0000 
     29 C4D        17.5370   -1.0540    6.5430 C.3       1 NAP318      0.0000 
     30 O4D        18.6750   -1.5890    5.8800 O.3       1 NAP318      0.0000 
     31 C3D        16.6010   -0.6830    5.4120 C.3       1 NAP318      0.0000 
     32 O3D        15.5480    0.1440    5.8690 O.3       1 NAP318      0.0000 
     33 C2D        17.5660    0.0650    4.5270 C.3       1 NAP318      0.0000 
     34 O2D        17.9380    1.3230    5.1360 O.3       1 NAP318      0.0000 
     35 C1D        18.7420   -0.9250    4.5690 C.3       1 NAP318      0.0000 
     36 N1N        18.6390   -1.8360    3.4180 N.pl3     1 NAP318      0.0000 
     37 C2N        19.5320   -1.6900    2.3570 C.ar      1 NAP318      0.0000 
     38 C3N        19.4950   -2.4930    1.2350 C.ar      1 NAP318      0.0000 
     39 C7N        20.5160   -2.3420    0.1120 C.2       1 NAP318      0.0000 
     40 O7N        20.3180   -2.8110   -1.0210 O.2       1 NAP318      0.0000 
     41 N7N        21.6590   -1.7460    0.4700 N.am      1 NAP318      0.0000 
     42 C4N        18.5240   -3.4700    1.1650 C.ar      1 NAP318      0.0000 
     43 C5N        17.6260   -3.6170    2.1930 C.ar      1 NAP318      0.0000 
     44 C6N        17.6720   -2.8240    3.3420 C.ar      1 NAP318      0.0000 
     45 P2B         7.9930   -0.8650   11.6930 P.3       1 NAP318      0.0000 
     46 O1X         8.7290   -0.1190   10.5730 O.co2     1 NAP318      0.0000 
     47 O2X         6.4210   -0.8860   11.4460 O.co2     1 NAP318      0.0000 
     48 O3X         8.1160   -0.3450   13.1750 O.co2     1 NAP318      0.0000 
     49 H          11.9524   -3.5039    8.2946 H         1 NAP318      0.0000 
     50 H          12.4142   -2.8933    9.8927 H         1 NAP318      0.0000 
     51 H          10.5126   -5.1475    9.3732 H         1 NAP318      0.0000 
     52 H          10.2050   -2.4237    9.3682 H         1 NAP318      0.0000 
     53 H          10.4450   -2.0515   11.5952 H         1 NAP318      0.0000 
     54 H           9.2883   -4.6863   12.2135 H         1 NAP318      0.0000 
     55 H          12.1474   -2.2963   13.0687 H         1 NAP318      0.0000 
     56 H          12.5291   -3.1923   17.5462 H         1 NAP318      0.0000 
     57 H          11.6553   -4.1919   18.7557 H         1 NAP318      0.0000 
     58 H           8.6321   -6.5000   16.3151 H         1 NAP318      0.0000 
     59 H          17.6290   -2.4903    8.1255 H         1 NAP318      0.0000 
     60 H          16.0249   -1.7825    7.8691 H         1 NAP318      0.0000 
     61 H          17.7384   -0.2482    7.1372 H         1 NAP318      0.0000 
     62 H          16.3081   -1.5635    4.9235 H         1 NAP318      0.0000 
     63 H          17.2009    0.1159    3.5687 H         1 NAP318      0.0000 
     64 H          19.6438   -0.3298    4.5041 H         1 NAP318      0.0000 
     65 H          20.2594   -0.9375    2.4198 H         1 NAP318      0.0000 
     66 H          21.7057   -1.4136    1.4120 H         1 NAP318      0.0000 
     67 H          22.3642   -1.6863   -0.2365 H         1 NAP318      0.0000 
     68 H          18.4749   -4.0883    0.3397 H         1 NAP318      0.0000 
     69 H          16.8780   -4.3448    2.1232 H         1 NAP318      0.0000 
     70 H          17.0107   -2.9728    4.0989 H         1 NAP318      0.0000 
     71 H           8.0187   -3.5022   10.2151 H         1 NAP318      0.0000 
     72 H          14.8185   -0.4875    6.1319 H         1 NAP318      0.0000 
     73 H          18.9338    1.2857    5.2191 H         1 NAP318      0.0000 
@<TRIPOS>BOND
     1    2    1 ar   
     2    3    1 ar   
     3    4    1 1    
     4   23    1 1    
     5    5    4 1    
     6    6    5 1    
     7   49    5 1    
     8   50    5 1    
     9    7    6 1    
    10    8    6 1    
    11   51    6 1    
    12   12    7 1    
    13    9    8 1    
    14   10    8 1    
    15   52    8 1    
    16   71    9 1    
    17   11   10 1    
    18   12   10 1    
    19   53   10 1    
    20   45   11 1    
    21   13   12 1    
    22   54   12 1    
    23   14   13 1    
    24   22   13 1    
    25   15   14 2    
    26   55   14 1    
    27   16   15 1    
    28   17   16 ar   
    29   22   16 ar   
    30   18   17 1    
    31   19   17 ar   
    32   56   18 1    
    33   57   18 1    
    34   20   19 ar   
    35   21   20 ar   
    36   58   20 1    
    37   22   21 ar   
    38   24   23 1    
    39   25   24 ar   
    40   26   24 ar   
    41   27   24 1    
    42   28   27 1    
    43   29   28 1    
    44   59   28 1    
    45   60   28 1    
    46   30   29 1    
    47   31   29 1    
    48   61   29 1    
    49   35   30 1    
    50   32   31 1    
    51   33   31 1    
    52   62   31 1    
    53   72   32 1    
    54   34   33 1    
    55   35   33 1    
    56   63   33 1    
    57   73   34 1    
    58   36   35 1    
    59   64   35 1    
    60   37   36 ar   
    61   44   36 ar   
    62   38   37 ar   
    63   65   37 1    
    64   39   38 1    
    65   42   38 ar   
    66   40   39 2    
    67   41   39 am   
    68   66   41 1    
    69   67   41 1    
    70   43   42 ar   
    71   68   42 1    
    72   44   43 ar   
    73   69   43 1    
    74   70   44 1    
    75   46   45 ar   
    76   47   45 ar   
    77   48   45 ar   
@<TRIPOS>SUBSTRUCTURE
     1 NAP318      1 GROUP   
@<TRIPOS>SET

