#    Name: 1sdt_MK1_1_INTS_M
#    Modification time : Tue Mar 25 02:18:26 2014

@<TRIPOS>MOLECULE
1sdt_MK1_1_INTS_M
  111     0     9     0     0
SMALL
NO_CHARGES


@<TRIPOS>ATOM
      1 CA         22.0915   20.8425    5.8525 C.3       3 GLC5        0.0000 
      2 CA         23.4540   20.4130    4.4810 C.3       9 GLL5        0.0000 
      3 CA         20.7290   21.2720    7.2240 C.3       6 GLP5        0.0000 
      4 CA         28.9460   20.9575    9.5030 C.3       3 GLC5        0.0000 
      5 CA         27.0900   20.4650    8.7220 C.3       9 GLL5        0.0000 
      6 CA         30.8020   21.4500   10.2840 C.3       6 GLP5        0.0000 
      7 CA         27.3345   19.8295   10.6825 C.3       3 GLC5        0.0000 
      8 CA         27.5790   19.1940   12.6430 C.3       6 GLP5        0.0000 
      9 CA         26.3940   21.3735   10.6230 C.3       3 GLC5        0.0000 
     10 CA         25.6980   22.2820   12.5240 C.3       6 GLP5        0.0000 
     11 CA         26.5725   18.8920   10.8550 C.3       3 GLC5        0.0000 
     12 CA         25.5660   18.5900    9.0670 C.3       9 GLL5        0.0000 
     13 CA         25.3240   16.9985    9.9630 C.3       3 GLC5        0.0000 
     14 CA         25.0820   15.4070   10.8590 C.3       6 GLP5        0.0000 
     15 CA         23.7995   18.5235   10.1035 C.3       3 GLC5        0.0000 
     16 CA         22.0330   18.4570   11.1400 C.3       6 GLP5        0.0000 
     17 CA         25.2050   21.5570   10.8045 C.3       3 GLC5        0.0000 
     18 CA         24.7120   20.8320    9.0850 C.3       9 GLL5        0.0000 
     19 CA         22.7205   21.0520    8.1545 C.3       3 GLC5        0.0000 
     20 CA         23.3725   19.6445   10.1125 C.3       3 GLC5        0.0000 
     21 CA         25.1330   18.1840    1.3170 C.3       3 GLC5        0.0000 
     22 CA         23.8240   18.1050    2.9510 C.3       9 GLL5        0.0000 
     23 CA         26.4420   18.2630   -0.3170 C.3       6 GLP5        0.0000 
     24 CA         21.0405   18.8265    2.8560 C.3       3 GLC5        0.0000 
     25 CA         23.0300   19.2800    2.4690 C.3       9 GLL5        0.0000 
     26 CA         19.0510   18.3730    3.2430 C.3       6 GLP5        0.0000 
     27 CA         22.9965   19.9620    0.6340 C.3       3 GLC5        0.0000 
     28 CA         22.9630   20.6440   -1.2010 C.3       6 GLP5        0.0000 
     29 CA         26.4135   16.5200    3.5570 C.3       3 GLC5        0.0000 
     30 CA         24.7440   16.9360    4.7610 C.3       9 GLL5        0.0000 
     31 CA         28.0830   16.1040    2.3530 C.3       6 GLP5        0.0000 
     32 CA         26.7700   17.3150    5.2510 C.3       3 GLC5        0.0000 
     33 CA         28.7960   17.6940    5.7410 C.3       6 GLP5        0.0000 
     34 N          25.9820   14.0995    4.7740 N.am      2 SEC2        0.0000 
     35 N          24.6970   14.5980    4.7060 N.am      8 SEL2        0.0000 
     36 N          27.2670   13.6010    4.8420 N.am      5 SEP2        0.0000 
     37 O          24.5620   14.7195    3.3310 O.2       1 ALC1        0.0000 
     38 O          24.6970   14.5980    4.7060 O.2       7 ALL1        0.0000 
     39 O          24.4270   14.8410    1.9560 O.2       4 ALP1        0.0000 
     40 CA         23.7650   14.8165    9.6185 C.3       3 GLC5        0.0000 
     41 CA         22.4480   14.2260    8.3780 C.3       9 GLL5        0.0000 
     42 O          21.8615   12.2985    5.4730 O.2       1 ALC1        0.0000 
     43 O          20.7580   13.3900    5.6640 O.2       7 ALL1        0.0000 
     44 O          22.9650   11.2070    5.2820 O.2       4 ALP1        0.0000 
     45 CA         18.7160   14.6765    6.8505 C.3       3 GLC5        0.0000 
     46 CA         19.3880   13.2060    5.3480 C.3       9 GLL5        0.0000 
     47 CA         18.0440   16.1470    8.3530 C.3       6 GLP5        0.0000 
     48 N          20.0870   10.1215    4.0795 N.am      2 SEC2        0.0000 
     49 N          19.6950   10.7930    5.3580 N.am      8 SEL2        0.0000 
     50 N          20.4790    9.4500    2.8010 N.am      5 SEP2        0.0000 
     51 O          18.9385    9.3300    5.4985 O.2       1 ALC1        0.0000 
     52 O          19.6950   10.7930    5.3580 O.2       7 ALL1        0.0000 
     53 O          18.1820    7.8670    5.6390 O.2       4 ALP1        0.0000 
     54 CA         18.1330    9.7885    4.0805 C.3       3 GLC5        0.0000 
     55 CA         17.5520   11.7290    4.8090 C.3       9 GLL5        0.0000 
     56 CA         18.7140    7.8480    3.3520 C.3       6 GLP5        0.0000 
     57 CA         22.7025   21.1210    0.7090 C.3       3 GLC5        0.0000 
     58 CA         22.4420   21.5980    2.6190 C.3       9 GLL5        0.0000 
     59 CA         23.6930   23.3940    0.4500 C.3       3 GLC5        0.0000 
     60 CA         23.8780   23.7120    2.4450 C.3       9 GLL5        0.0000 
     61 CA         23.5080   23.0760   -1.5450 C.3       6 GLP5        0.0000 
     62 CA         21.3245   22.5110    5.5450 C.3       3 GLC5        0.0000 
     63 CA         21.9200   23.7500    3.8660 C.3       9 GLL5        0.0000 
     64 CA         27.3044   18.1329    7.9284 C.3       3 GLC5        0.0000 
     65 CA         28.6370   16.8810    7.0150 C.3       6 GLP5        0.0000 
     66 CA         22.2020   17.9337    1.4225 C.3       3 GLC5        0.0000 
     67 CA         20.9770   17.1750    0.1350 C.3       6 GLP5        0.0000 
     68 CA         23.0940   10.8257    8.5977 C.3       3 GLC5        0.0000 
     69 CA         21.6500   11.8650    8.4710 C.3       9 GLL5        0.0000 
     70 CA         24.9690   10.2780    8.5020 C.3       6 GLP5        0.0000 
     71 CA         22.2005   11.5252   10.3087 C.3       3 GLC5        0.0000 
     72 CA         23.1820   11.6770   11.9240 C.3       6 GLP5        0.0000 
     73 CA         20.4827   11.1330   11.3912 C.3       3 GLC5        0.0000 
     74 CA         19.6860   11.2710    9.6830 C.3       9 GLL5        0.0000 
     75 CA         21.3800   10.3290   12.9420 C.3       6 GLP5        0.0000 
     76 CA         19.5625   13.9838   11.4165 C.3       3 GLC5        0.0000 
     77 CA         19.4850   12.6030    9.9980 C.3       9 GLL5        0.0000 
     78 CA         19.1900   14.8810   13.0500 C.3       6 GLP5        0.0000 
     79 CA         18.9895   14.6167    9.0680 C.3       3 GLC5        0.0000 
     80 CA         22.1764   12.6579   10.5006 C.3       3 GLC5        0.0000 
     81 CA         20.3850   13.5700    9.5680 C.3       9 GLL5        0.0000 
     82 CA         21.6024   15.3214    9.9066 C.3       3 GLC5        0.0000 
     83 CA         21.4650   13.1890    8.7950 C.3       9 GLL5        0.0000 
     84 CA         22.0340   17.0040   10.7360 C.3       6 GLP5        0.0000 
     85 CA         15.7700   12.8453    3.7062 C.3       3 GLC5        0.0000 
     86 CA         17.9040   12.4140    3.5120 C.3       9 GLL5        0.0000 
     87 CA         13.8120   13.6190    3.2520 C.3       6 GLP5        0.0000 
     88 CA         17.7465   14.6615    4.2630 C.3       3 GLC5        0.0000 
     89 CA         16.9320   16.4670    4.4690 C.3       6 GLP5        0.0000 
     90 CA         20.3490   12.0475    3.3345 C.3       3 GLC5        0.0000 
     91 CA         19.0480   13.3900    3.8560 C.3       9 GLL5        0.0000 
     92 CA         22.1370   11.2390    2.6120 C.3       6 GLP5        0.0000 
     93 CA         17.2300   11.2870    0.6527 C.3       3 GLC5        0.0000 
     94 CA         17.4350   12.3500    2.2350 C.3       9 GLL5        0.0000 
     95 CA         16.7330    9.8090   -0.4520 C.3       6 GLP5        0.0000 
     96 CA         18.0547   14.7967   -0.0260 C.3       3 GLC5        0.0000 
     97 CA         19.0380   14.0690    1.5720 C.3       9 GLL5        0.0000 
     98 CA         17.5810   15.9690   -1.4780 C.3       6 GLP5        0.0000 
     99 CA         18.1082   15.2897    3.3430 C.3       3 GLC5        0.0000 
    100 CA         16.5688   14.2655    1.5249 C.3       3 GLC5        0.0000 
    101 CA         14.7550   15.1140    1.3850 C.3       6 GLP5        0.0000 
    102 CA         20.1307   15.6438    1.1760 C.3       3 GLC5        0.0000 
    103 CA         20.5639   13.0436    1.7725 C.3       3 GLC5        0.0000 
    104 CA         19.5310   14.1560    2.8620 C.3       9 GLL5        0.0000 
    105 CA         22.0980   12.1970    1.4010 C.3       6 GLP5        0.0000 
    106 CA         21.5475   23.5175    1.8482 C.3       3 GLC5        0.0000 
    107 CA         19.8550   24.0160    1.0700 C.3       6 GLP5        0.0000 
    108 CA         22.1088   24.5605    6.0200 C.3       3 GLC5        0.0000 
    109 CA         22.1440   24.7100    8.0310 C.3       6 GLP5        0.0000 
    110 CA         20.9642   24.2135    2.5395 C.3       3 GLC5        0.0000 
    111 CA         22.2270   25.0720    4.1520 C.3       9 GLL5        0.0000 
@<TRIPOS>BOND
@<TRIPOS>SUBSTRUCTURE
     1 ALC1       37 GROUP        1 X    ALC  0     ROOT ALC X 1
     2 SEC2       34 GROUP        1 X    SEC  0     **** SEC X 2
     3 GLC5        1 GROUP        1 X    GLC  0     **** GLC X 6
     4 ALP1       39 GROUP        1 Y    ALP  0     ROOT ALP Y 8
     5 SEP2       36 GROUP        1 Y    SEP  0     **** SEP Y 9
     6 GLP5        3 GROUP        1 Y    GLP  0     **** GLP Y 13
     7 ALL1       38 GROUP        1 Z    ALL  0     ROOT ALL Z 15
     8 SEL2       35 GROUP        1 Z    SEL  0     **** SEL Z 16
     9 GLL5        2 GROUP        1 Z    GLL  0     **** GLL Z 20
@<TRIPOS>SET

