#    Name: 1sdt_MK1_1_ligand
#    Modification time : Tue Mar 25 02:18:26 2014

@<TRIPOS>MOLECULE
1sdt_MK1_1_ligand
   93    97     1     0     0
SMALL
NO_CHARGES


@<TRIPOS>ATOM
      1 N1         23.3900   20.5370    2.9880 N.3       1 MK1902      0.0000 
      2 C1         23.4540   20.4130    4.4810 C.3       1 MK1902      0.0000 
      3 C2         24.4290   19.3630    4.9880 C.3       1 MK1902      0.0000 
      4 C3         24.4000   19.3790    6.4800 C.2       1 MK1902      0.0000 
      5 O1         23.3790   19.0220    7.0810 O.2       1 MK1902      0.0000 
      6 N2         25.5100   19.7920    7.0840 N.am      1 MK1902      0.0000 
      7 C4         25.6650   19.8940    8.5110 C.3       1 MK1902      0.0000 
      8 C5         27.0900   20.4650    8.7220 C.3       1 MK1902      0.0000 
      9 C6         25.5660   18.5900    9.0670 C.3       1 MK1902      0.0000 
     10 C7         24.7120   20.8320    9.0850 C.3       1 MK1902      0.0000 
     11 N3         23.9030   18.0630    4.4290 N.4       1 MK1902      0.0000 
     12 C8         23.8240   18.1050    2.9510 C.3       1 MK1902      0.0000 
     13 C9         23.0300   19.2800    2.4690 C.3       1 MK1902      0.0000 
     14 C10        24.7440   16.9360    4.7610 C.3       1 MK1902      0.0000 
     15 C11        23.8980   15.6800    5.0450 C.3       1 MK1902      0.0000 
     16 O2         24.6970   14.5980    4.7060 O.3       1 MK1902      0.0000 
     17 C12        23.4780   15.5640    6.5210 C.3       1 MK1902      0.0000 
     18 C13        22.5800   14.3360    6.8500 C.3       1 MK1902      0.0000 
     19 C14        22.4480   14.2260    8.3780 C.3       1 MK1902      0.0000 
     20 C15        21.4650   13.1890    8.7950 C.ar      1 MK1902      0.0000 
     21 C16        21.6500   11.8650    8.4710 C.ar      1 MK1902      0.0000 
     22 C17        20.7880   10.8820    8.9160 C.ar      1 MK1902      0.0000 
     23 C18        19.6860   11.2710    9.6830 C.ar      1 MK1902      0.0000 
     24 C19        19.4850   12.6030    9.9980 C.ar      1 MK1902      0.0000 
     25 C20        20.3850   13.5700    9.5680 C.ar      1 MK1902      0.0000 
     26 C21        21.2240   14.4900    6.2260 C.2       1 MK1902      0.0000 
     27 O3         20.5460   15.5200    6.3040 O.2       1 MK1902      0.0000 
     28 N4         20.7580   13.3900    5.6640 N.am      1 MK1902      0.0000 
     29 C22        19.3880   13.2060    5.3480 C.3       1 MK1902      0.0000 
     30 C23        18.7910   11.8560    5.6960 C.3       1 MK1902      0.0000 
     31 O4         19.6950   10.7930    5.3580 O.3       1 MK1902      0.0000 
     32 C24        17.5520   11.7290    4.8090 C.3       1 MK1902      0.0000 
     33 C25        17.9040   12.4140    3.5120 C.ar      1 MK1902      0.0000 
     34 C26        17.4350   12.3500    2.2350 C.ar      1 MK1902      0.0000 
     35 C27        18.0190   13.1800    1.2800 C.ar      1 MK1902      0.0000 
     36 C28        19.0380   14.0690    1.5720 C.ar      1 MK1902      0.0000 
     37 C29        19.5310   14.1560    2.8620 C.ar      1 MK1902      0.0000 
     38 C30        19.0480   13.3900    3.8560 C.ar      1 MK1902      0.0000 
     39 C31        22.4420   21.5980    2.6190 C.3       1 MK1902      0.0000 
     40 C32        22.7620   23.0540    2.9970 C.ar      1 MK1902      0.0000 
     41 C33        23.8780   23.7120    2.4450 C.ar      1 MK1902      0.0000 
     42 N5         24.2560   25.0500    2.6910 N.ar      1 MK1902      0.0000 
     43 C34        23.3550   25.6440    3.5760 C.ar      1 MK1902      0.0000 
     44 C35        22.2270   25.0720    4.1520 C.ar      1 MK1902      0.0000 
     45 C36        21.9200   23.7500    3.8660 C.ar      1 MK1902      0.0000 
     46 H          22.4441   20.1761    4.8740 H         1 MK1902      0.0000 
     47 H          23.7311   21.3933    4.9199 H         1 MK1902      0.0000 
     48 H          25.3827   19.5670    4.6070 H         1 MK1902      0.0000 
     49 H          26.3609   20.0746    6.5163 H         1 MK1902      0.0000 
     50 H          22.8994   17.8950    4.8166 H         1 MK1902      0.0000 
     51 H          23.3611   17.1786    2.5757 H         1 MK1902      0.0000 
     52 H          24.8384   18.1558    2.5245 H         1 MK1902      0.0000 
     53 H          21.9408   19.0566    2.6752 H         1 MK1902      0.0000 
     54 H          23.0835   19.2809    1.3395 H         1 MK1902      0.0000 
     55 H          25.3499   17.1370    5.6544 H         1 MK1902      0.0000 
     56 H          25.4326   16.6938    3.9407 H         1 MK1902      0.0000 
     57 H          23.0150   15.7323    4.4359 H         1 MK1902      0.0000 
     58 H          22.9361   16.4779    6.8131 H         1 MK1902      0.0000 
     59 H          24.3822   15.5103    7.1485 H         1 MK1902      0.0000 
     60 H          23.0649   13.4576    6.4831 H         1 MK1902      0.0000 
     61 H          22.1497   15.2099    8.7688 H         1 MK1902      0.0000 
     62 H          23.4404   13.9961    8.7930 H         1 MK1902      0.0000 
     63 H          22.4622   11.5938    7.8735 H         1 MK1902      0.0000 
     64 H          20.9434    9.9029    8.6966 H         1 MK1902      0.0000 
     65 H          19.0212   10.5546   10.0136 H         1 MK1902      0.0000 
     66 H          18.6625   12.8826   10.5556 H         1 MK1902      0.0000 
     67 H          20.2466   14.5524    9.8227 H         1 MK1902      0.0000 
     68 H          21.4018   12.5873    5.4229 H         1 MK1902      0.0000 
     69 H          18.7460   13.9582    5.8716 H         1 MK1902      0.0000 
     70 H          18.4884   11.8481    6.7007 H         1 MK1902      0.0000 
     71 H          16.7281   12.2258    5.2774 H         1 MK1902      0.0000 
     72 H          17.3447   10.6936    4.6355 H         1 MK1902      0.0000 
     73 H          16.6798   11.7187    1.9706 H         1 MK1902      0.0000 
     74 H          17.6654   13.1248    0.2916 H         1 MK1902      0.0000 
     75 H          19.4298   14.6662    0.8293 H         1 MK1902      0.0000 
     76 H          20.3012   14.8422    3.0522 H         1 MK1902      0.0000 
     77 H          21.4210   21.3614    3.0458 H         1 MK1902      0.0000 
     78 H          22.2634   21.5771    1.5018 H         1 MK1902      0.0000 
     79 H          24.4933   23.1510    1.7820 H         1 MK1902      0.0000 
     80 H          23.5612   26.6724    3.8443 H         1 MK1902      0.0000 
     81 H          21.6320   25.6196    4.7783 H         1 MK1902      0.0000 
     82 H          21.1086   23.2985    4.2741 H         1 MK1902      0.0000 
     83 H          27.7911   19.8666    8.3342 H         1 MK1902      0.0000 
     84 H          27.1986   21.3610    8.2915 H         1 MK1902      0.0000 
     85 H          27.3050   20.5780    9.6921 H         1 MK1902      0.0000 
     86 H          26.2714   17.9787    8.7082 H         1 MK1902      0.0000 
     87 H          25.6668   18.6018   10.0618 H         1 MK1902      0.0000 
     88 H          24.6822   18.1671    8.8669 H         1 MK1902      0.0000 
     89 H          24.8174   20.9085   10.0765 H         1 MK1902      0.0000 
     90 H          24.8218   21.7512    8.7068 H         1 MK1902      0.0000 
     91 H          23.7671   20.5545    8.9113 H         1 MK1902      0.0000 
     92 H          24.4389   14.3699    3.7672 H         1 MK1902      0.0000 
     93 H          19.1703    9.9531    5.4972 H         1 MK1902      0.0000 
@<TRIPOS>BOND
     1    2    1 1    
     2   13    1 1    
     3   39    1 1    
     4    3    2 1    
     5   46    2 1    
     6   47    2 1    
     7    4    3 1    
     8   11    3 1    
     9   48    3 1    
    10    5    4 2    
    11    6    4 am   
    12    7    6 1    
    13   49    6 1    
    14    8    7 1    
    15    9    7 1    
    16   10    7 1    
    17   83    8 1    
    18   84    8 1    
    19   85    8 1    
    20   86    9 1    
    21   87    9 1    
    22   88    9 1    
    23   89   10 1    
    24   90   10 1    
    25   91   10 1    
    26   12   11 1    
    27   14   11 1    
    28   50   11 1    
    29   13   12 1    
    30   51   12 1    
    31   52   12 1    
    32   53   13 1    
    33   54   13 1    
    34   15   14 1    
    35   55   14 1    
    36   56   14 1    
    37   16   15 1    
    38   17   15 1    
    39   57   15 1    
    40   92   16 1    
    41   18   17 1    
    42   58   17 1    
    43   59   17 1    
    44   19   18 1    
    45   26   18 1    
    46   60   18 1    
    47   20   19 1    
    48   61   19 1    
    49   62   19 1    
    50   21   20 ar   
    51   25   20 ar   
    52   22   21 ar   
    53   63   21 1    
    54   23   22 ar   
    55   64   22 1    
    56   24   23 ar   
    57   65   23 1    
    58   25   24 ar   
    59   66   24 1    
    60   67   25 1    
    61   27   26 2    
    62   28   26 am   
    63   29   28 1    
    64   68   28 1    
    65   30   29 1    
    66   38   29 1    
    67   69   29 1    
    68   31   30 1    
    69   32   30 1    
    70   70   30 1    
    71   93   31 1    
    72   33   32 1    
    73   71   32 1    
    74   72   32 1    
    75   34   33 ar   
    76   38   33 ar   
    77   35   34 ar   
    78   73   34 1    
    79   36   35 ar   
    80   74   35 1    
    81   37   36 ar   
    82   75   36 1    
    83   38   37 ar   
    84   76   37 1    
    85   40   39 1    
    86   77   39 1    
    87   78   39 1    
    88   41   40 ar   
    89   45   40 ar   
    90   42   41 ar   
    91   79   41 1    
    92   43   42 ar   
    93   44   43 ar   
    94   80   43 1    
    95   45   44 ar   
    96   81   44 1    
    97   82   45 1    
@<TRIPOS>SUBSTRUCTURE
     1 MK1902      1 GROUP   
@<TRIPOS>SET

