#    Name: 1y5m_NDP_1_INTS_M
#    Modification time : Tue Mar 25 10:48:23 2014

@<TRIPOS>MOLECULE
1y5m_NDP_1_INTS_M
  100     0     9     0     0
SMALL
NO_CHARGES


@<TRIPOS>ATOM
      1 N          85.8565   49.8610   44.4390 N.am      2 SEC2        0.0000 
      2 N          86.0780   48.9380   43.0720 N.am      8 SEL2        0.0000 
      3 N          85.6350   50.7840   45.8060 N.am      5 SEP2        0.0000 
      4 CA         84.9335   51.9230   39.0915 C.3       3 GLC5        0.0000 
      5 CA         86.7630   50.9180   39.8440 C.3       9 GLL5        0.0000 
      6 CA         83.1040   52.9280   38.3390 C.3       6 GLP5        0.0000 
      7 CA         87.1015   50.9855   36.9610 C.3       3 GLC5        0.0000 
      8 CA         88.0120   50.7150   38.9680 C.3       9 GLL5        0.0000 
      9 CA         86.1910   51.2560   34.9540 C.3       6 GLP5        0.0000 
     10 CA         89.5630   49.7550   41.6995 C.3       3 GLC5        0.0000 
     11 CA         89.3180   50.6500   39.8670 C.3       9 GLL5        0.0000 
     12 CA         89.8080   48.8600   43.5320 C.3       6 GLP5        0.0000 
     13 N          91.4985   48.7555   39.4205 N.am      2 SEC2        0.0000 
     14 N          90.3880   49.6950   39.6640 N.am      8 SEL2        0.0000 
     15 N          92.6090   47.8160   39.1770 N.am      5 SEP2        0.0000 
     16 N          90.8550   48.4605   40.6170 N.am      2 SEC2        0.0000 
     17 N          91.3220   47.2260   41.5700 N.am      5 SEP2        0.0000 
     18 CA         88.3870   52.2750   36.3620 C.3       3 GLC5        0.0000 
     19 CA         89.3650   52.5480   38.2950 C.3       9 GLL5        0.0000 
     20 CA         87.4090   52.0020   34.4290 C.3       6 GLP5        0.0000 
     21 CA         87.3560   57.2220   35.1550 C.3       3 GLC5        0.0000 
     22 CA         89.2250   57.1280   36.3550 C.3       9 GLL5        0.0000 
     23 CA         85.4870   57.3160   33.9550 C.3       6 GLP5        0.0000 
     24 O          90.0975   59.3615   35.5750 O.2       1 ALC1        0.0000 
     25 O          88.8770   58.4510   36.3990 O.2       7 ALL1        0.0000 
     26 O          91.3180   60.2720   34.7510 O.2       4 ALP1        0.0000 
     27 N          90.4510   57.2855   34.0170 N.am      2 SEC2        0.0000 
     28 N          90.0090   56.8080   35.2560 N.am      8 SEL2        0.0000 
     29 N          90.8930   57.7630   32.7780 N.am      5 SEP2        0.0000 
     30 CA         91.6110   56.2970   36.5810 C.3       3 GLC5        0.0000 
     31 CA         90.4890   55.5270   35.1170 C.3       9 GLL5        0.0000 
     32 CA         92.7330   57.0670   38.0450 C.3       6 GLP5        0.0000 
     33 CA         91.6640   57.0205   34.5610 C.3       3 GLC5        0.0000 
     34 CA         92.8390   58.5140   34.0050 C.3       6 GLP5        0.0000 
     35 CA         90.1460   55.3245   33.4550 C.3       3 GLC5        0.0000 
     36 CA         89.8030   55.1220   31.7930 C.3       6 GLP5        0.0000 
     37 CA         88.4255   53.4090   35.7800 C.3       3 GLC5        0.0000 
     38 CA         89.4420   54.8160   37.1310 C.3       9 GLL5        0.0000 
     39 N          82.5915   47.3885   43.8310 N.am      2 SEC2        0.0000 
     40 N          82.4890   47.8340   42.3290 N.am      8 SEL2        0.0000 
     41 N          82.6940   46.9430   45.3330 N.am      5 SEP2        0.0000 
     42 N          85.2085   45.4560   41.1815 N.am      2 SEC2        0.0000 
     43 N          84.4780   46.7280   41.3500 N.am      8 SEL2        0.0000 
     44 N          85.9390   44.1840   41.0130 N.am      5 SEP2        0.0000 
     45 CA         83.3915   45.8995   39.3200 C.3       3 GLC5        0.0000 
     46 CA         83.4910   47.8150   38.5860 C.3       9 GLL5        0.0000 
     47 CA         83.2920   43.9840   40.0540 C.3       6 GLP5        0.0000 
     48 N          80.5590   49.9010   34.8095 N.am      2 SEC2        0.0000 
     49 N          81.6460   49.1030   35.5650 N.am      8 SEL2        0.0000 
     50 N          79.4720   50.6990   34.0540 N.am      5 SEP2        0.0000 
     51 O          83.0290   49.1470   35.4925 O.2       1 ALC1        0.0000 
     52 O          81.6460   49.1030   35.5650 O.2       7 ALL1        0.0000 
     53 O          84.4120   49.1910   35.4200 O.2       4 ALP1        0.0000 
     54 CA         79.3225   50.0725   36.2930 C.3       3 GLC5        0.0000 
     55 CA         80.4510   49.0070   37.8750 C.3       9 GLL5        0.0000 
     56 CA         78.1940   51.1380   34.7110 C.3       6 GLP5        0.0000 
     57 N          78.3555   50.2050   37.7790 N.am      2 SEC2        0.0000 
     58 N          79.5310   50.0010   37.4210 N.am      8 SEL2        0.0000 
     59 N          77.1800   50.4090   38.1370 N.am      5 SEP2        0.0000 
     60 N          79.5015   50.3500   35.7375 N.am      2 SEC2        0.0000 
     61 CA         80.4960   46.5695   36.4340 C.3       3 GLC5        0.0000 
     62 CA         80.0870   47.4840   38.0260 C.3       9 GLL5        0.0000 
     63 CA         80.9050   45.6550   34.8420 C.3       6 GLP5        0.0000 
     64 CA         79.7720   45.4465   37.6365 C.3       3 GLC5        0.0000 
     65 CA         79.4570   43.4090   37.2470 C.3       6 GLP5        0.0000 
     66 N          77.8440   44.9860   43.9675 N.am      2 SEC2        0.0000 
     67 N          78.1280   46.3000   43.7160 N.am      8 SEL2        0.0000 
     68 N          77.5600   43.6720   44.2190 N.am      5 SEP2        0.0000 
     69 O          81.5190   46.7515   44.2375 O.2       1 ALC1        0.0000 
     70 O          80.3440   46.5600   43.1420 O.2       7 ALL1        0.0000 
     71 O          82.6940   46.9430   45.3330 O.2       4 ALP1        0.0000 
     72 CA         76.2345   45.2555   42.6215 C.3       3 GLC5        0.0000 
     73 CA         77.2940   46.3780   41.1490 C.3       9 GLL5        0.0000 
     74 CA         75.1750   44.1330   44.0940 C.3       6 GLP5        0.0000 
     75 N          94.5780   53.9130   40.5090 N.am      2 SEC2        0.0000 
     76 N          93.1420   53.2860   41.1040 N.am      8 SEL2        0.0000 
     77 N          96.0140   54.5400   39.9140 N.am      5 SEP2        0.0000 
     78 N          92.9990   54.3435   38.4180 N.am      2 SEC2        0.0000 
     79 N          91.8870   54.3840   39.1240 N.am      8 SEL2        0.0000 
     80 N          94.1110   54.3030   37.7120 N.am      5 SEP2        0.0000 
     81 CA         91.4442   50.4922   40.2095 C.3       3 GLC5        0.0000 
     82 CA         93.3210   49.6230   40.6320 C.3       6 GLP5        0.0000 
     83 CA         91.6255   51.8558   38.3230 C.3       3 GLC5        0.0000 
     84 CA         93.6600   51.4010   37.6450 C.3       6 GLP5        0.0000 
     85 CA         90.3907   56.4619   37.9730 C.3       3 GLC5        0.0000 
     86 CA         88.9090   56.1470   37.3510 C.3       9 GLL5        0.0000 
     87 CA         91.5270   57.1970   38.9540 C.3       6 GLP5        0.0000 
     88 CA         81.4882   46.9875   36.0605 C.3       3 GLC5        0.0000 
     89 CA         81.7540   48.9960   37.0340 C.3       9 GLL5        0.0000 
     90 CA         81.4727   50.7252   36.8208 C.3       3 GLC5        0.0000 
     91 CA         81.8430   52.4490   36.1870 C.3       6 GLP5        0.0000 
     92 CA         78.5517   44.6850   41.4920 C.3       3 GLC5        0.0000 
     93 CA         78.9040   42.7880   41.9320 C.3       6 GLP5        0.0000 
     94 CA         76.1467   47.1498   38.3930 C.3       3 GLC5        0.0000 
     95 CA         76.8910   46.4820   39.8230 C.3       9 GLL5        0.0000 
     96 CA         74.9230   47.6390   37.4600 C.3       6 GLP5        0.0000 
     97 CA         77.2133   44.9992   38.5820 C.3       3 GLC5        0.0000 
     98 CA         77.0560   43.3380   37.8380 C.3       6 GLP5        0.0000 
     99 CA         89.3860   50.4573   37.8081 C.3       3 GLC5        0.0000 
    100 CA         89.6440   49.4180   36.4070 C.3       6 GLP5        0.0000 
@<TRIPOS>BOND
@<TRIPOS>SUBSTRUCTURE
     1 ALC1       24 GROUP        1 X    ALC  0     ROOT ALC X 1
     2 SEC2        1 GROUP        1 X    SEC  0     **** SEC X 2
     3 GLC5        4 GROUP        1 X    GLC  0     **** GLC X 6
     4 ALP1       26 GROUP        1 Y    ALP  0     ROOT ALP Y 8
     5 SEP2        3 GROUP        1 Y    SEP  0     **** SEP Y 9
     6 GLP5        6 GROUP        1 Y    GLP  0     **** GLP Y 13
     7 ALL1       25 GROUP        1 Z    ALL  0     ROOT ALL Z 15
     8 SEL2        2 GROUP        1 Z    SEL  0     **** SEL Z 16
     9 GLL5        5 GROUP        1 Z    GLL  0     **** GLL Z 20
@<TRIPOS>SET

