#    Name: 1y5m_NDP_1_ligand
#    Modification time : Tue Mar 25 10:48:23 2014

@<TRIPOS>MOLECULE
1y5m_NDP_1_ligand
   74    78     1     0     0
SMALL
NO_CHARGES


@<TRIPOS>ATOM
      1 PA         85.6450   49.8600   41.9410 P.3       1 NDP1        0.0000 
      2 O1A        86.0780   48.9380   43.0720 O.co2     1 NDP1        0.0000 
      3 O2A        85.4710   51.3100   42.4030 O.co2     1 NDP1        0.0000 
      4 O5B        86.6980   49.8270   40.7720 O.3       1 NDP1        0.0000 
      5 C5B        86.7630   50.9180   39.8440 C.3       1 NDP1        0.0000 
      6 C4B        88.0120   50.7150   38.9680 C.3       1 NDP1        0.0000 
      7 O4B        88.1310   51.8540   38.0920 O.3       1 NDP1        0.0000 
      8 C3B        89.3180   50.6500   39.8670 C.3       1 NDP1        0.0000 
      9 O3B        90.3880   49.6950   39.6640 O.3       1 NDP1        0.0000 
     10 C2B        89.8170   52.0730   39.7070 C.3       1 NDP1        0.0000 
     11 O2B        91.2110   52.1610   39.8970 O.3       1 NDP1        0.0000 
     12 C1B        89.3650   52.5480   38.2950 C.3       1 NDP1        0.0000 
     13 N9A        89.0940   53.9970   38.2000 N.pl3     1 NDP1        0.0000 
     14 C8A        88.3890   54.8190   39.0320 C.2       1 NDP1        0.0000 
     15 N7A        88.2570   56.0860   38.5800 N.2       1 NDP1        0.0000 
     16 C5A        88.9090   56.1470   37.3510 C.ar      1 NDP1        0.0000 
     17 C6A        89.2250   57.1280   36.3550 C.ar      1 NDP1        0.0000 
     18 N6A        88.8770   58.4510   36.3990 N.pl3     1 NDP1        0.0000 
     19 N1A        90.0090   56.8080   35.2560 N.ar      1 NDP1        0.0000 
     20 C2A        90.4890   55.5270   35.1170 C.ar      1 NDP1        0.0000 
     21 N3A        90.2130   54.5300   36.0230 N.ar      1 NDP1        0.0000 
     22 C4A        89.4420   54.8160   37.1310 C.ar      1 NDP1        0.0000 
     23 O3         84.2970   49.3030   41.3070 O.3       1 NDP1        0.0000 
     24 PN         83.5430   47.9040   41.2610 P.3       1 NDP1        0.0000 
     25 O1N        82.4890   47.8340   42.3290 O.co2     1 NDP1        0.0000 
     26 O2N        84.4780   46.7280   41.3500 O.co2     1 NDP1        0.0000 
     27 O5D        82.8220   47.9970   39.8420 O.3       1 NDP1        0.0000 
     28 C5D        83.4910   47.8150   38.5860 C.3       1 NDP1        0.0000 
     29 C4D        82.3890   47.6440   37.5240 C.3       1 NDP1        0.0000 
     30 O4D        81.3770   46.8910   38.1930 O.3       1 NDP1        0.0000 
     31 C3D        81.7540   48.9960   37.0340 C.3       1 NDP1        0.0000 
     32 O3D        81.6460   49.1030   35.5650 O.3       1 NDP1        0.0000 
     33 C2D        80.4510   49.0070   37.8750 C.3       1 NDP1        0.0000 
     34 O2D        79.5310   50.0010   37.4210 O.3       1 NDP1        0.0000 
     35 C1D        80.0870   47.4840   38.0260 C.3       1 NDP1        0.0000 
     36 N1N        79.1610   47.0930   39.1250 N.pl3     1 NDP1        0.0000 
     37 C2N        79.5670   46.9640   40.4420 C.2       1 NDP1        0.0000 
     38 C3N        78.6430   46.6080   41.4680 C.2       1 NDP1        0.0000 
     39 C7N        79.0030   46.4770   42.8680 C.2       1 NDP1        0.0000 
     40 O7N        78.1280   46.3000   43.7160 O.2       1 NDP1        0.0000 
     41 N7N        80.3440   46.5600   43.1420 N.am      1 NDP1        0.0000 
     42 C4N        77.2940   46.3780   41.1490 C.3       1 NDP1        0.0000 
     43 C5N        76.8910   46.4820   39.8230 C.2       1 NDP1        0.0000 
     44 C6N        77.8500   46.8390   38.8290 C.2       1 NDP1        0.0000 
     45 P2B        91.7540   53.5540   40.4280 P.3       1 NDP1        0.0000 
     46 O1X        93.1420   53.2860   41.1040 O.co2     1 NDP1        0.0000 
     47 O2X        90.7390   54.2330   41.4220 O.co2     1 NDP1        0.0000 
     48 O3X        91.8870   54.3840   39.1240 O.co2     1 NDP1        0.0000 
     49 H          86.8632   51.8754   40.3471 H         1 NDP1        0.0000 
     50 H          85.8985   50.9461   39.1870 H         1 NDP1        0.0000 
     51 H          87.9317   49.8078   38.4362 H         1 NDP1        0.0000 
     52 H          88.9325   50.6275   40.9168 H         1 NDP1        0.0000 
     53 H          89.2642   52.6867   40.4239 H         1 NDP1        0.0000 
     54 H          90.0905   52.2301   37.5916 H         1 NDP1        0.0000 
     55 H          88.0058   54.5035   39.9004 H         1 NDP1        0.0000 
     56 H          88.3237   58.7346   37.1822 H         1 NDP1        0.0000 
     57 H          89.2066   59.0180   35.6441 H         1 NDP1        0.0000 
     58 H          91.0910   55.3007   34.2850 H         1 NDP1        0.0000 
     59 H          84.1026   46.9237   38.5754 H         1 NDP1        0.0000 
     60 H          84.0846   48.6759   38.3120 H         1 NDP1        0.0000 
     61 H          82.7783   47.1159   36.6956 H         1 NDP1        0.0000 
     62 H          82.3992   49.7702   37.4639 H         1 NDP1        0.0000 
     63 H          80.8526   49.2913   38.9152 H         1 NDP1        0.0000 
     64 H          79.6924   47.1763   37.0542 H         1 NDP1        0.0000 
     65 H          80.5521   47.1246   40.7044 H         1 NDP1        0.0000 
     66 H          80.9448   46.7128   42.3573 H         1 NDP1        0.0000 
     67 H          80.6038   46.4605   44.1025 H         1 NDP1        0.0000 
     68 H          76.6380   47.0656   41.8011 H         1 NDP1        0.0000 
     69 H          76.9883   45.3454   41.5597 H         1 NDP1        0.0000 
     70 H          75.9272   46.3089   39.5475 H         1 NDP1        0.0000 
     71 H          77.5128   46.9025   37.8415 H         1 NDP1        0.0000 
     72 H          91.2298   50.2292   39.7420 H         1 NDP1        0.0000 
     73 H          82.5880   49.1950   35.2424 H         1 NDP1        0.0000 
     74 H          79.7566   50.1413   36.4570 H         1 NDP1        0.0000 
@<TRIPOS>BOND
     1    2    1 ar   
     2    3    1 ar   
     3    4    1 1    
     4   23    1 1    
     5    5    4 1    
     6    6    5 1    
     7   49    5 1    
     8   50    5 1    
     9    7    6 1    
    10    8    6 1    
    11   51    6 1    
    12   12    7 1    
    13    9    8 1    
    14   10    8 1    
    15   52    8 1    
    16   72    9 1    
    17   11   10 1    
    18   12   10 1    
    19   53   10 1    
    20   45   11 1    
    21   13   12 1    
    22   54   12 1    
    23   14   13 1    
    24   22   13 1    
    25   15   14 2    
    26   55   14 1    
    27   16   15 1    
    28   17   16 ar   
    29   22   16 ar   
    30   18   17 1    
    31   19   17 ar   
    32   56   18 1    
    33   57   18 1    
    34   20   19 ar   
    35   21   20 ar   
    36   58   20 1    
    37   22   21 ar   
    38   24   23 1    
    39   25   24 ar   
    40   26   24 ar   
    41   27   24 1    
    42   28   27 1    
    43   29   28 1    
    44   59   28 1    
    45   60   28 1    
    46   30   29 1    
    47   31   29 1    
    48   61   29 1    
    49   35   30 1    
    50   32   31 1    
    51   33   31 1    
    52   62   31 1    
    53   73   32 1    
    54   34   33 1    
    55   35   33 1    
    56   63   33 1    
    57   74   34 1    
    58   36   35 1    
    59   64   35 1    
    60   37   36 1    
    61   44   36 1    
    62   38   37 2    
    63   65   37 1    
    64   39   38 1    
    65   42   38 1    
    66   40   39 2    
    67   41   39 am   
    68   66   41 1    
    69   67   41 1    
    70   43   42 1    
    71   68   42 1    
    72   69   42 1    
    73   44   43 2    
    74   70   43 1    
    75   71   44 1    
    76   46   45 ar   
    77   47   45 ar   
    78   48   45 ar   
@<TRIPOS>SUBSTRUCTURE
     1 NDP1        1 GROUP   
@<TRIPOS>SET

