#    Name: 4ase_AV9_1_INTS_M
#    Modification time : Tue Mar 25 06:05:13 2014

@<TRIPOS>MOLECULE
4ase_AV9_1_INTS_M
   88     0     9     0     0
SMALL
NO_CHARGES


@<TRIPOS>ATOM
      1 CA        -16.4995    3.6795  -13.6755 C.3       3 GLC5        0.0000 
      2 CA        -17.6300    2.7790  -15.3340 C.3       9 GLL5        0.0000 
      3 CA        -15.3690    4.5800  -12.0170 C.3       6 GLP5        0.0000 
      4 CA        -20.1510    5.0140  -13.3170 C.3       3 GLC5        0.0000 
      5 CA        -19.9790    3.2350  -14.6380 C.3       9 GLL5        0.0000 
      6 CA        -20.3230    6.7930  -11.9960 C.3       6 GLP5        0.0000 
      7 CA        -17.6670    0.7510  -16.9620 C.3       3 GLC5        0.0000 
      8 CA        -17.8320    1.3680  -15.1690 C.3       9 GLL5        0.0000 
      9 CA        -17.5020    0.1340  -18.7550 C.3       6 GLP5        0.0000 
     10 N         -21.0385    5.5680  -14.3550 N.am      2 SEC2        0.0000 
     11 N         -20.9640    4.1450  -14.3900 N.am      8 SEL2        0.0000 
     12 N         -21.1130    6.9910  -14.3200 N.am      5 SEP2        0.0000 
     13 CA        -22.4905    5.3395  -15.0370 C.3       3 GLC5        0.0000 
     14 CA        -22.1890    3.7070  -13.9770 C.3       9 GLL5        0.0000 
     15 CA        -22.7920    6.9720  -16.0970 C.3       6 GLP5        0.0000 
     16 CA        -22.0915    5.2005  -12.6465 C.3       3 GLC5        0.0000 
     17 CA        -21.9940    6.6940  -11.3160 C.3       6 GLP5        0.0000 
     18 CA        -24.0675    2.9885  -12.3970 C.3       3 GLC5        0.0000 
     19 CA        -22.5090    2.3630  -13.7890 C.3       9 GLL5        0.0000 
     20 CA        -25.6260    3.6140  -11.0050 C.3       6 GLP5        0.0000 
     21 CA        -25.0180   -2.2675  -15.0705 C.3       3 GLC5        0.0000 
     22 CA        -24.0170   -0.6440  -13.9300 C.3       9 GLL5        0.0000 
     23 CA        -26.0190   -3.8910  -16.2110 C.3       6 GLP5        0.0000 
     24 CA        -21.6225    0.8730  -11.4170 C.3       3 GLC5        0.0000 
     25 CA        -22.5350   -1.0490  -11.9750 C.3       9 GLL5        0.0000 
     26 CA        -20.7100    2.7950  -10.8590 C.3       6 GLP5        0.0000 
     27 O         -27.0400   -3.3550  -11.4365 O.2       1 ALC1        0.0000 
     28 O         -26.0060   -2.2720  -11.1880 O.2       7 ALL1        0.0000 
     29 O         -28.0740   -4.4380  -11.6850 O.2       4 ALP1        0.0000 
     30 N         -24.7020   -1.7520   -8.2455 N.am      2 SEC2        0.0000 
     31 N         -25.6070   -1.1620   -9.1850 N.am      8 SEL2        0.0000 
     32 N         -23.7970   -2.3420   -7.3060 N.am      5 SEP2        0.0000 
     33 CA        -30.5330   -1.2390   -4.4190 C.3       3 GLC5        0.0000 
     34 CA        -28.4190   -1.5800   -4.5830 C.3       9 GLL5        0.0000 
     35 CA        -32.6470   -0.8980   -4.2550 C.3       6 GLP5        0.0000 
     36 CA        -28.2590   -0.5625   -2.7265 C.3       3 GLC5        0.0000 
     37 CA        -28.0990    0.4550   -0.8700 C.3       6 GLP5        0.0000 
     38 CA        -25.4805   -0.8765   -6.9265 C.3       3 GLC5        0.0000 
     39 CA        -27.4700   -1.7670   -6.9950 C.3       9 GLL5        0.0000 
     40 CA        -23.4910    0.0140   -6.8580 C.3       6 GLP5        0.0000 
     41 CA        -26.3395   -2.5950  -15.1070 C.3       3 GLC5        0.0000 
     42 CA        -26.6600   -1.2990  -14.0030 C.3       9 GLL5        0.0000 
     43 CA        -28.6245   -1.5930  -14.5105 C.3       3 GLC5        0.0000 
     44 CA        -30.5890   -1.8870  -15.0180 C.3       6 GLP5        0.0000 
     45 CA        -27.5700    0.2025  -13.8905 C.3       3 GLC5        0.0000 
     46 CA        -28.4800    1.7040  -13.7780 C.3       6 GLP5        0.0000 
     47 CA        -17.1815   -0.3670  -17.0230 C.3       3 GLC5        0.0000 
     48 CA        -16.8610   -0.8680  -15.2910 C.3       9 GLL5        0.0000 
     49 CA        -16.5325   -2.4285  -16.4625 C.3       3 GLC5        0.0000 
     50 CA        -16.2040   -3.9890  -17.6340 C.3       6 GLP5        0.0000 
     51 CA        -17.9580   -1.5170  -13.9365 C.3       3 GLC5        0.0000 
     52 CA        -19.0550   -2.1660  -12.5820 C.3       6 GLP5        0.0000 
     53 CA        -16.5080    3.5240  -17.6295 C.3       3 GLC5        0.0000 
     54 CA        -16.0740    4.5530  -15.9390 C.3       9 GLL5        0.0000 
     55 CA        -16.9420    2.4950  -19.3200 C.3       6 GLP5        0.0000 
     56 CA        -17.1695    5.6185  -17.2320 C.3       3 GLC5        0.0000 
     57 CA        -18.2650    6.6840  -18.5250 C.3       6 GLP5        0.0000 
     58 CA        -16.6630    6.6545  -15.5940 C.3       3 GLC5        0.0000 
     59 CA        -17.2520    8.7560  -15.2490 C.3       6 GLP5        0.0000 
     60 CA        -15.7215    4.5665  -13.9780 C.3       3 GLC5        0.0000 
     61 CA        -18.7390    2.5465  -17.0038 C.3       3 GLC5        0.0000 
     62 CA        -19.3060    1.8610  -18.8090 C.3       6 GLP5        0.0000 
     63 CA        -19.4526    1.7870  -16.7296 C.3       3 GLC5        0.0000 
     64 CA        -19.1140    0.9040  -14.7440 C.3       9 GLL5        0.0000 
     65 CA        -24.2550    2.7175  -14.1965 C.3       3 GLC5        0.0000 
     66 CA        -26.1610    2.4000  -14.5100 C.3       6 GLP5        0.0000 
     67 CA        -21.0927    0.2051  -15.8131 C.3       3 GLC5        0.0000 
     68 CA        -21.4930    1.3840  -14.0430 C.3       9 GLL5        0.0000 
     69 CA        -21.6130   -0.9600  -17.3000 C.3       6 GLP5        0.0000 
     70 CA        -22.5775   -1.8462  -14.7858 C.3       3 GLC5        0.0000 
     71 CA        -22.7290   -0.5670  -13.2810 C.3       9 GLL5        0.0000 
     72 CA        -21.7820   -3.0870  -15.9660 C.3       6 GLP5        0.0000 
     73 CA        -25.3627    0.7355  -14.0445 C.3       3 GLC5        0.0000 
     74 CA        -25.2967   -3.2343  -13.3033 C.3       3 GLC5        0.0000 
     75 CA        -25.1120   -1.2140  -13.2280 C.3       9 GLL5        0.0000 
     76 CA        -25.5780   -5.0100  -14.0430 C.3       6 GLP5        0.0000 
     77 CA        -22.7972   -0.5380   -9.8273 C.3       3 GLC5        0.0000 
     78 CA        -23.6200   -1.6130  -11.2920 C.3       9 GLL5        0.0000 
     79 CA        -22.5170    0.2550   -8.0210 C.3       6 GLP5        0.0000 
     80 CA        -22.3663   -3.2045  -10.9128 C.3       3 GLC5        0.0000 
     81 CA        -21.6550   -5.0780  -10.1920 C.3       6 GLP5        0.0000 
     82 CA        -29.3588   -1.1210   -7.6035 C.3       3 GLC5        0.0000 
     83 CA        -30.8240   -0.3330   -8.7220 C.3       6 GLP5        0.0000 
     84 CA        -26.2527   -3.2090   -6.4890 C.3       3 GLC5        0.0000 
     85 CA        -24.6120   -4.5090   -6.4930 C.3       6 GLP5        0.0000 
     86 CA        -22.3779    2.5075  -15.6397 C.3       3 GLC5        0.0000 
     87 CA        -23.1870    2.5210  -17.1880 C.3       6 GLP5        0.0000 
     88 CA        -21.1394    2.6445  -12.4752 C.3       3 GLC5        0.0000 
@<TRIPOS>BOND
@<TRIPOS>SUBSTRUCTURE
     1 ALC1       27 GROUP        1 X    ALC  0     ROOT ALC X 1
     2 SEC2       10 GROUP        1 X    SEC  0     **** SEC X 2
     3 GLC5        1 GROUP        1 X    GLC  0     **** GLC X 6
     4 ALP1       29 GROUP        1 Y    ALP  0     ROOT ALP Y 8
     5 SEP2       12 GROUP        1 Y    SEP  0     **** SEP Y 9
     6 GLP5        3 GROUP        1 Y    GLP  0     **** GLP Y 13
     7 ALL1       28 GROUP        1 Z    ALL  0     ROOT ALL Z 15
     8 SEL2       11 GROUP        1 Z    SEL  0     **** SEL Z 16
     9 GLL5        2 GROUP        1 Z    GLL  0     **** GLL Z 20
@<TRIPOS>SET

