#    Name: 4ase_AV9_1_ligand
#    Modification time : Tue Mar 25 06:05:13 2014

@<TRIPOS>MOLECULE
4ase_AV9_1_ligand
   51    54     1     0     0
SMALL
NO_CHARGES


@<TRIPOS>ATOM
      1 C1        -17.6300    2.7790  -15.3340 C.ar      1 AV93169     0.0000 
      2 C2        -18.7140    3.6850  -15.0630 C.ar      1 AV93169     0.0000 
      3 C3        -19.9790    3.2350  -14.6380 C.ar      1 AV93169     0.0000 
      4 C4        -20.1900    1.8090  -14.4750 C.ar      1 AV93169     0.0000 
      5 C5        -19.1140    0.9040  -14.7440 C.ar      1 AV93169     0.0000 
      6 C6        -17.8320    1.3680  -15.1690 C.ar      1 AV93169     0.0000 
      7 N7        -20.9640    4.1450  -14.3900 N.ar      1 AV93169     0.0000 
      8 C8        -22.1890    3.7070  -13.9770 C.ar      1 AV93169     0.0000 
      9 C9        -22.5090    2.3630  -13.7890 C.ar      1 AV93169     0.0000 
     10 C10       -21.4930    1.3840  -14.0430 C.ar      1 AV93169     0.0000 
     11 O11       -21.6430   -0.0170  -13.9100 O.3       1 AV93169     0.0000 
     12 C12       -22.7290   -0.5670  -13.2810 C.ar      1 AV93169     0.0000 
     13 C13       -24.0170   -0.6440  -13.9300 C.ar      1 AV93169     0.0000 
     14 C15       -24.9190   -1.7030  -11.8990 C.ar      1 AV93169     0.0000 
     15 C16       -23.6200   -1.6130  -11.2920 C.ar      1 AV93169     0.0000 
     16 C17       -22.5350   -1.0490  -11.9750 C.ar      1 AV93169     0.0000 
     17 O25       -29.2290   -2.9650   -6.3980 O.3       1 AV93169     0.0000 
     18 C11       -25.1120   -1.2140  -13.2280 C.ar      1 AV93169     0.0000 
     19 N28       -26.0060   -2.2720  -11.1880 N.am      1 AV93169     0.0000 
     20 O33       -16.7350    0.5530  -15.4410 O.3       1 AV93169     0.0000 
     21 O34       -16.3620    3.1560  -15.7510 O.3       1 AV93169     0.0000 
     22 C35       -26.2770   -1.9530   -9.8480 C.2       1 AV93169     0.0000 
     23 O36       -25.6070   -1.1620   -9.1850 O.2       1 AV93169     0.0000 
     24 N37       -27.3930   -2.6630   -9.3840 N.2       1 AV93169     0.0000 
     25 C38       -27.9190   -2.5710   -8.0880 C.2       1 AV93169     0.0000 
     26 C40       -28.4190   -1.5800   -4.5830 C.3       1 AV93169     0.0000 
     27 C30       -28.3170   -2.0510   -5.9750 C.2       1 AV93169     0.0000 
     28 C43       -27.4700   -1.7670   -6.9950 C.2       1 AV93169     0.0000 
     29 N21       -28.9850   -3.2950   -7.7250 N.pl3     1 AV93169     0.0000 
     30 CL4       -26.6600   -1.2990  -14.0030 Cl        1 AV93169     0.0000 
     31 C49       -16.8610   -0.8680  -15.2910 C.3       1 AV93169     0.0000 
     32 C53       -16.0740    4.5530  -15.9390 C.3       1 AV93169     0.0000 
     33 H         -18.5463    4.6967  -15.1880 H         1 AV93169     0.0000 
     34 H         -19.2694   -0.1049  -14.6279 H         1 AV93169     0.0000 
     35 H         -22.9481    4.4195  -13.7852 H         1 AV93169     0.0000 
     36 H         -23.4232    2.0695  -13.4837 H         1 AV93169     0.0000 
     37 H         -24.1261   -0.2946  -14.8694 H         1 AV93169     0.0000 
     38 H         -23.5002   -1.9742  -10.3366 H         1 AV93169     0.0000 
     39 H         -21.6204   -0.9882  -11.5349 H         1 AV93169     0.0000 
     40 H         -26.6202   -2.9484  -11.6816 H         1 AV93169     0.0000 
     41 H         -26.7461   -1.1867   -7.0227 H         1 AV93169     0.0000 
     42 H         -29.4856   -3.9075   -8.2382 H         1 AV93169     0.0000 
     43 H         -28.3246   -2.3307   -3.9291 H         1 AV93169     0.0000 
     44 H         -27.7094   -0.9101   -4.3646 H         1 AV93169     0.0000 
     45 H         -29.3001   -1.1430   -4.4024 H         1 AV93169     0.0000 
     46 H         -16.0103   -1.3423  -15.5176 H         1 AV93169     0.0000 
     47 H         -17.0980   -1.1229  -14.3535 H         1 AV93169     0.0000 
     48 H         -17.5726   -1.2425  -15.8854 H         1 AV93169     0.0000 
     49 H         -15.1304    4.7011  -16.2351 H         1 AV93169     0.0000 
     50 H         -16.6665    4.9644  -16.6316 H         1 AV93169     0.0000 
     51 H         -16.2021    5.0753  -15.0959 H         1 AV93169     0.0000 
@<TRIPOS>BOND
     1    2    1 ar   
     2    6    1 ar   
     3   21    1 1    
     4    3    2 ar   
     5   33    2 1    
     6    4    3 ar   
     7    7    3 ar   
     8    5    4 ar   
     9   10    4 ar   
    10    6    5 ar   
    11   34    5 1    
    12   20    6 1    
    13    8    7 ar   
    14    9    8 ar   
    15   35    8 1    
    16   10    9 ar   
    17   36    9 1    
    18   11   10 1    
    19   12   11 1    
    20   13   12 ar   
    21   16   12 ar   
    22   18   13 ar   
    23   37   13 1    
    24   15   14 ar   
    25   18   14 ar   
    26   19   14 1    
    27   16   15 ar   
    28   38   15 1    
    29   39   16 1    
    30   27   17 1    
    31   29   17 1    
    32   30   18 1    
    33   22   19 am   
    34   40   19 1    
    35   31   20 1    
    36   32   21 1    
    37   23   22 2    
    38   24   22 1    
    39   25   24 2    
    40   28   25 1    
    41   29   25 1    
    42   27   26 1    
    43   43   26 1    
    44   44   26 1    
    45   45   26 1    
    46   28   27 2    
    47   41   28 1    
    48   42   29 1    
    49   46   31 1    
    50   47   31 1    
    51   48   31 1    
    52   49   32 1    
    53   50   32 1    
    54   51   32 1    
@<TRIPOS>SUBSTRUCTURE
     1 AV93169     1 GROUP   
@<TRIPOS>SET

