#    Name: 1zc4_GNP_1_INTS_M
#    Modification time : Mon Apr  7 16:58:53 2014

@<TRIPOS>MOLECULE
1zc4_GNP_1_INTS_M
   72     0    15     0     0
SMALL
NO_CHARGES


@<TRIPOS>ATOM
      1 N          57.4940   55.1540   12.1585 N.am      2 SEC2        0.0000 
      2 N          56.4730   55.2830   13.0990 N.am     12 SEL2        0.0000 
      3 N          58.5150   55.0250   11.2180 N.am      7 SEP2        0.0000 
      4 Zn         56.8360   56.3645   16.4780 Zn        4 ZIC7        0.0000 
      5 Zn         56.5000   55.9130   15.5390 Zn       14 ZIL7        0.0000 
      6 Zn         57.1720   56.8160   17.4170 Zn        9 ZIP7        0.0000 
      7 N          56.3400   54.4225   16.0935 N.am      2 SEC2        0.0000 
      8 N          56.5000   55.9130   15.5390 N.am     12 SEL2        0.0000 
      9 N          56.1800   52.9320   16.6480 N.am      7 SEP2        0.0000 
     10 NZ         55.0885   58.5765   13.9075 N.4       3 LYC4        0.0000 
     11 NZ         55.2180   57.2470   13.8600 N.4      13 LYL4        0.0000 
     12 NZ         54.9590   59.9060   13.9550 N.4       8 LYP4        0.0000 
     13 N          55.0885   58.5765   13.9075 N.am      2 SEC2        0.0000 
     14 N          55.2180   57.2470   13.8600 N.am     12 SEL2        0.0000 
     15 N          54.9590   59.9060   13.9550 N.am      7 SEP2        0.0000 
     16 N          53.8010   57.1830   13.6470 N.am      2 SEC2        0.0000 
     17 N          52.3840   57.1190   13.4340 N.am      7 SEP2        0.0000 
     18 NZ         56.3080   59.9120   14.1080 N.4       3 LYC4        0.0000 
     19 NZ         57.6570   59.9180   14.2610 N.4      13 LYL4        0.0000 
     20 N          58.7725   60.8495   13.9830 N.am      2 SEC2        0.0000 
     21 N          57.6570   59.9180   14.2610 N.am     12 SEL2        0.0000 
     22 N          59.8880   61.7810   13.7050 N.am      7 SEP2        0.0000 
     23 N          58.0685   60.8595   15.2065 N.am      2 SEC2        0.0000 
     24 N          58.4800   61.8010   16.1520 N.am      7 SEP2        0.0000 
     25 N          56.3080   59.9120   14.1080 N.am      2 SEC2        0.0000 
     26 Zn         57.5690   57.5805   16.8125 Zn        4 ZIC7        0.0000 
     27 Zn         57.9660   58.3450   16.2080 Zn       14 ZIL7        0.0000 
     28 N          58.2755   59.2715   17.3335 N.am      2 SEC2        0.0000 
     29 N          57.9660   58.3450   16.2080 N.am     12 SEL2        0.0000 
     30 N          58.5850   60.1980   18.4590 N.am      7 SEP2        0.0000 
     31 N          59.8590   60.2760   14.0880 N.am      2 SEC2        0.0000 
     32 N          59.8300   58.7710   14.4710 N.am     12 SEL2        0.0000 
     33 N          61.2230   59.7460   17.9390 N.am      2 SEC2        0.0000 
     34 N          61.1270   59.0470   16.7020 N.am     12 SEL2        0.0000 
     35 N          61.3190   60.4450   19.1760 N.am      7 SEP2        0.0000 
     36 CA         60.9105   58.4120   12.0975 C.3       5 GLC5        0.0000 
     37 CA         62.4620   58.1180   13.1820 C.3      15 GLL5        0.0000 
     38 CA         59.3590   58.7060   11.0130 C.3      10 GLP5        0.0000 
     39 CA         64.4455   55.4335   14.1445 C.3       5 GLC5        0.0000 
     40 CA         64.7950   57.4330   14.0250 C.3      15 GLL5        0.0000 
     41 CA         64.0960   53.4340   14.2640 C.3      10 GLP5        0.0000 
     42 O          67.0465   56.2165   13.7785 O.2       1 ALC1        0.0000 
     43 O          65.7910   56.5850   13.3960 O.2      11 ALL1        0.0000 
     44 O          68.3020   55.8480   14.1610 O.2       6 ALP1        0.0000 
     45 CA         66.4875   59.9385   16.0505 C.3       5 GLC5        0.0000 
     46 CA         65.4290   58.6090   14.7120 C.3      15 GLL5        0.0000 
     47 CA         67.5460   61.2680   17.3890 C.3      10 GLP5        0.0000 
     48 O          67.2210   57.9390   16.5335 O.2       1 ALC1        0.0000 
     49 O          66.7030   58.3840   15.3060 O.2      11 ALL1        0.0000 
     50 O          67.7390   57.4940   17.7610 O.2       6 ALP1        0.0000 
     51 CA         64.5070   61.1250   12.4215 C.3       5 GLC5        0.0000 
     52 CA         65.5250   59.6970   13.6350 C.3      15 GLL5        0.0000 
     53 CA         63.4890   62.5530   11.2080 C.3      10 GLP5        0.0000 
     54 CA         64.9710   64.0135   13.1320 C.3       5 GLC5        0.0000 
     55 CA         65.5770   63.1700   14.6130 C.3      15 GLL5        0.0000 
     56 CA         64.3650   64.8570   11.6510 C.3      10 GLP5        0.0000 
     57 N          65.0510   66.4920   14.0100 N.am      2 SEC2        0.0000 
     58 N          65.8750   65.5190   15.1010 N.am     12 SEL2        0.0000 
     59 N          64.2270   67.4650   12.9190 N.am      7 SEP2        0.0000 
     60 N          65.7535   66.0675   16.4610 N.am      2 SEC2        0.0000 
     61 N          65.6320   66.6160   17.8210 N.am      7 SEP2        0.0000 
     62 O          68.1530   65.6205   13.9495 O.2       1 ALC1        0.0000 
     63 O          67.4820   64.4060   13.9180 O.2      11 ALL1        0.0000 
     64 O          68.8240   66.8350   13.9810 O.2       6 ALP1        0.0000 
     65 O          69.8500   64.6870   12.7945 O.2       1 ALC1        0.0000 
     66 O          69.2000   63.4390   12.7160 O.2      11 ALL1        0.0000 
     67 O          70.5000   65.9350   12.8730 O.2       6 ALP1        0.0000 
     68 CA         64.8335   62.3305   12.5945 C.3       5 GLC5        0.0000 
     69 CA         66.1780   62.1080   13.9810 C.3      15 GLL5        0.0000 
     70 CA         62.6783   56.4267   12.2490 C.3       5 GLC5        0.0000 
     71 CA         63.9470   58.0450   12.9020 C.3      15 GLL5        0.0000 
     72 CA         62.1520   54.7720   11.4560 C.3      10 GLP5        0.0000 
@<TRIPOS>BOND
@<TRIPOS>SUBSTRUCTURE
     1 ALC1       42 GROUP        1 X    ALC  0     ROOT ALC X 1
     2 SEC2        1 GROUP        1 X    SEC  0     **** SEC X 2
     3 LYC4       10 GROUP        1 X    LYC  0     **** LYC X 4
     4 ZIC7        4 GROUP        1 X    ZIC  0     **** ZIC X 5
     5 GLC5       36 GROUP        1 X    GLC  0     **** GLC X 6
     6 ALP1       44 GROUP        1 Y    ALP  0     ROOT ALP Y 8
     7 SEP2        3 GROUP        1 Y    SEP  0     **** SEP Y 9
     8 LYP4       12 GROUP        1 Y    LYP  0     **** LYP Y 11
     9 ZIP7        6 GROUP        1 Y    ZIP  0     **** ZIP Y 12
    10 GLP5       38 GROUP        1 Y    GLP  0     **** GLP Y 13
    11 ALL1       43 GROUP        1 Z    ALL  0     ROOT ALL Z 15
    12 SEL2        2 GROUP        1 Z    SEL  0     **** SEL Z 16
    13 LYL4       11 GROUP        1 Z    LYL  0     **** LYL Z 18
    14 ZIL7        5 GROUP        1 Z    ZIL  0     **** ZIL Z 19
    15 GLL5       37 GROUP        1 Z    GLL  0     **** GLL Z 20
@<TRIPOS>SET

