#    Name: 1zc4_GNP_1_ligand
#    Modification time : Mon Apr  7 16:58:53 2014

@<TRIPOS>MOLECULE
1zc4_GNP_1_ligand
   44    46     1     0     0
SMALL
NO_CHARGES


@<TRIPOS>ATOM
      1 PG         56.4300   56.4040   14.1050 P.3       1 GNP400      0.0000 
      2 O1G        56.4730   55.2830   13.0990 O.co2     1 GNP400      0.0000 
      3 O2G        56.5000   55.9130   15.5390 O.co2     1 GNP400      0.0000 
      4 O3G        55.2180   57.2470   13.8600 O.co2     1 GNP400      0.0000 
      5 N3B        57.8340   57.3240   13.8420 N.4       1 GNP400      0.0000 
      6 PB         58.2450   58.6600   14.7430 P.3       1 GNP400      0.0000 
      7 O1B        57.6570   59.9180   14.2610 O.co2     1 GNP400      0.0000 
      8 O2B        57.9660   58.3450   16.2080 O.co2     1 GNP400      0.0000 
      9 O3A        59.8300   58.7710   14.4710 O.3       1 GNP400      0.0000 
     10 PA         61.0330   58.2560   15.4200 P.3       1 GNP400      0.0000 
     11 O1A        61.1270   59.0470   16.7020 O.co2     1 GNP400      0.0000 
     12 O2A        60.8480   56.7820   15.5370 O.co2     1 GNP400      0.0000 
     13 O5'        62.2470   58.6800   14.5070 O.3       1 GNP400      0.0000 
     14 C5'        62.4620   58.1180   13.1820 C.3       1 GNP400      0.0000 
     15 C4'        63.9470   58.0450   12.9020 C.3       1 GNP400      0.0000 
     16 O4'        64.4520   59.4190   12.7250 O.3       1 GNP400      0.0000 
     17 C3'        64.7950   57.4330   14.0250 C.3       1 GNP400      0.0000 
     18 O3'        65.7910   56.5850   13.3960 O.3       1 GNP400      0.0000 
     19 C2'        65.4290   58.6090   14.7120 C.3       1 GNP400      0.0000 
     20 O2'        66.7030   58.3840   15.3060 O.3       1 GNP400      0.0000 
     21 C1'        65.5250   59.6970   13.6350 C.3       1 GNP400      0.0000 
     22 N9         65.3250   61.0430   14.1370 N.pl3     1 GNP400      0.0000 
     23 C8         64.2670   61.5460   14.8630 C.2       1 GNP400      0.0000 
     24 N7         64.3620   62.8160   15.1760 N.2       1 GNP400      0.0000 
     25 C5         65.5770   63.1700   14.6130 C.2       1 GNP400      0.0000 
     26 C6         66.2320   64.4530   14.6090 C.2       1 GNP400      0.0000 
     27 O6         65.8750   65.5190   15.1010 O.2       1 GNP400      0.0000 
     28 N1         67.4820   64.4060   13.9180 N.am      1 GNP400      0.0000 
     29 C2         68.0160   63.2840   13.3120 C.2       1 GNP400      0.0000 
     30 N2         69.2000   63.4390   12.7160 N.pl3     1 GNP400      0.0000 
     31 N3         67.3950   62.0890   13.3110 N.2       1 GNP400      0.0000 
     32 C4         66.1780   62.1080   13.9810 C.2       1 GNP400      0.0000 
     33 H          61.9927   58.7381   12.4142 H         1 GNP400      0.0000 
     34 H          62.0445   57.1105   13.1130 H         1 GNP400      0.0000 
     35 H          64.1257   57.4937   11.9962 H         1 GNP400      0.0000 
     36 H          64.1629   56.9173   14.6772 H         1 GNP400      0.0000 
     37 H          64.7041   58.9937   15.4450 H         1 GNP400      0.0000 
     38 H          66.4618   59.5948   13.1339 H         1 GNP400      0.0000 
     39 H          63.4902   60.9518   15.1190 H         1 GNP400      0.0000 
     40 H          68.0299   65.3134   13.8769 H         1 GNP400      0.0000 
     41 H          69.5904   64.3592   12.7455 H         1 GNP400      0.0000 
     42 H          69.5904   62.6210   12.2935 H         1 GNP400      0.0000 
     43 H          66.6711   56.9630   13.6831 H         1 GNP400      0.0000 
     44 H          66.5035   58.0481   16.2265 H         1 GNP400      0.0000 
@<TRIPOS>BOND
     1    2    1 ar   
     2    3    1 ar   
     3    4    1 ar   
     4    5    1 1    
     5    6    5 1    
     6    7    6 ar   
     7    8    6 ar   
     8    9    6 1    
     9   10    9 1    
    10   11   10 ar   
    11   12   10 ar   
    12   13   10 1    
    13   14   13 1    
    14   15   14 1    
    15   33   14 1    
    16   34   14 1    
    17   16   15 1    
    18   17   15 1    
    19   35   15 1    
    20   21   16 1    
    21   18   17 1    
    22   19   17 1    
    23   36   17 1    
    24   43   18 1    
    25   20   19 1    
    26   21   19 1    
    27   37   19 1    
    28   44   20 1    
    29   22   21 1    
    30   38   21 1    
    31   23   22 1    
    32   32   22 1    
    33   24   23 2    
    34   39   23 1    
    35   25   24 1    
    36   26   25 1    
    37   32   25 2    
    38   27   26 2    
    39   28   26 am   
    40   29   28 1    
    41   40   28 1    
    42   30   29 1    
    43   31   29 2    
    44   41   30 1    
    45   42   30 1    
    46   32   31 1    
@<TRIPOS>SUBSTRUCTURE
     1 GNP400      1 GROUP   
@<TRIPOS>SET

