#    Name: 4avb_CMP_3_INTS_M
#    Modification time : Tue Mar 25 06:17:25 2014

@<TRIPOS>MOLECULE
4avb_CMP_3_INTS_M
   57     0    12     0     0
SMALL
NO_CHARGES


@<TRIPOS>ATOM
      1 N          -4.1495  -12.8940    4.8000 N.am      2 SEC2        0.0000 
      2 N          -5.4560  -13.5630    5.0590 N.am     10 SEL2        0.0000 
      3 N          -2.8430  -12.2250    4.5410 N.am      6 SEP2        0.0000 
      4 N          -4.9030  -12.7905    6.0325 N.am      2 SEC2        0.0000 
      5 N          -4.3500  -12.0180    7.0060 N.am      6 SEP2        0.0000 
      6 NZ         -6.0320  -16.5945    2.6940 N.4       3 LYC4        0.0000 
      7 NZ         -6.2510  -15.5590    3.6270 N.4      11 LYL4        0.0000 
      8 NZ         -4.8120  -18.0790    1.0100 N.4       7 LYP4        0.0000 
      9 N          -7.2900  -14.5975    3.1245 N.am      2 SEC2        0.0000 
     10 N          -6.2510  -15.5590    3.6270 N.am     10 SEL2        0.0000 
     11 N          -8.3290  -13.6360    2.6220 N.am      6 SEP2        0.0000 
     12 N          -6.0320  -16.5945    2.6940 N.am      2 SEC2        0.0000 
     13 N          -5.8130  -17.6300    1.7610 N.am      6 SEP2        0.0000 
     14 CA         -2.2380  -14.8405    7.6120 C.3       4 GLC5        0.0000 
     15 CA         -3.5980  -15.8490    6.4180 C.3      12 GLL5        0.0000 
     16 CA         -0.8780  -13.8320    8.8060 C.3       8 GLP5        0.0000 
     17 N          -8.1105  -15.2370    5.4570 N.am      2 SEC2        0.0000 
     18 N          -6.5460  -15.5280    6.1240 N.am     10 SEL2        0.0000 
     19 N          -9.6750  -14.9460    4.7900 N.am      6 SEP2        0.0000 
     20 CA         -7.1705  -18.2110    8.2045 C.3       4 GLC5        0.0000 
     21 CA         -6.6340  -16.0810    8.5410 C.3      12 GLL5        0.0000 
     22 CA         -7.7070  -20.3410    7.8680 C.3       8 GLP5        0.0000 
     23 N          -7.2105  -18.1535    7.0335 N.am      2 SEC2        0.0000 
     24 N          -7.2290  -17.3100    8.1630 N.am     10 SEL2        0.0000 
     25 N          -7.1920  -18.9970    5.9040 N.am      6 SEP2        0.0000 
     26 O          -8.5140  -17.2510    7.8170 O.2       1 ALC1        0.0000 
     27 O          -7.2290  -17.3100    8.1630 O.2       9 ALL1        0.0000 
     28 O          -9.7990  -17.1920    7.4710 O.2       5 ALP1        0.0000 
     29 CA         -3.6850  -15.9780   10.6390 C.3       4 GLC5        0.0000 
     30 CA         -5.4560  -16.3760    9.5030 C.3      12 GLL5        0.0000 
     31 CA         -1.9140  -15.5800   11.7750 C.3       8 GLP5        0.0000 
     32 CA         -4.4555  -17.5580   13.0920 C.3       4 GLC5        0.0000 
     33 CA         -6.3830  -17.2040   13.6880 C.3      12 GLL5        0.0000 
     34 CA         -2.5280  -17.9120   12.4960 C.3       8 GLP5        0.0000 
     35 CA         -5.7145  -19.2230   14.1285 C.3       4 GLC5        0.0000 
     36 CA         -5.0460  -21.2420   14.5690 C.3       8 GLP5        0.0000 
     37 CA         -7.8970  -15.9950   12.7965 C.3       4 GLC5        0.0000 
     38 CA         -9.4110  -14.7860   11.9050 C.3       8 GLP5        0.0000 
     39 CA         -7.5795  -15.3220   11.8880 C.3       4 GLC5        0.0000 
     40 CA         -5.7480  -15.8580   11.8710 C.3      12 GLL5        0.0000 
     41 CA         -3.8205  -17.8470    5.8613 C.3       4 GLC5        0.0000 
     42 CA         -4.6520  -16.3190    7.3610 C.3      12 GLL5        0.0000 
     43 CA         -3.5160  -19.6100    4.8330 C.3       8 GLP5        0.0000 
     44 CA         -2.8705  -17.4320    7.6608 C.3       4 GLC5        0.0000 
     45 CA         -1.6160  -18.7800    8.4320 C.3       8 GLP5        0.0000 
     46 CA         -6.1757  -17.3083    5.9223 C.3       4 GLC5        0.0000 
     47 CA         -7.0840  -18.7160    4.4820 C.3       8 GLP5        0.0000 
     48 CA         -7.2692  -14.1713    8.0473 C.3       4 GLC5        0.0000 
     49 CA         -5.8830  -15.4820    7.3640 C.3      12 GLL5        0.0000 
     50 CA         -8.2800  -12.5610    8.1420 C.3       8 GLP5        0.0000 
     51 CA         -3.8045  -15.4283   12.0437 C.3       4 GLC5        0.0000 
     52 CA         -4.2710  -14.9333   14.8190 C.3       4 GLC5        0.0000 
     53 CA         -5.6420  -14.6950   12.7540 C.3      12 GLL5        0.0000 
     54 CA         -2.7460  -15.0510   16.1670 C.3       8 GLP5        0.0000 
     55 CA         -7.4910  -14.2538   13.2025 C.3       4 GLC5        0.0000 
     56 CA         -5.9500  -14.9360   14.1880 C.3      12 GLL5        0.0000 
     57 CA         -9.1860  -13.6920   12.9340 C.3       8 GLP5        0.0000 
@<TRIPOS>BOND
@<TRIPOS>SUBSTRUCTURE
     1 ALC1       26 GROUP        1 X    ALC  0     ROOT ALC X 1
     2 SEC2        1 GROUP        1 X    SEC  0     **** SEC X 2
     3 LYC4        6 GROUP        1 X    LYC  0     **** LYC X 4
     4 GLC5       14 GROUP        1 X    GLC  0     **** GLC X 6
     5 ALP1       28 GROUP        1 Y    ALP  0     ROOT ALP Y 8
     6 SEP2        3 GROUP        1 Y    SEP  0     **** SEP Y 9
     7 LYP4        8 GROUP        1 Y    LYP  0     **** LYP Y 11
     8 GLP5       16 GROUP        1 Y    GLP  0     **** GLP Y 13
     9 ALL1       27 GROUP        1 Z    ALL  0     ROOT ALL Z 15
    10 SEL2        2 GROUP        1 Z    SEL  0     **** SEL Z 16
    11 LYL4        7 GROUP        1 Z    LYL  0     **** LYL Z 18
    12 GLL5       15 GROUP        1 Z    GLL  0     **** GLL Z 20
@<TRIPOS>SET

