#    Name: 4avb_CMP_3_ligand
#    Modification time : Tue Mar 25 06:17:25 2014

@<TRIPOS>MOLECULE
4avb_CMP_3_ligand
   33    36     1     0     0
SMALL
NO_CHARGES


@<TRIPOS>ATOM
      1 P          -5.6010  -15.0390    4.8830 P.3       1 CMP400      0.0000 
      2 O1P        -5.4560  -13.5630    5.0590 O.co2     1 CMP400      0.0000 
      3 O2P        -6.2510  -15.5590    3.6270 O.co2     1 CMP400      0.0000 
      4 O5'        -4.1680  -15.7540    5.1110 O.3       1 CMP400      0.0000 
      5 C5'        -3.5980  -15.8490    6.4180 C.3       1 CMP400      0.0000 
      6 C4'        -4.6520  -16.3190    7.3610 C.3       1 CMP400      0.0000 
      7 O4'        -4.2570  -16.2580    8.7430 O.3       1 CMP400      0.0000 
      8 C3'        -5.8830  -15.4820    7.3640 C.3       1 CMP400      0.0000 
      9 O3'        -6.5460  -15.5280    6.1240 O.3       1 CMP400      0.0000 
     10 C2'        -6.6340  -16.0810    8.5410 C.3       1 CMP400      0.0000 
     11 O2'        -7.2290  -17.3100    8.1630 O.3       1 CMP400      0.0000 
     12 C1'        -5.4560  -16.3760    9.5030 C.3       1 CMP400      0.0000 
     13 N9         -5.4230  -15.4450   10.6490 N.pl3     1 CMP400      0.0000 
     14 C8         -5.1440  -14.1290   10.6940 C.2       1 CMP400      0.0000 
     15 N7         -5.2700  -13.6630   11.9760 N.2       1 CMP400      0.0000 
     16 C5         -5.6420  -14.6950   12.7540 C.ar      1 CMP400      0.0000 
     17 C6         -5.9500  -14.9360   14.1880 C.ar      1 CMP400      0.0000 
     18 N6         -5.8900  -13.9380   15.0960 N.pl3     1 CMP400      0.0000 
     19 N1         -6.3080  -16.1840   14.5610 N.ar      1 CMP400      0.0000 
     20 C2         -6.3830  -17.2040   13.6880 C.ar      1 CMP400      0.0000 
     21 N3         -6.1120  -17.0590   12.3800 N.ar      1 CMP400      0.0000 
     22 C4         -5.7480  -15.8580   11.8710 C.ar      1 CMP400      0.0000 
     23 H          -3.2252  -14.8784    6.7607 H         1 CMP400      0.0000 
     24 H          -2.7648  -16.5588    6.4378 H         1 CMP400      0.0000 
     25 H          -4.9499  -17.3365    7.1256 H         1 CMP400      0.0000 
     26 H          -5.5809  -14.4836    7.6594 H         1 CMP400      0.0000 
     27 H          -7.2461  -15.3809    8.9676 H         1 CMP400      0.0000 
     28 H          -5.5803  -17.3924    9.8532 H         1 CMP400      0.0000 
     29 H          -4.8886  -13.5768    9.9338 H         1 CMP400      0.0000 
     30 H          -6.1211  -14.1849   16.0371 H         1 CMP400      0.0000 
     31 H          -5.6198  -13.0409   14.7466 H         1 CMP400      0.0000 
     32 H          -6.6676  -18.1616   14.0469 H         1 CMP400      0.0000 
     33 H          -8.1783  -17.0820    7.9464 H         1 CMP400      0.0000 
@<TRIPOS>BOND
     1    2    1 ar   
     2    3    1 ar   
     3    4    1 1    
     4    9    1 1    
     5    5    4 1    
     6    6    5 1    
     7   23    5 1    
     8   24    5 1    
     9    7    6 1    
    10    8    6 1    
    11   25    6 1    
    12   12    7 1    
    13    9    8 1    
    14   10    8 1    
    15   26    8 1    
    16   11   10 1    
    17   12   10 1    
    18   27   10 1    
    19   33   11 1    
    20   13   12 1    
    21   28   12 1    
    22   14   13 1    
    23   22   13 1    
    24   15   14 2    
    25   29   14 1    
    26   16   15 1    
    27   17   16 ar   
    28   22   16 ar   
    29   18   17 1    
    30   19   17 ar   
    31   30   18 1    
    32   31   18 1    
    33   20   19 ar   
    34   21   20 ar   
    35   32   20 1    
    36   22   21 ar   
@<TRIPOS>SUBSTRUCTURE
     1 CMP400      1 GROUP   
@<TRIPOS>SET

