#    Name: 1vhw_ADN_2_INTS_M
#    Modification time : Tue Mar 25 07:54:54 2014

@<TRIPOS>MOLECULE
1vhw_ADN_2_INTS_M
   41     0     9     0     0
SMALL
NO_CHARGES


@<TRIPOS>ATOM
      1 N          -1.7710   -3.3160   44.6420 N.am      2 SEC2        0.0000 
      2 N          -1.8590   -4.5890   45.0790 N.am      8 SEL2        0.0000 
      3 N          -1.6830   -2.0430   44.2050 N.am      5 SEP2        0.0000 
      4 CA         -1.3650   -4.2350   46.9680 C.3       3 GLC5        0.0000 
      5 CA         -2.9120   -4.6440   46.0700 C.3       9 GLL5        0.0000 
      6 CA          0.1820   -3.8260   47.8660 C.3       6 GLP5        0.0000 
      7 CA         -3.8310   -4.0785   47.8775 C.3       3 GLC5        0.0000 
      8 CA         -4.7500   -3.5130   49.6850 C.3       6 GLP5        0.0000 
      9 CA         -2.5735   -3.0610   44.5710 C.3       3 GLC5        0.0000 
     10 CA         -2.2350   -1.4780   43.0720 C.3       6 GLP5        0.0000 
     11 CA         -6.0920   -4.3405   45.4835 C.3       3 GLC5        0.0000 
     12 CA         -5.0690   -5.9280   46.6530 C.3       9 GLL5        0.0000 
     13 CA         -7.1150   -2.7530   44.3140 C.3       6 GLP5        0.0000 
     14 CA         -4.9095   -4.7205   48.1690 C.3       3 GLC5        0.0000 
     15 O          -7.4320   -5.7945   46.8460 O.2       1 ALC1        0.0000 
     16 O          -6.3770   -5.6250   46.1390 O.2       7 ALL1        0.0000 
     17 O          -8.4870   -5.9640   47.5530 O.2       4 ALP1        0.0000 
     18 CA         -4.9890   -8.8960   48.4055 C.3       3 GLC5        0.0000 
     19 CA         -4.8570   -7.4280   46.9820 C.3       9 GLL5        0.0000 
     20 CA         -5.1210  -10.3640   49.8290 C.3       6 GLP5        0.0000 
     21 CA         -5.0375   -6.2040   48.7975 C.3       3 GLC5        0.0000 
     22 CA         -5.2180   -4.9800   50.6130 C.3       6 GLP5        0.0000 
     23 O          -7.0165   -8.1165   47.3350 O.2       1 ALC1        0.0000 
     24 O          -5.9910   -8.2220   46.5600 O.2       7 ALL1        0.0000 
     25 O          -8.0420   -8.0110   48.1100 O.2       4 ALP1        0.0000 
     26 CA         -0.9880   -9.9585   48.1865 C.3       3 GLC5        0.0000 
     27 CA         -0.6880   -7.8820   48.3030 C.3       9 GLL5        0.0000 
     28 CA         -1.2880  -12.0350   48.0700 C.3       6 GLP5        0.0000 
     29 CA         -0.5630   -7.9420   51.5155 C.3       3 GLC5        0.0000 
     30 CA          0.0170   -7.4850   49.4070 C.3       9 GLL5        0.0000 
     31 CA         -1.1430   -8.3990   53.6240 C.3       6 GLP5        0.0000 
     32 CA         -1.5410   -7.3630   51.8060 C.3       3 GLC5        0.0000 
     33 CA         -1.9390   -6.3270   49.9880 C.3       9 GLL5        0.0000 
     34 CA         -3.1730   -7.8370   50.3275 C.3       3 GLC5        0.0000 
     35 CA         -4.4070   -9.3470   50.6670 C.3       6 GLP5        0.0000 
     36 CA         -3.5785   -5.6535   50.3005 C.3       3 GLC5        0.0000 
     37 CA         -3.1965   -8.4045   49.4045 C.3       3 GLC5        0.0000 
     38 CA         -1.9860   -7.4620   48.1420 C.3       9 GLL5        0.0000 
     39 CA         -4.4523   -3.6493   44.9605 C.3       3 GLC5        0.0000 
     40 CA         -3.9990   -5.6090   45.6420 C.3       9 GLL5        0.0000 
     41 CA         -5.4490   -2.1720   44.0650 C.3       6 GLP5        0.0000 
@<TRIPOS>BOND
@<TRIPOS>SUBSTRUCTURE
     1 ALC1       15 GROUP        1 X    ALC  0     ROOT ALC X 1
     2 SEC2        1 GROUP        1 X    SEC  0     **** SEC X 2
     3 GLC5        4 GROUP        1 X    GLC  0     **** GLC X 6
     4 ALP1       17 GROUP        1 Y    ALP  0     ROOT ALP Y 8
     5 SEP2        3 GROUP        1 Y    SEP  0     **** SEP Y 9
     6 GLP5        6 GROUP        1 Y    GLP  0     **** GLP Y 13
     7 ALL1       16 GROUP        1 Z    ALL  0     ROOT ALL Z 15
     8 SEL2        2 GROUP        1 Z    SEL  0     **** SEL Z 16
     9 GLL5        5 GROUP        1 Z    GLL  0     **** GLL Z 20
@<TRIPOS>SET

