#    Name: 1vhw_ADN_2_ligand
#    Modification time : Tue Mar 25 07:54:54 2014

@<TRIPOS>MOLECULE
1vhw_ADN_2_ligand
   31    33     1     0     0
SMALL
NO_CHARGES


@<TRIPOS>ATOM
      1 O5'        -1.8590   -4.5890   45.0790 O.3       1 ADN252      0.0000 
      2 C5'        -2.9120   -4.6440   46.0700 C.3       1 ADN252      0.0000 
      3 C4'        -3.9990   -5.6090   45.6420 C.3       1 ADN252      0.0000 
      4 O4'        -3.4350   -6.8460   45.2080 O.3       1 ADN252      0.0000 
      5 C3'        -5.0690   -5.9280   46.6530 C.3       1 ADN252      0.0000 
      6 O3'        -6.3770   -5.6250   46.1390 O.3       1 ADN252      0.0000 
      7 C2'        -4.8570   -7.4280   46.9820 C.3       1 ADN252      0.0000 
      8 O2'        -5.9910   -8.2220   46.5600 O.3       1 ADN252      0.0000 
      9 C1'        -3.6180   -7.8310   46.1700 C.3       1 ADN252      0.0000 
     10 N9         -2.4210   -8.0140   46.9500 N.pl3     1 ADN252      0.0000 
     11 C8         -1.3220   -8.7110   46.5710 C.2       1 ADN252      0.0000 
     12 N7         -0.2910   -8.6700   47.3250 N.2       1 ADN252      0.0000 
     13 C5         -0.6880   -7.8820   48.3030 C.ar      1 ADN252      0.0000 
     14 C6          0.0170   -7.4850   49.4070 C.ar      1 ADN252      0.0000 
     15 N6          1.2770   -7.7970   49.6770 N.pl3     1 ADN252      0.0000 
     16 N1         -0.6430   -6.6730   50.2760 N.ar      1 ADN252      0.0000 
     17 C2         -1.9390   -6.3270   49.9880 C.ar      1 ADN252      0.0000 
     18 N3         -2.6870   -6.6650   48.9750 N.ar      1 ADN252      0.0000 
     19 C4         -1.9860   -7.4620   48.1420 C.ar      1 ADN252      0.0000 
     20 H          -3.3675   -3.6548   46.2163 H         1 ADN252      0.0000 
     21 H          -2.5212   -4.9745   47.0423 H         1 ADN252      0.0000 
     22 H          -4.5180   -5.1521   44.7596 H         1 ADN252      0.0000 
     23 H          -4.8411   -5.3742   47.5536 H         1 ADN252      0.0000 
     24 H          -4.6338   -7.5200   48.0060 H         1 ADN252      0.0000 
     25 H          -3.8846   -8.7815   45.6687 H         1 ADN252      0.0000 
     26 H          -1.3538   -9.2540   45.6826 H         1 ADN252      0.0000 
     27 H          -2.4001   -5.6563   50.7480 H         1 ADN252      0.0000 
     28 H          -1.2232   -5.3167   45.3364 H         1 ADN252      0.0000 
     29 H          -7.0062   -5.8537   46.8818 H         1 ADN252      0.0000 
     30 H          -6.7915   -7.7384   46.9141 H         1 ADN252      0.0000 
     31 H           1.5653   -7.1341   50.3680 H         1 ADN252      0.0000 
@<TRIPOS>BOND
     1    2    1 1    
     2   28    1 1    
     3    3    2 1    
     4   20    2 1    
     5   21    2 1    
     6    4    3 1    
     7    5    3 1    
     8   22    3 1    
     9    9    4 1    
    10    6    5 1    
    11    7    5 1    
    12   23    5 1    
    13   29    6 1    
    14    8    7 1    
    15    9    7 1    
    16   24    7 1    
    17   30    8 1    
    18   10    9 1    
    19   25    9 1    
    20   11   10 1    
    21   19   10 1    
    22   12   11 2    
    23   26   11 1    
    24   13   12 1    
    25   14   13 ar   
    26   19   13 ar   
    27   15   14 1    
    28   16   14 ar   
    29   31   15 1    
    30   17   16 ar   
    31   18   17 ar   
    32   27   17 1    
    33   19   18 ar   
@<TRIPOS>SUBSTRUCTURE
     1 ADN252      1 GROUP   
@<TRIPOS>SET

