#    Name: 3qt0_486_1_INTS_M
#    Modification time : Tue Mar 25 10:06:21 2014

@<TRIPOS>MOLECULE
3qt0_486_1_INTS_M
   87     0     6     0     0
SMALL
NO_CHARGES


@<TRIPOS>ATOM
      1 CA          3.1815  -22.5600   -6.4530 C.3       2 GLC5        0.0000 
      2 CA          1.2280  -21.6760   -7.0450 C.3       6 GLL5        0.0000 
      3 CA          5.1350  -23.4440   -5.8610 C.3       4 GLP5        0.0000 
      4 CA          4.0600  -19.9675   -8.5815 C.3       2 GLC5        0.0000 
      5 CA          2.4670  -21.1520   -9.1300 C.3       6 GLL5        0.0000 
      6 CA          5.6530  -18.7830   -8.0330 C.3       4 GLP5        0.0000 
      7 CA          4.6270  -21.7375   -9.3335 C.3       2 GLC5        0.0000 
      8 CA          6.7870  -22.3230   -9.5370 C.3       4 GLP5        0.0000 
      9 CA         -4.8605  -19.7830  -11.1050 C.3       2 GLC5        0.0000 
     10 CA         -3.3280  -18.7800  -10.8120 C.3       6 GLL5        0.0000 
     11 CA         -6.3930  -20.7860  -11.3980 C.3       4 GLP5        0.0000 
     12 CA         -5.3230  -18.6940  -10.5485 C.3       2 GLC5        0.0000 
     13 CA         -3.5800  -17.4090  -10.8260 C.3       6 GLL5        0.0000 
     14 CA         -7.0660  -19.9790  -10.2710 C.3       4 GLP5        0.0000 
     15 CA         -5.4735  -16.6550  -10.7280 C.3       2 GLC5        0.0000 
     16 CA         -7.3670  -15.9010  -10.6300 C.3       4 GLP5        0.0000 
     17 CA         -5.7405  -15.2815  -10.8240 C.3       2 GLC5        0.0000 
     18 CA         -4.1140  -14.6620  -11.0180 C.3       6 GLL5        0.0000 
     19 CA         -3.8540  -15.8785  -12.6620 C.3       2 GLC5        0.0000 
     20 CA         -3.5940  -17.0950  -14.3060 C.3       4 GLP5        0.0000 
     21 CA         -3.3625  -12.7820  -11.9890 C.3       2 GLC5        0.0000 
     22 CA         -2.6110  -10.9020  -12.9600 C.3       4 GLP5        0.0000 
     23 CA         -0.5015  -13.9065  -11.1085 C.3       2 GLC5        0.0000 
     24 CA         -2.0310  -14.1770   -9.7070 C.3       6 GLL5        0.0000 
     25 CA          1.0280  -13.6360  -12.5100 C.3       4 GLP5        0.0000 
     26 CA         -0.6735  -13.6570   -8.6910 C.3       2 GLC5        0.0000 
     27 CA          0.6840  -13.1370   -7.6750 C.3       4 GLP5        0.0000 
     28 CA         -4.3380  -21.0915  -11.4685 C.3       2 GLC5        0.0000 
     29 CA         -2.2830  -21.3970  -11.5390 C.3       6 GLL5        0.0000 
     30 CA         -2.3275  -18.4830  -13.7275 C.3       2 GLC5        0.0000 
     31 CA         -1.0610  -19.8710  -13.1490 C.3       6 GLL5        0.0000 
     32 CA         -1.0855  -19.5695  -15.0300 C.3       2 GLC5        0.0000 
     33 CA         -1.1100  -19.2680  -16.9110 C.3       4 GLP5        0.0000 
     34 CA          0.2975  -18.6425  -13.2370 C.3       2 GLC5        0.0000 
     35 CA          1.6560  -17.4140  -13.3250 C.3       4 GLP5        0.0000 
     36 CA         -3.1725  -24.8900  -11.3960 C.3       2 GLC5        0.0000 
     37 CA         -4.3060  -25.0930  -13.0900 C.3       6 GLL5        0.0000 
     38 CA         -2.0390  -24.6870   -9.7020 C.3       4 GLP5        0.0000 
     39 CA         -5.3545  -26.1100  -11.7700 C.3       2 GLC5        0.0000 
     40 CA         -6.4030  -27.1270  -10.4500 C.3       4 GLP5        0.0000 
     41 N          -2.1555  -21.2625  -16.4260 N.am      1 SEC2        0.0000 
     42 N          -2.0260  -21.4360  -14.9630 N.am      5 SEL2        0.0000 
     43 N          -2.2850  -21.0890  -17.8890 N.am      3 SEP2        0.0000 
     44 CA          1.1535  -19.1985  -12.1465 C.3       2 GLC5        0.0000 
     45 CA          0.6510  -20.9830  -10.9680 C.3       6 GLL5        0.0000 
     46 CA          2.2520  -23.4580  -11.2535 C.3       2 GLC5        0.0000 
     47 CA          1.9700  -21.6120  -10.4980 C.3       6 GLL5        0.0000 
     48 CA          2.5340  -25.3040  -12.0090 C.3       4 GLP5        0.0000 
     49 CA         -1.9337  -22.8000   -7.6660 C.3       2 GLC5        0.0000 
     50 CA         -1.0860  -20.8750   -7.4430 C.3       6 GLL5        0.0000 
     51 CA         -2.9030  -24.2740   -8.5110 C.3       4 GLP5        0.0000 
     52 CA         -2.6963  -20.6370   -6.7400 C.3       2 GLC5        0.0000 
     53 CA         -0.8430  -21.7770   -6.1990 C.3       6 GLL5        0.0000 
     54 CA         -4.4280  -19.9480   -6.6590 C.3       4 GLP5        0.0000 
     55 CA          0.4895  -23.0337   -8.5090 C.3       2 GLC5        0.0000 
     56 CA         -0.2810  -24.5880   -9.3920 C.3       4 GLP5        0.0000 
     57 CA          2.0265  -20.3053   -6.1765 C.3       2 GLC5        0.0000 
     58 CA          1.2920  -21.2830   -8.2070 C.3       6 GLL5        0.0000 
     59 CA          2.7930  -19.1310   -4.7270 C.3       4 GLP5        0.0000 
     60 CA          0.9688  -22.9850   -9.6030 C.3       2 GLC5        0.0000 
     61 CA         -0.2598  -22.7677   -9.3128 C.3       2 GLC5        0.0000 
     62 CA         -0.4060  -20.8970   -9.8780 C.3       6 GLL5        0.0000 
     63 CA         -2.0598  -22.8733  -10.2895 C.3       2 GLC5        0.0000 
     64 CA         -1.8780  -20.7220  -10.2150 C.3       6 GLL5        0.0000 
     65 CA         -3.7215  -18.3263   -8.9420 C.3       2 GLC5        0.0000 
     66 CA         -3.9890  -18.5580   -7.0650 C.3       4 GLP5        0.0000 
     67 CA         -3.0432  -17.6593   -8.5160 C.3       2 GLC5        0.0000 
     68 CA         -2.6830  -16.5180  -10.2570 C.3       6 GLL5        0.0000 
     69 CA         -3.3312  -17.2006  -12.4220 C.3       2 GLC5        0.0000 
     70 CA         -2.8165  -18.8704   -8.5025 C.3       2 GLC5        0.0000 
     71 CA         -1.2640  -18.3730   -9.6580 C.3       6 GLL5        0.0000 
     72 CA         -0.0774  -16.9544  -10.4322 C.3       2 GLC5        0.0000 
     73 CA          1.5260  -16.3420  -11.0520 C.3       4 GLP5        0.0000 
     74 CA         -0.9428  -20.8500  -15.5100 C.3       2 GLC5        0.0000 
     75 CA         -1.4690  -22.1940  -13.8860 C.3       6 GLL5        0.0000 
     76 CA         -2.4503  -24.1788  -11.5877 C.3       2 GLC5        0.0000 
     77 CA         -2.4580  -23.2580  -13.6110 C.3       6 GLL5        0.0000 
     78 CA          0.8770  -21.7822  -15.7308 C.3       2 GLC5        0.0000 
     79 CA          0.9440  -22.1290  -13.3170 C.3       6 GLL5        0.0000 
     80 CA          1.3230  -21.1650  -17.6370 C.3       4 GLP5        0.0000 
     81 CA          2.0673  -21.1730  -12.8848 C.3       2 GLC5        0.0000 
     82 CA          3.6270  -20.3580  -13.0660 C.3       4 GLP5        0.0000 
     83 CA          0.0400  -23.0015  -10.4605 C.3       2 GLC5        0.0000 
     84 CA          0.0710  -21.8470  -12.0900 C.3       6 GLL5        0.0000 
     85 CA          0.8280  -23.8626  -12.8561 C.3       2 GLC5        0.0000 
     86 CA          1.4050  -25.6020  -12.7550 C.3       4 GLP5        0.0000 
     87 CA          2.5309  -20.7703  -11.7285 C.3       2 GLC5        0.0000 
@<TRIPOS>BOND
@<TRIPOS>SUBSTRUCTURE
     1 SEC2       41 GROUP        1 X    SEC  0     ROOT SEC X 2
     2 GLC5        1 GROUP        1 X    GLC  0     **** GLC X 6
     3 SEP2       43 GROUP        1 Y    SEP  0     ROOT SEP Y 9
     4 GLP5        3 GROUP        1 Y    GLP  0     **** GLP Y 13
     5 SEL2       42 GROUP        1 Z    SEL  0     ROOT SEL Z 16
     6 GLL5        2 GROUP        1 Z    GLL  0     **** GLL Z 20
@<TRIPOS>SET

