#    Name: 3qt0_486_1_ligand
#    Modification time : Tue Mar 25 10:06:21 2014

@<TRIPOS>MOLECULE
3qt0_486_1_ligand
   67    71     1     0     0
SMALL
NO_CHARGES


@<TRIPOS>ATOM
      1 O30         1.1770  -22.4360   -5.0040 O.2       1 4864        0.0000 
      2 C2          0.6460  -22.0010   -6.0080 C.2       1 4864        0.0000 
      3 C1         -0.8430  -21.7770   -6.1990 C.3       1 4864        0.0000 
      4 C3          1.2280  -21.6760   -7.0450 C.2       1 4864        0.0000 
      5 C4          1.2920  -21.2830   -8.2070 C.2       1 4864        0.0000 
      6 C7          2.4670  -21.1520   -9.1300 C.3       1 4864        0.0000 
      7 C5         -0.0710  -20.9980   -8.5890 C.2       1 4864        0.0000 
      8 C6         -1.0860  -20.8750   -7.4430 C.3       1 4864        0.0000 
      9 C10        -0.4060  -20.8970   -9.8780 C.2       1 4864        0.0000 
     10 C14        -1.8780  -20.7220  -10.2150 C.3       1 4864        0.0000 
     11 C18        -2.1700  -19.2630  -10.2290 C.ar      1 4864        0.0000 
     12 C22        -3.3280  -18.7800  -10.8120 C.ar      1 4864        0.0000 
     13 C23        -3.5800  -17.4090  -10.8260 C.ar      1 4864        0.0000 
     14 C24        -2.6830  -16.5180  -10.2570 C.ar      1 4864        0.0000 
     15 N27        -2.9460  -15.1410  -10.3060 N.pl3     1 4864        0.0000 
     16 C29        -4.1140  -14.6620  -11.0180 C.3       1 4864        0.0000 
     17 C28        -2.0310  -14.1770   -9.7070 C.3       1 4864        0.0000 
     18 C25        -1.5120  -17.0030   -9.6770 C.ar      1 4864        0.0000 
     19 C26        -1.2640  -18.3730   -9.6580 C.ar      1 4864        0.0000 
     20 C13        -2.2830  -21.3970  -11.5390 C.3       1 4864        0.0000 
     21 C12        -1.2340  -21.3030  -12.6490 C.3       1 4864        0.0000 
     22 C19        -1.0610  -19.8710  -13.1490 C.3       1 4864        0.0000 
     23 C17        -1.4690  -22.1940  -13.8860 C.3       1 4864        0.0000 
     24 C31        -2.4580  -23.2580  -13.6110 C.1       1 4864        0.0000 
     25 C30        -3.2650  -24.0830  -13.3360 C.1       1 4864        0.0000 
     26 C32        -4.3060  -25.0930  -13.0900 C.3       1 4864        0.0000 
     27 O3         -2.0260  -21.4360  -14.9630 O.3       1 4864        0.0000 
     28 C16        -0.0820  -22.6700  -14.3320 C.3       1 4864        0.0000 
     29 C15         0.9440  -22.1290  -13.3170 C.3       1 4864        0.0000 
     30 C11         0.0710  -21.8470  -12.0900 C.3       1 4864        0.0000 
     31 C9          0.6510  -20.9830  -10.9680 C.3       1 4864        0.0000 
     32 C8          1.9700  -21.6120  -10.4980 C.3       1 4864        0.0000 
     33 H          -1.2585  -21.2832   -5.3296 H         1 4864        0.0000 
     34 H          -1.3434  -22.7240   -6.3577 H         1 4864        0.0000 
     35 H           2.4906  -21.8458   -6.7285 H         1 4864        0.0000 
     36 H           3.2652  -21.7905   -8.8105 H         1 4864        0.0000 
     37 H           2.7798  -20.1297   -9.1926 H         1 4864        0.0000 
     38 H          -1.1164  -19.8187   -7.1023 H         1 4864        0.0000 
     39 H          -2.1003  -21.0965   -7.8366 H         1 4864        0.0000 
     40 H          -2.4601  -21.1796   -9.4078 H         1 4864        0.0000 
     41 H          -4.0050  -19.4278  -11.2358 H         1 4864        0.0000 
     42 H          -4.4459  -17.0562  -11.2662 H         1 4864        0.0000 
     43 H          -0.8345  -16.3513   -9.2651 H         1 4864        0.0000 
     44 H          -0.4031  -18.7312   -9.2179 H         1 4864        0.0000 
     45 H          -3.2230  -20.9402  -11.8936 H         1 4864        0.0000 
     46 H          -2.5005  -22.4605  -11.3396 H         1 4864        0.0000 
     47 H           0.1394  -22.2750  -15.3049 H         1 4864        0.0000 
     48 H          -0.0509  -23.7427  -14.3303 H         1 4864        0.0000 
     49 H           1.3582  -21.2312  -13.6778 H         1 4864        0.0000 
     50 H           1.6481  -22.8785  -13.0929 H         1 4864        0.0000 
     51 H          -0.1922  -22.8492  -11.6610 H         1 4864        0.0000 
     52 H           0.8390  -20.0070  -11.3660 H         1 4864        0.0000 
     53 H           1.8497  -22.7140  -10.4839 H         1 4864        0.0000 
     54 H           2.7519  -21.3978  -11.2543 H         1 4864        0.0000 
     55 H          -4.1891  -13.6655  -10.9804 H         1 4864        0.0000 
     56 H          -4.0907  -14.9179  -11.9844 H         1 4864        0.0000 
     57 H          -4.9601  -15.0343  -10.6365 H         1 4864        0.0000 
     58 H          -1.1187  -14.2289  -10.1132 H         1 4864        0.0000 
     59 H          -2.3517  -13.2373   -9.8256 H         1 4864        0.0000 
     60 H          -1.9233  -14.3281   -8.7244 H         1 4864        0.0000 
     61 H          -0.7729  -19.2541  -12.4166 H         1 4864        0.0000 
     62 H          -0.3720  -19.8105  -13.8712 H         1 4864        0.0000 
     63 H          -1.9119  -19.5033  -13.5241 H         1 4864        0.0000 
     64 H          -4.5688  -25.5677  -13.9300 H         1 4864        0.0000 
     65 H          -4.0006  -25.7909  -12.4422 H         1 4864        0.0000 
     66 H          -5.1370  -24.6853  -12.7115 H         1 4864        0.0000 
     67 H          -2.9840  -21.7189  -15.0101 H         1 4864        0.0000 
@<TRIPOS>BOND
     1    2    1 2    
     2    3    2 1    
     3    4    2 1    
     4    8    3 1    
     5   33    3 1    
     6   34    3 1    
     7    5    4 2    
     8   35    4 1    
     9    6    5 1    
    10    7    5 1    
    11   32    6 1    
    12   36    6 1    
    13   37    6 1    
    14    8    7 1    
    15    9    7 2    
    16   38    8 1    
    17   39    8 1    
    18   10    9 1    
    19   31    9 1    
    20   11   10 1    
    21   20   10 1    
    22   40   10 1    
    23   12   11 ar   
    24   19   11 ar   
    25   13   12 ar   
    26   41   12 1    
    27   14   13 ar   
    28   42   13 1    
    29   15   14 1    
    30   18   14 ar   
    31   16   15 1    
    32   17   15 1    
    33   55   16 1    
    34   56   16 1    
    35   57   16 1    
    36   58   17 1    
    37   59   17 1    
    38   60   17 1    
    39   19   18 ar   
    40   43   18 1    
    41   44   19 1    
    42   21   20 1    
    43   45   20 1    
    44   46   20 1    
    45   22   21 1    
    46   23   21 1    
    47   30   21 1    
    48   61   22 1    
    49   62   22 1    
    50   63   22 1    
    51   24   23 1    
    52   27   23 1    
    53   28   23 1    
    54   25   24 3    
    55   26   25 1    
    56   64   26 1    
    57   65   26 1    
    58   66   26 1    
    59   67   27 1    
    60   29   28 1    
    61   47   28 1    
    62   48   28 1    
    63   30   29 1    
    64   49   29 1    
    65   50   29 1    
    66   31   30 1    
    67   51   30 1    
    68   32   31 1    
    69   52   31 1    
    70   53   32 1    
    71   54   32 1    
@<TRIPOS>SUBSTRUCTURE
     1 4864        1 GROUP   
@<TRIPOS>SET

