#    Name: 4efe_0OV_2_INTS_M
#    Modification time : Mon Mar 24 17:42:22 2014

@<TRIPOS>MOLECULE
4efe_0OV_2_INTS_M
   66     0     9     0     0
SMALL
NO_CHARGES


@<TRIPOS>ATOM
      1 CA         21.2185   32.4985   52.6710 C.3       3 GLC5        0.0000 
      2 CA         20.4570   33.1370   50.8120 C.3       9 GLL5        0.0000 
      3 CA         21.9800   31.8600   54.5300 C.3       6 GLP5        0.0000 
      4 CA         23.9820   34.2015   47.8410 C.3       3 GLC5        0.0000 
      5 CA         23.3300   33.8990   49.8770 C.3       9 GLL5        0.0000 
      6 CA         24.6340   34.5040   45.8050 C.3       6 GLP5        0.0000 
      7 CA         21.4150   34.6300   49.1080 C.3       3 GLC5        0.0000 
      8 CA         19.5000   35.3610   48.3390 C.3       6 GLP5        0.0000 
      9 CA         22.4390   32.2565   52.5435 C.3       3 GLC5        0.0000 
     10 CA         22.8980   32.6530   50.5570 C.3       9 GLL5        0.0000 
     11 CA         18.4870   29.6075   48.1810 C.3       3 GLC5        0.0000 
     12 CA         19.9080   30.9000   49.1170 C.3       9 GLL5        0.0000 
     13 CA         17.0660   28.3150   47.2450 C.3       6 GLP5        0.0000 
     14 CA         19.8535   31.0275   46.9165 C.3       3 GLC5        0.0000 
     15 CA         19.7990   31.1550   44.7160 C.3       6 GLP5        0.0000 
     16 CA         19.1135   32.8775   48.4715 C.3       3 GLC5        0.0000 
     17 CA         18.3190   34.8550   47.8260 C.3       6 GLP5        0.0000 
     18 CA         24.5345   36.9490   55.8870 C.3       3 GLC5        0.0000 
     19 CA         23.5970   36.7700   54.2030 C.3       9 GLL5        0.0000 
     20 CA         25.4720   37.1280   57.5710 C.3       6 GLP5        0.0000 
     21 CA         21.8735   34.8640   56.0055 C.3       3 GLC5        0.0000 
     22 CA         21.3780   36.4920   55.4270 C.3       9 GLL5        0.0000 
     23 CA         22.3690   33.2360   56.5840 C.3       6 GLP5        0.0000 
     24 CA         19.3660   36.3305   54.9720 C.3       3 GLC5        0.0000 
     25 CA         17.3540   36.1690   54.5170 C.3       6 GLP5        0.0000 
     26 CA         20.6290   37.8490   56.5085 C.3       3 GLC5        0.0000 
     27 CA         19.8800   39.2060   57.5900 C.3       6 GLP5        0.0000 
     28 CA         20.9930   36.0315   57.1950 C.3       3 GLC5        0.0000 
     29 CA         20.6080   35.5710   58.9630 C.3       6 GLP5        0.0000 
     30 CA         19.0430   33.9075   53.8545 C.3       3 GLC5        0.0000 
     31 CA         19.7480   34.9510   52.1190 C.3       9 GLL5        0.0000 
     32 CA         18.3380   32.8640   55.5900 C.3       6 GLP5        0.0000 
     33 CA         18.5510   35.5600   53.3180 C.3       3 GLC5        0.0000 
     34 CA         23.7960   37.8955   55.9880 C.3       3 GLC5        0.0000 
     35 CA         23.5290   38.3030   53.9800 C.3       9 GLL5        0.0000 
     36 CA         24.0630   37.4880   57.9960 C.3       6 GLP5        0.0000 
     37 CA         22.1465   39.1320   55.3940 C.3       3 GLC5        0.0000 
     38 CA         20.7640   39.9610   56.8080 C.3       6 GLP5        0.0000 
     39 CA         20.6295   39.3150   51.2060 C.3       3 GLC5        0.0000 
     40 CA         21.4080   38.0570   52.6320 C.3       9 GLL5        0.0000 
     41 CA         19.8510   40.5730   49.7800 C.3       6 GLP5        0.0000 
     42 CA         19.3855   36.3445   53.6895 C.3       3 GLC5        0.0000 
     43 CA         21.4170   36.5200   52.8620 C.3       9 GLL5        0.0000 
     44 N          17.7920   35.7815   52.5490 N.am      2 SEC2        0.0000 
     45 N          18.4570   34.6930   51.8770 N.am      8 SEL2        0.0000 
     46 N          17.1270   36.8700   53.2210 N.am      5 SEP2        0.0000 
     47 CA         17.7110   34.9135   52.8080 C.3       3 GLC5        0.0000 
     48 CA         18.0680   33.6580   51.0990 C.3       9 GLL5        0.0000 
     49 O          15.6770   34.3790   51.4205 O.2       1 ALC1        0.0000 
     50 O          16.7270   33.4280   50.8730 O.2       7 ALL1        0.0000 
     51 O          14.6270   35.3300   51.9680 O.2       4 ALP1        0.0000 
     52 N          17.3570   30.0310   48.9910 N.am      2 SEC2        0.0000 
     53 N          17.6290   31.3320   49.3430 N.am      8 SEL2        0.0000 
     54 N          17.0850   28.7300   48.6390 N.am      5 SEP2        0.0000 
     55 CA         20.0145   29.6562   50.4652 C.3       3 GLC5        0.0000 
     56 CA         19.4800   28.2300   51.6500 C.3       6 GLP5        0.0000 
     57 CA         25.6560   37.8907   54.2092 C.3       3 GLC5        0.0000 
     58 CA         27.7490   38.2450   54.3270 C.3       6 GLP5        0.0000 
     59 CA         22.9468   34.5502   54.7605 C.3       3 GLC5        0.0000 
     60 CA         23.0040   32.6520   55.3380 C.3       6 GLP5        0.0000 
     61 CA         22.9215   36.8987   56.3955 C.3       3 GLC5        0.0000 
     62 CA         22.1820   36.1270   54.1630 C.3       9 GLL5        0.0000 
     63 CA         20.4488   36.8753   50.9595 C.3       3 GLC5        0.0000 
     64 CA         19.4850   36.4620   49.1720 C.3       6 GLP5        0.0000 
     65 CA         18.5593   32.1599   52.4006 C.3       3 GLC5        0.0000 
     66 CA         18.2010   31.0010   53.9190 C.3       6 GLP5        0.0000 
@<TRIPOS>BOND
@<TRIPOS>SUBSTRUCTURE
     1 ALC1       49 GROUP        1 X    ALC  0     ROOT ALC X 1
     2 SEC2       44 GROUP        1 X    SEC  0     **** SEC X 2
     3 GLC5        1 GROUP        1 X    GLC  0     **** GLC X 6
     4 ALP1       51 GROUP        1 Y    ALP  0     ROOT ALP Y 8
     5 SEP2       46 GROUP        1 Y    SEP  0     **** SEP Y 9
     6 GLP5        3 GROUP        1 Y    GLP  0     **** GLP Y 13
     7 ALL1       50 GROUP        1 Z    ALL  0     ROOT ALL Z 15
     8 SEL2       45 GROUP        1 Z    SEL  0     **** SEL Z 16
     9 GLL5        2 GROUP        1 Z    GLL  0     **** GLL Z 20
@<TRIPOS>SET

