#    Name: 4efe_0OV_2_ligand
#    Modification time : Mon Mar 24 17:42:22 2014

@<TRIPOS>MOLECULE
4efe_0OV_2_ligand
   42    44     1     0     0
SMALL
NO_CHARGES


@<TRIPOS>ATOM
      1 C24        20.4570   33.1370   50.8120 C.ar      1 0OV404      0.0000 
      2 C22        23.3300   33.8990   49.8770 C.1       1 0OV404      0.0000 
      3 C21        22.8980   32.6530   50.5570 C.3       1 0OV404      0.0000 
      4 C18        19.9080   30.9000   49.1170 C.2       1 0OV404      0.0000 
      5 C16        18.7840   31.6510   49.6330 C.2       1 0OV404      0.0000 
      6 C15        19.0770   32.8220   50.5190 C.ar      1 0OV404      0.0000 
      7 C6         22.8500   38.6090   52.6310 C.3       1 0OV404      0.0000 
      8 C4         23.5970   36.7700   54.2030 C.3       1 0OV404      0.0000 
      9 C2         22.1820   36.1270   54.1630 C.3       1 0OV404      0.0000 
     10 C1         21.3780   36.4920   55.4270 C.3       1 0OV404      0.0000 
     11 C11        19.7480   34.9510   52.1190 C.ar      1 0OV404      0.0000 
     12 C5         23.5290   38.3030   53.9800 C.3       1 0OV404      0.0000 
     13 C7         21.4080   38.0570   52.6320 C.3       1 0OV404      0.0000 
     14 C8         21.4170   36.5200   52.8620 C.3       1 0OV404      0.0000 
     15 O10        20.0640   36.0160   52.9060 O.3       1 0OV404      0.0000 
     16 N12        18.4570   34.6930   51.8770 N.ar      1 0OV404      0.0000 
     17 C13        18.0680   33.6580   51.0990 C.ar      1 0OV404      0.0000 
     18 N14        16.7270   33.4280   50.8730 N.pl3     1 0OV404      0.0000 
     19 O17        17.6290   31.3320   49.3430 O.2       1 0OV404      0.0000 
     20 C19        21.1900   31.2650   49.4440 C.2       1 0OV404      0.0000 
     21 N20        21.4760   32.3430   50.2620 N.pl3     1 0OV404      0.0000 
     22 N23        23.6570   34.8600   49.3630 N.1       1 0OV404      0.0000 
     23 N25        20.7270   34.1940   51.6030 N.ar      1 0OV404      0.0000 
     24 H          23.0332   32.7602   51.6437 H         1 0OV404      0.0000 
     25 H          23.5324   31.8156   50.2300 H         1 0OV404      0.0000 
     26 H          19.7121   30.0999   48.5092 H         1 0OV404      0.0000 
     27 H          23.4098   38.1385   51.8342 H         1 0OV404      0.0000 
     28 H          22.8204   39.6796   52.4805 H         1 0OV404      0.0000 
     29 H          24.2084   36.3246   53.4240 H         1 0OV404      0.0000 
     30 H          24.0468   36.5716   55.1712 H         1 0OV404      0.0000 
     31 H          22.3155   35.0412   54.1512 H         1 0OV404      0.0000 
     32 H          22.9555   38.7501   54.7801 H         1 0OV404      0.0000 
     33 H          24.5335   38.7030   53.9752 H         1 0OV404      0.0000 
     34 H          20.9435   38.2664   51.6773 H         1 0OV404      0.0000 
     35 H          20.8447   38.5277   53.4271 H         1 0OV404      0.0000 
     36 H          21.9571   36.0712   52.0244 H         1 0OV404      0.0000 
     37 H          16.5058   32.6296   50.3129 H         1 0OV404      0.0000 
     38 H          16.0926   34.0796   51.2889 H         1 0OV404      0.0000 
     39 H          21.9920   30.7040   49.0585 H         1 0OV404      0.0000 
     40 H          21.8288   36.1703   56.2597 H         1 0OV404      0.0000 
     41 H          21.2612   37.4808   55.5202 H         1 0OV404      0.0000 
     42 H          20.4630   36.0887   55.4145 H         1 0OV404      0.0000 
@<TRIPOS>BOND
     1    6    1 ar   
     2   21    1 1    
     3   23    1 ar   
     4    3    2 1    
     5   22    2 3    
     6   21    3 1    
     7   24    3 1    
     8   25    3 1    
     9    5    4 1    
    10   20    4 2    
    11   26    4 1    
    12    6    5 1    
    13   19    5 2    
    14   17    6 ar   
    15   12    7 1    
    16   13    7 1    
    17   27    7 1    
    18   28    7 1    
    19    9    8 1    
    20   12    8 1    
    21   29    8 1    
    22   30    8 1    
    23   10    9 1    
    24   14    9 1    
    25   31    9 1    
    26   40   10 1    
    27   41   10 1    
    28   42   10 1    
    29   15   11 1    
    30   16   11 ar   
    31   23   11 ar   
    32   32   12 1    
    33   33   12 1    
    34   14   13 1    
    35   34   13 1    
    36   35   13 1    
    37   15   14 1    
    38   36   14 1    
    39   17   16 ar   
    40   18   17 1    
    41   37   18 1    
    42   38   18 1    
    43   21   20 1    
    44   39   20 1    
@<TRIPOS>SUBSTRUCTURE
     1 0OV404      1 GROUP   
@<TRIPOS>SET

