#    Name: 3gqo_APR_1_INTS_M
#    Modification time : Tue Mar 25 12:50:45 2014

@<TRIPOS>MOLECULE
3gqo_APR_1_INTS_M
   86     0     9     0     0
SMALL
NO_CHARGES


@<TRIPOS>ATOM
      1 N         -10.2125  -14.4225   34.0670 N.am      2 SEC2        0.0000 
      2 N          -9.3740  -14.7070   32.9450 N.am      8 SEL2        0.0000 
      3 N         -11.0510  -14.1380   35.1890 N.am      5 SEP2        0.0000 
      4 CA         -9.3990  -13.5485   33.9055 C.3       3 GLC5        0.0000 
      5 CA         -9.7340  -14.0650   31.8130 C.3       9 GLL5        0.0000 
      6 CA         -9.0640  -13.0320   35.9980 C.3       6 GLP5        0.0000 
      7 CA        -11.3035  -14.5525   32.7715 C.3       3 GLC5        0.0000 
      8 CA        -12.8730  -15.0400   33.7300 C.3       6 GLP5        0.0000 
      9 CA        -11.6415  -13.0605   31.4735 C.3       3 GLC5        0.0000 
     10 CA        -13.5490  -12.0560   31.1340 C.3       6 GLP5        0.0000 
     11 CA         -8.0260  -12.9565   32.3490 C.3       3 GLC5        0.0000 
     12 CA         -6.3180  -11.8480   32.8850 C.3       6 GLP5        0.0000 
     13 CA         -7.1580  -13.3235   30.5150 C.3       3 GLC5        0.0000 
     14 CA         -8.2280  -15.2530   30.4950 C.3       9 GLL5        0.0000 
     15 CA         -6.0880  -11.3940   30.5350 C.3       6 GLP5        0.0000 
     16 CA         -8.7475  -14.3490   34.4755 C.3       3 GLC5        0.0000 
     17 CA         -8.4310  -15.6660   32.9530 C.3       9 GLL5        0.0000 
     18 CA        -10.3325  -16.0370   33.2285 C.3       3 GLC5        0.0000 
     19 CA        -12.2340  -16.4080   33.5040 C.3       6 GLP5        0.0000 
     20 CA         -9.4435  -17.2730   32.1610 C.3       3 GLC5        0.0000 
     21 CA        -10.4560  -18.8800   31.3690 C.3       6 GLP5        0.0000 
     22 CA         -7.3745  -13.7570   32.9190 C.3       3 GLC5        0.0000 
     23 O          -8.4885  -16.0080   35.3570 O.2       1 ALC1        0.0000 
     24 O          -8.0660  -16.2970   34.0860 O.2       7 ALL1        0.0000 
     25 O          -8.9110  -15.7190   36.6280 O.2       4 ALP1        0.0000 
     26 CA         -8.9065  -16.7480   29.0605 C.3       3 GLC5        0.0000 
     27 CA         -7.6940  -15.2290   28.1140 C.3       9 GLL5        0.0000 
     28 CA        -10.1190  -18.2670   30.0070 C.3       6 GLP5        0.0000 
     29 O          -8.3990  -14.9865   24.2670 O.2       1 ALC1        0.0000 
     30 O          -7.5130  -14.5200   25.2580 O.2       7 ALL1        0.0000 
     31 O          -9.2850  -15.4530   23.2760 O.2       4 ALP1        0.0000 
     32 CA         -7.3530  -18.0135   24.9315 C.3       3 GLC5        0.0000 
     33 CA         -9.0710  -17.6800   26.0640 C.3       9 GLL5        0.0000 
     34 CA         -5.6350  -18.3470   23.7990 C.3       6 GLP5        0.0000 
     35 N          -8.1835  -19.9465   29.5965 N.am      2 SEC2        0.0000 
     36 N          -8.2190  -19.8740   28.1640 N.am      8 SEL2        0.0000 
     37 N          -8.1480  -20.0190   31.0290 N.am      5 SEP2        0.0000 
     38 N          -5.8155  -20.6055   25.2320 N.am      2 SEC2        0.0000 
     39 N          -6.5640  -20.5450   26.2650 N.am      8 SEL2        0.0000 
     40 N          -5.0670  -20.6660   24.1990 N.am      5 SEP2        0.0000 
     41 N         -10.8260  -20.5515   23.0170 N.am      2 SEC2        0.0000 
     42 N         -10.3210  -21.4490   23.9020 N.am      8 SEL2        0.0000 
     43 N         -11.3310  -19.6540   22.1320 N.am      5 SEP2        0.0000 
     44 N          -7.4005  -19.2215   23.3560 N.am      2 SEC2        0.0000 
     45 N          -7.9520  -20.4140   23.6550 N.am      8 SEL2        0.0000 
     46 N          -6.8490  -18.0290   23.0570 N.am      5 SEP2        0.0000 
     47 N          -7.0605  -21.3275   22.9030 N.am      2 SEC2        0.0000 
     48 N          -6.1690  -22.2410   22.1510 N.am      5 SEP2        0.0000 
     49 CA        -10.6500  -22.4350   26.1770 C.3       3 GLC5        0.0000 
     50 CA         -9.0320  -23.6790   25.3680 C.3       9 GLL5        0.0000 
     51 CA        -12.2680  -21.1910   26.9860 C.3       6 GLP5        0.0000 
     52 CA         -6.9100  -23.3250   25.2340 C.3       3 GLC5        0.0000 
     53 CA         -4.7880  -22.9710   25.1000 C.3       6 GLP5        0.0000 
     54 CA         -9.4170  -24.2860   23.7275 C.3       3 GLC5        0.0000 
     55 CA         -9.8020  -24.8930   22.0870 C.3       6 GLP5        0.0000 
     56 CA         -5.8720  -24.0190   27.7755 C.3       3 GLC5        0.0000 
     57 CA         -7.2850  -25.2030   27.9400 C.3       9 GLL5        0.0000 
     58 CA         -4.4590  -22.8350   27.6110 C.3       6 GLP5        0.0000 
     59 CA        -10.9140  -25.8280   27.8090 C.3       3 GLC5        0.0000 
     60 CA         -8.7020  -25.7010   27.8850 C.3       9 GLL5        0.0000 
     61 CA        -13.1260  -25.9550   27.7330 C.3       6 GLP5        0.0000 
     62 N          -8.4735  -28.3300   27.1835 N.am      2 SEC2        0.0000 
     63 N          -7.9800  -27.1590   26.1200 N.am      8 SEL2        0.0000 
     64 N          -8.9670  -29.5010   28.2470 N.am      5 SEP2        0.0000 
     65 CA         -8.8795  -26.4985   24.6780 C.3       3 GLC5        0.0000 
     66 CA         -8.7670  -25.9980   26.4090 C.3       9 GLL5        0.0000 
     67 CA         -8.9920  -26.9990   22.9470 C.3       6 GLP5        0.0000 
     68 CA         -6.3310  -24.6115   25.2620 C.3       3 GLC5        0.0000 
     69 CA         -8.0730  -24.7670   25.8210 C.3       9 GLL5        0.0000 
     70 CA         -4.5890  -24.4560   24.7030 C.3       6 GLP5        0.0000 
     71 CA         -7.8765  -25.6825   24.2550 C.3       3 GLC5        0.0000 
     72 CA         -7.6800  -26.5980   22.6890 C.3       6 GLP5        0.0000 
     73 CA         -9.0623  -16.9460   30.5468 C.3       3 GLC5        0.0000 
     74 CA         -6.3060  -17.0370   25.1643 C.3       3 GLC5        0.0000 
     75 CA         -6.5920  -15.6650   27.1810 C.3       9 GLL5        0.0000 
     76 CA         -8.4530  -15.6995   23.9945 C.3       3 GLC5        0.0000 
     77 CA         -7.3620  -15.7890   25.8780 C.3       9 GLL5        0.0000 
     78 CA         -8.8430  -15.4020   21.9110 C.3       6 GLP5        0.0000 
     79 CA         -9.5182  -17.6047   28.0890 C.3       3 GLC5        0.0000 
     80 CA         -8.7640  -16.2050   26.2780 C.3       9 GLL5        0.0000 
     81 CA         -7.4028  -26.1280   29.8163 C.3       3 GLC5        0.0000 
     82 CA         -6.8120  -26.8040   31.7200 C.3       6 GLP5        0.0000 
     83 CA         -8.9282  -24.9780   29.6508 C.3       3 GLC5        0.0000 
     84 CA         -9.8630  -24.5040   31.3890 C.3       6 GLP5        0.0000 
     85 CA         -9.4207  -27.6707   26.6190 C.3       3 GLC5        0.0000 
     86 CA        -10.1070  -29.4920   26.0910 C.3       6 GLP5        0.0000 
@<TRIPOS>BOND
@<TRIPOS>SUBSTRUCTURE
     1 ALC1       23 GROUP        1 X    ALC  0     ROOT ALC X 1
     2 SEC2        1 GROUP        1 X    SEC  0     **** SEC X 2
     3 GLC5        4 GROUP        1 X    GLC  0     **** GLC X 6
     4 ALP1       25 GROUP        1 Y    ALP  0     ROOT ALP Y 8
     5 SEP2        3 GROUP        1 Y    SEP  0     **** SEP Y 9
     6 GLP5        6 GROUP        1 Y    GLP  0     **** GLP Y 13
     7 ALL1       24 GROUP        1 Z    ALL  0     ROOT ALL Z 15
     8 SEL2        2 GROUP        1 Z    SEL  0     **** SEL Z 16
     9 GLL5        5 GROUP        1 Z    GLL  0     **** GLL Z 20
@<TRIPOS>SET

