#    Name: 3gqo_APR_1_ligand
#    Modification time : Tue Mar 25 12:50:45 2014

@<TRIPOS>MOLECULE
3gqo_APR_1_ligand
   57    60     1     0     0
SMALL
NO_CHARGES


@<TRIPOS>ATOM
      1 N1         -9.3740  -14.7070   32.9450 N.ar      1 APR167      0.0000 
      2 C2         -9.7340  -14.0650   31.8130 C.ar      1 APR167      0.0000 
      3 N3         -9.1850  -14.3150   30.6090 N.ar      1 APR167      0.0000 
      4 C4         -8.2280  -15.2530   30.4950 C.ar      1 APR167      0.0000 
      5 C5         -7.7830  -15.9970   31.6780 C.ar      1 APR167      0.0000 
      6 C6         -8.4310  -15.6660   32.9530 C.ar      1 APR167      0.0000 
      7 N6         -8.0660  -16.2970   34.0860 N.pl3     1 APR167      0.0000 
      8 N7         -6.8280  -16.8490   31.2720 N.2       1 APR167      0.0000 
      9 C8         -6.6770  -16.6750   29.9310 C.2       1 APR167      0.0000 
     10 N9         -7.5130  -15.7210   29.4840 N.pl3     1 APR167      0.0000 
     11 C1'        -7.6940  -15.2290   28.1140 C.3       1 APR167      0.0000 
     12 C2'        -6.5920  -15.6650   27.1810 C.3       1 APR167      0.0000 
     13 O2'        -5.5540  -14.6880   27.1300 O.3       1 APR167      0.0000 
     14 C3'        -7.3620  -15.7890   25.8780 C.3       1 APR167      0.0000 
     15 O3'        -7.5130  -14.5200   25.2580 O.3       1 APR167      0.0000 
     16 O4'        -8.8820  -15.8680   27.6510 O.3       1 APR167      0.0000 
     17 C4'        -8.7640  -16.2050   26.2780 C.3       1 APR167      0.0000 
     18 C5'        -9.0710  -17.6800   26.0640 C.3       1 APR167      0.0000 
     19 O5'        -7.8750  -18.4410   26.1390 O.3       1 APR167      0.0000 
     20 PA         -7.8690  -19.9370   26.7000 P.3       1 APR167      0.0000 
     21 O1A        -8.2190  -19.8740   28.1640 O.co2     1 APR167      0.0000 
     22 O2A        -6.5640  -20.5450   26.2650 O.co2     1 APR167      0.0000 
     23 O3A        -9.0540  -20.6900   25.9210 O.3       1 APR167      0.0000 
     24 PB         -8.9240  -21.2490   24.4230 P.3       1 APR167      0.0000 
     25 O1B       -10.3210  -21.4490   23.9020 O.co2     1 APR167      0.0000 
     26 O2B        -7.9520  -20.4140   23.6550 O.co2     1 APR167      0.0000 
     27 O5D        -8.2940  -22.7050   24.6360 O.3       1 APR167      0.0000 
     28 C5D        -9.0320  -23.6790   25.3680 C.3       1 APR167      0.0000 
     29 O4D        -7.2210  -24.2710   26.8600 O.3       1 APR167      0.0000 
     30 O1D        -7.0620  -24.5850   29.1860 O.3       1 APR167      0.0000 
     31 C1D        -7.2850  -25.2030   27.9400 C.3       1 APR167      0.0000 
     32 O2D        -8.8930  -26.8270   28.7290 O.3       1 APR167      0.0000 
     33 C2D        -8.7020  -25.7010   27.8850 C.3       1 APR167      0.0000 
     34 O3D        -7.9800  -27.1590   26.1200 O.3       1 APR167      0.0000 
     35 C3D        -8.7670  -25.9980   26.4090 C.3       1 APR167      0.0000 
     36 C4D        -8.0730  -24.7670   25.8210 C.3       1 APR167      0.0000 
     37 H         -10.4944  -13.3198   31.8774 H         1 APR167      0.0000 
     38 H          -7.3576  -16.9964   33.9915 H         1 APR167      0.0000 
     39 H          -8.5360  -16.0097   34.9206 H         1 APR167      0.0000 
     40 H          -6.0468  -17.1773   29.3779 H         1 APR167      0.0000 
     41 H          -7.7989  -14.1802   28.0925 H         1 APR167      0.0000 
     42 H          -6.2756  -16.6302   27.4746 H         1 APR167      0.0000 
     43 H          -6.9458  -16.5171   25.2701 H         1 APR167      0.0000 
     44 H          -9.4653  -15.6113   25.6940 H         1 APR167      0.0000 
     45 H          -9.5598  -17.7816   25.0850 H         1 APR167      0.0000 
     46 H          -9.7985  -17.9850   26.8291 H         1 APR167      0.0000 
     47 H          -9.8080  -24.1452   24.7573 H         1 APR167      0.0000 
     48 H          -9.5015  -23.2510   26.2561 H         1 APR167      0.0000 
     49 H          -6.6434  -26.0336   27.7625 H         1 APR167      0.0000 
     50 H          -9.3372  -24.8749   28.0836 H         1 APR167      0.0000 
     51 H          -9.7431  -26.0298   26.0896 H         1 APR167      0.0000 
     52 H          -7.4767  -25.0928   24.9804 H         1 APR167      0.0000 
     53 H          -5.8301  -14.0549   26.4069 H         1 APR167      0.0000 
     54 H          -8.1282  -14.6807   24.4862 H         1 APR167      0.0000 
     55 H          -7.7429  -23.8544   29.2380 H         1 APR167      0.0000 
     56 H          -8.5343  -26.5466   29.6195 H         1 APR167      0.0000 
     57 H          -7.8659  -27.6198   27.0001 H         1 APR167      0.0000 
@<TRIPOS>BOND
     1    2    1 ar   
     2    6    1 ar   
     3    3    2 ar   
     4   37    2 1    
     5    4    3 ar   
     6    5    4 ar   
     7   10    4 1    
     8    6    5 ar   
     9    8    5 1    
    10    7    6 1    
    11   38    7 1    
    12   39    7 1    
    13    9    8 2    
    14   10    9 1    
    15   40    9 1    
    16   11   10 1    
    17   12   11 1    
    18   16   11 1    
    19   41   11 1    
    20   13   12 1    
    21   14   12 1    
    22   42   12 1    
    23   53   13 1    
    24   15   14 1    
    25   17   14 1    
    26   43   14 1    
    27   54   15 1    
    28   17   16 1    
    29   18   17 1    
    30   44   17 1    
    31   19   18 1    
    32   45   18 1    
    33   46   18 1    
    34   20   19 1    
    35   21   20 ar   
    36   22   20 ar   
    37   23   20 1    
    38   24   23 1    
    39   25   24 ar   
    40   26   24 ar   
    41   27   24 1    
    42   28   27 1    
    43   36   28 1    
    44   47   28 1    
    45   48   28 1    
    46   31   29 1    
    47   36   29 1    
    48   31   30 1    
    49   55   30 1    
    50   33   31 1    
    51   49   31 1    
    52   33   32 1    
    53   56   32 1    
    54   35   33 1    
    55   50   33 1    
    56   35   34 1    
    57   57   34 1    
    58   36   35 1    
    59   51   35 1    
    60   52   36 1    
@<TRIPOS>SUBSTRUCTURE
     1 APR167      1 GROUP   
@<TRIPOS>SET

