#    Name: 4abr_KIR_1_INTS_M
#    Modification time : Tue Mar 25 05:26:16 2014

@<TRIPOS>MOLECULE
4abr_KIR_1_INTS_M
   88     0     6     0     0
SMALL
NO_CHARGES


@<TRIPOS>ATOM
      1 CA         28.8640  114.1055   47.8610 C.3       2 GLC5        0.0000 
      2 CA         30.6730  114.5240   46.6050 C.3       6 GLL5        0.0000 
      3 CA         27.0550  113.6870   49.1170 C.3       4 GLP5        0.0000 
      4 CA         33.4445  112.8665   47.0135 C.3       2 GLC5        0.0000 
      5 CA         32.0390  113.8450   46.5100 C.3       6 GLL5        0.0000 
      6 CA         34.8500  111.8880   47.5170 C.3       4 GLP5        0.0000 
      7 CA         20.5715  113.0860   43.3205 C.3       2 GLC5        0.0000 
      8 CA         20.9160  113.3770   45.1610 C.3       6 GLL5        0.0000 
      9 CA         20.2270  112.7950   41.4800 C.3       4 GLP5        0.0000 
     10 CA         21.1800  114.8070   42.8275 C.3       2 GLC5        0.0000 
     11 CA         21.5830  115.6380   44.6580 C.3       6 GLL5        0.0000 
     12 CA         20.7770  113.9760   40.9970 C.3       4 GLP5        0.0000 
     13 CA         28.0315  114.8735   47.5445 C.3       2 GLC5        0.0000 
     14 CA         29.0080  116.0600   45.9720 C.3       6 GLL5        0.0000 
     15 O          24.0740  120.1105   42.6730 O.2       1 ALC1        0.0000 
     16 O          24.4300  118.7190   42.7500 O.2       5 ALL1        0.0000 
     17 O          23.7180  121.5020   42.5960 O.2       3 ALP1        0.0000 
     18 CA         24.8885  113.7765   43.6035 C.3       2 GLC5        0.0000 
     19 CA         25.9560  115.6320   44.1170 C.3       6 GLL5        0.0000 
     20 CA         23.8210  111.9210   43.0900 C.3       4 GLP5        0.0000 
     21 CA         27.2050  119.0800   49.3045 C.3       2 GLC5        0.0000 
     22 CA         27.2720  119.0780   47.4140 C.3       6 GLL5        0.0000 
     23 CA         27.1380  119.0820   51.1950 C.3       4 GLP5        0.0000 
     24 CA         29.4470  115.7540   43.2210 C.3       2 GLC5        0.0000 
     25 CA         29.1170  117.7870   44.0490 C.3       6 GLL5        0.0000 
     26 CA         29.7770  113.7210   42.3930 C.3       4 GLP5        0.0000 
     27 CA         37.9440  116.8985   44.5335 C.3       2 GLC5        0.0000 
     28 CA         36.9650  115.5620   43.2940 C.3       6 GLL5        0.0000 
     29 CA         38.9230  118.2350   45.7730 C.3       4 GLP5        0.0000 
     30 CA         37.3785  112.0200   39.8165 C.3       2 GLC5        0.0000 
     31 CA         36.7520  113.2020   41.3840 C.3       6 GLL5        0.0000 
     32 CA         38.0050  110.8380   38.2490 C.3       4 GLP5        0.0000 
     33 CA         35.3745  112.0640   40.6055 C.3       2 GLC5        0.0000 
     34 CA         33.9970  110.9260   39.8270 C.3       4 GLP5        0.0000 
     35 CA         38.3115  111.4595   40.3675 C.3       2 GLC5        0.0000 
     36 CA         38.6180  112.0810   42.4860 C.3       6 GLL5        0.0000 
     37 CA         40.5495  111.3705   42.3580 C.3       2 GLC5        0.0000 
     38 CA         42.4810  110.6600   42.2300 C.3       4 GLP5        0.0000 
     39 CA         36.8395  109.8435   45.0705 C.3       2 GLC5        0.0000 
     40 CA         35.9840  111.3840   43.7730 C.3       6 GLL5        0.0000 
     41 CA         37.6950  108.3030   46.3680 C.3       4 GLP5        0.0000 
     42 CA         33.3105  107.7075   43.7710 C.3       2 GLC5        0.0000 
     43 CA         32.8910  109.3720   44.2170 C.3       6 GLL5        0.0000 
     44 CA         33.7300  106.0430   43.3250 C.3       4 GLP5        0.0000 
     45 CA         33.3130  111.0635   46.1730 C.3       2 GLC5        0.0000 
     46 CA         31.7760  110.2390   44.8290 C.3       6 GLL5        0.0000 
     47 CA         30.9990  110.5395   46.5075 C.3       2 GLC5        0.0000 
     48 CA         30.2220  110.8400   48.1860 C.3       4 GLP5        0.0000 
     49 CA         22.5240  108.2523   44.0532 C.3       2 GLC5        0.0000 
     50 CA         21.1710  106.3510   44.6400 C.3       6 GLL5        0.0000 
     51 CA         24.1620  109.4870   43.6210 C.3       4 GLP5        0.0000 
     52 CA         19.3195  112.1130   43.3555 C.3       2 GLC5        0.0000 
     53 CA         18.9640  110.8570   45.2840 C.3       6 GLL5        0.0000 
     54 CA         30.5465  113.2593   44.7978 C.3       2 GLC5        0.0000 
     55 CA         29.7370  112.3340   43.0380 C.3       4 GLP5        0.0000 
     56 CA         30.7890  112.5122   47.3717 C.3       2 GLC5        0.0000 
     57 CA         22.2365  111.7950   44.4802 C.3       2 GLC5        0.0000 
     58 CA         20.9900  112.2910   46.0500 C.3       6 GLL5        0.0000 
     59 CA         22.5418  112.9565   44.2052 C.3       2 GLC5        0.0000 
     60 CA         21.3870  113.0405   47.1969 C.3       2 GLC5        0.0000 
     61 CA         21.9900  113.5580   48.8780 C.3       4 GLP5        0.0000 
     62 CA         22.3848  115.3974   46.7062 C.3       2 GLC5        0.0000 
     63 CA         21.6090  114.6070   45.4800 C.3       6 GLL5        0.0000 
     64 CA         22.8000  114.7660   48.3950 C.3       4 GLP5        0.0000 
     65 CA         22.3775  119.7285   42.5830 C.3       2 GLC5        0.0000 
     66 CA         22.3760  117.8640   43.7520 C.3       6 GLL5        0.0000 
     67 CA         21.7180  121.2610   41.3050 C.3       4 GLP5        0.0000 
     68 CA         25.9130  116.3870   42.3700 C.3       2 GLC5        0.0000 
     69 CA         25.9380  117.1680   44.4890 C.3       6 GLL5        0.0000 
     70 CA         25.8790  116.3740   40.4370 C.3       4 GLP5        0.0000 
     71 CA         29.7162  114.7485   44.1345 C.3       2 GLC5        0.0000 
     72 CA         31.5667  115.5701   47.7559 C.3       2 GLC5        0.0000 
     73 CA         30.3030  115.4920   45.7800 C.3       6 GLL5        0.0000 
     74 CA         32.3040  116.3020   49.3430 C.3       4 GLP5        0.0000 
     75 CA         36.0968  119.0513   45.0875 C.3       2 GLC5        0.0000 
     76 CA         34.0470  118.3190   45.2780 C.3       6 GLL5        0.0000 
     77 CA         37.5750  120.2310   45.0340 C.3       4 GLP5        0.0000 
     78 CA         35.5787  111.9783   45.6843 C.3       2 GLC5        0.0000 
     79 CA         36.6310  112.7530   43.9300 C.3       6 GLL5        0.0000 
     80 CA         34.6485  111.1508   45.7595 C.3       2 GLC5        0.0000 
     81 CA         34.7110  111.0630   44.0970 C.3       6 GLL5        0.0000 
     82 CA         35.1586  109.0369   42.7310 C.3       2 GLC5        0.0000 
     83 CA         35.5520  107.5800   41.5410 C.3       4 GLP5        0.0000 
     84 CA         34.3811  110.7099   41.8740 C.3       2 GLC5        0.0000 
     85 CA         34.1830  109.7640   43.9070 C.3       6 GLL5        0.0000 
     86 CA         31.0352  111.0697   43.7805 C.3       2 GLC5        0.0000 
     87 CA         32.0968  108.2447   45.5705 C.3       2 GLC5        0.0000 
     88 CA         31.8600  106.6840   46.6180 C.3       4 GLP5        0.0000 
@<TRIPOS>BOND
@<TRIPOS>SUBSTRUCTURE
     1 ALC1       15 GROUP        1 X    ALC  0     ROOT ALC X 1
     2 GLC5        1 GROUP        1 X    GLC  0     **** GLC X 6
     3 ALP1       17 GROUP        1 Y    ALP  0     ROOT ALP Y 8
     4 GLP5        3 GROUP        1 Y    GLP  0     **** GLP Y 13
     5 ALL1       16 GROUP        1 Z    ALL  0     ROOT ALL Z 15
     6 GLL5        2 GROUP        1 Z    GLL  0     **** GLL Z 20
@<TRIPOS>SET

