#    Name: 4abr_KIR_1_ligand
#    Modification time : Tue Mar 25 05:26:16 2014

@<TRIPOS>MOLECULE
4abr_KIR_1_ligand
  116   118     1     0     0
SMALL
NO_CHARGES


@<TRIPOS>ATOM
      1 C2         18.7380  107.0980   45.8740 C.2       1 KIR1406     0.0000 
      2 C3         19.3260  108.1260   44.9930 C.2       1 KIR1406     0.0000 
      3 C4         20.6010  107.6840   44.3310 C.2       1 KIR1406     0.0000 
      4 C5         21.1710  106.3510   44.6400 C.2       1 KIR1406     0.0000 
      5 C6         20.5060  105.5020   45.5460 C.2       1 KIR1406     0.0000 
      6 C7         18.4770  109.4110   44.9270 C.2       1 KIR1406     0.0000 
      7 C8         18.9640  110.8570   45.2840 C.2       1 KIR1406     0.0000 
      8 C20        27.0360  117.4500   45.6370 C.3       1 KIR1406     0.0000 
      9 C21        28.4380  117.0510   45.2230 C.2       1 KIR1406     0.0000 
     10 C24        30.6730  114.5240   46.6050 C.2       1 KIR1406     0.0000 
     11 C25        32.0390  113.8450   46.5100 C.3       1 KIR1406     0.0000 
     12 O4         21.2160  108.4550   43.4960 O.co2     1 KIR1406     0.0000 
     13 O7         17.2420  109.1790   44.5980 O.2       1 KIR1406     0.0000 
     14 C9         20.3140  111.0470   45.6910 C.2       1 KIR1406     0.0000 
     15 C10        20.9900  112.2910   46.0500 C.2       1 KIR1406     0.0000 
     16 C11        20.9160  113.3770   45.1610 C.2       1 KIR1406     0.0000 
     17 C12        21.6090  114.6070   45.4800 C.2       1 KIR1406     0.0000 
     18 C13        21.5830  115.6380   44.6580 C.2       1 KIR1406     0.0000 
     19 C14        22.3430  116.9350   44.9660 C.3       1 KIR1406     0.0000 
     20 C15        22.3760  117.8640   43.7520 C.3       1 KIR1406     0.0000 
     21 C16        23.6980  118.5280   43.9700 C.3       1 KIR1406     0.0000 
     22 C17        24.4650  117.6370   45.0000 C.3       1 KIR1406     0.0000 
     23 C19        25.9380  117.1680   44.4890 C.3       1 KIR1406     0.0000 
     24 C22        29.0080  116.0600   45.9720 C.2       1 KIR1406     0.0000 
     25 C23        30.3030  115.4920   45.7800 C.2       1 KIR1406     0.0000 
     26 O15        22.2850  117.1360   42.4840 O.3       1 KIR1406     0.0000 
     27 N1         19.3350  105.8690   46.0970 N.am      1 KIR1406     0.0000 
     28 O2         17.6120  107.3460   46.4710 O.2       1 KIR1406     0.0000 
     29 C41        17.8600  112.0050   45.1780 C.3       1 KIR1406     0.0000 
     30 O16        24.4300  118.7190   42.7500 O.3       1 KIR1406     0.0000 
     31 O18        23.7400  116.6670   45.2520 O.3       1 KIR1406     0.0000 
     32 C42        25.9560  115.6320   44.1170 C.3       1 KIR1406     0.0000 
     33 O20        27.0740  118.8610   45.9960 O.3       1 KIR1406     0.0000 
     34 C43        27.2720  119.0780   47.4140 C.3       1 KIR1406     0.0000 
     35 C44        29.1170  117.7870   44.0490 C.3       1 KIR1406     0.0000 
     36 N26        32.8860  114.4520   45.4880 N.am      1 KIR1406     0.0000 
     37 C27        33.9650  115.3300   45.7980 C.2       1 KIR1406     0.0000 
     38 O27        34.2800  115.6400   46.9480 O.2       1 KIR1406     0.0000 
     39 C45        35.1900  117.4240   45.0040 C.3       1 KIR1406     0.0000 
     40 C46        34.0470  118.3190   45.2780 C.3       1 KIR1406     0.0000 
     41 C28        34.7370  115.9140   44.6840 C.3       1 KIR1406     0.0000 
     42 C29        36.0020  115.0020   44.4300 C.3       1 KIR1406     0.0000 
     43 O29        36.7060  114.8980   45.7050 O.3       1 KIR1406     0.0000 
     44 C30        36.9650  115.5620   43.2940 C.3       1 KIR1406     0.0000 
     45 O30        36.3940  115.7180   42.2940 O.3       1 KIR1406     0.0000 
     46 C31        38.1240  114.5270   43.0940 C.3       1 KIR1406     0.0000 
     47 O31        39.0220  114.9140   42.0780 O.3       1 KIR1406     0.0000 
     48 C32        37.5510  113.1150   42.7370 C.3       1 KIR1406     0.0000 
     49 C47        36.7520  113.2020   41.3840 C.3       1 KIR1406     0.0000 
     50 C48        38.6180  112.0810   42.4860 C.3       1 KIR1406     0.0000 
     51 C33        36.6310  112.7530   43.9300 C.3       1 KIR1406     0.0000 
     52 O34        35.6960  113.5980   44.1760 O.3       1 KIR1406     0.0000 
     53 C35        35.9840  111.3840   43.7730 C.2       1 KIR1406     0.0000 
     54 C36        34.7110  111.0630   44.0970 C.2       1 KIR1406     0.0000 
     55 C37        34.1830  109.7640   43.9070 C.2       1 KIR1406     0.0000 
     56 C38        32.8910  109.3720   44.2170 C.2       1 KIR1406     0.0000 
     57 C39        31.7760  110.2390   44.8290 C.3       1 KIR1406     0.0000 
     58 H          22.0311  106.0840   44.1873 H         1 KIR1406     0.0000 
     59 H          20.9466  104.5901   45.7727 H         1 KIR1406     0.0000 
     60 H          26.7463  116.8561   46.4975 H         1 KIR1406     0.0000 
     61 H          30.0772  114.1538   47.3694 H         1 KIR1406     0.0000 
     62 H          31.8741  112.7763   46.2961 H         1 KIR1406     0.0000 
     63 H          32.5187  113.9047   47.5007 H         1 KIR1406     0.0000 
     64 H          20.9287  110.1671   45.7458 H         1 KIR1406     0.0000 
     65 H          21.4903  112.3439   46.9190 H         1 KIR1406     0.0000 
     66 H          20.3870  113.3182   44.2994 H         1 KIR1406     0.0000 
     67 H          22.1202  114.6223   46.3861 H         1 KIR1406     0.0000 
     68 H          21.0664  115.6641   43.7637 H         1 KIR1406     0.0000 
     69 H          21.8813  117.4487   45.7722 H         1 KIR1406     0.0000 
     70 H          21.6062  118.5856   43.8830 H         1 KIR1406     0.0000 
     71 H          23.5131  119.4776   44.4796 H         1 KIR1406     0.0000 
     72 H          24.6720  118.3015   45.8630 H         1 KIR1406     0.0000 
     73 H          26.1947  117.7435   43.6374 H         1 KIR1406     0.0000 
     74 H          28.4453  115.6542   46.7895 H         1 KIR1406     0.0000 
     75 H          30.8824  115.8502   45.0254 H         1 KIR1406     0.0000 
     76 H          18.8294  105.1920   46.7389 H         1 KIR1406     0.0000 
     77 H          32.6831  114.2266   44.5012 H         1 KIR1406     0.0000 
     78 H          35.8700  117.3666   45.8608 H         1 KIR1406     0.0000 
     79 H          35.7670  117.7628   44.1368 H         1 KIR1406     0.0000 
     80 H          34.1633  115.9311   43.7809 H         1 KIR1406     0.0000 
     81 H          37.4558  116.4307   43.7692 H         1 KIR1406     0.0000 
     82 H          38.6288  114.4180   44.0541 H         1 KIR1406     0.0000 
     83 H          37.3286  112.6296   44.8117 H         1 KIR1406     0.0000 
     84 H          36.6442  110.6607   43.3676 H         1 KIR1406     0.0000 
     85 H          34.0702  111.7849   44.5059 H         1 KIR1406     0.0000 
     86 H          34.8400  109.0386   43.4922 H         1 KIR1406     0.0000 
     87 H          32.5802  108.3746   44.0335 H         1 KIR1406     0.0000 
     88 H          18.2329  112.9019   45.4156 H         1 KIR1406     0.0000 
     89 H          17.4878  112.0781   44.2527 H         1 KIR1406     0.0000 
     90 H          17.0887  111.8363   45.7917 H         1 KIR1406     0.0000 
     91 H          26.8497  115.3436   43.7732 H         1 KIR1406     0.0000 
     92 H          25.7460  115.0560   44.9071 H         1 KIR1406     0.0000 
     93 H          25.2850  115.4136   43.4085 H         1 KIR1406     0.0000 
     94 H          28.1340  118.6841   47.7332 H         1 KIR1406     0.0000 
     95 H          27.2926  120.0516   47.6414 H         1 KIR1406     0.0000 
     96 H          26.5418  118.6652   47.9584 H         1 KIR1406     0.0000 
     97 H          30.0350  117.4332   43.8700 H         1 KIR1406     0.0000 
     98 H          28.5961  117.6929   43.2006 H         1 KIR1406     0.0000 
     99 H          29.2101  118.7663   44.2287 H         1 KIR1406     0.0000 
    100 H          34.3456  119.2524   45.4772 H         1 KIR1406     0.0000 
    101 H          33.4213  118.3713   44.4997 H         1 KIR1406     0.0000 
    102 H          33.5121  118.0084   46.0637 H         1 KIR1406     0.0000 
    103 H          37.3320  113.5084   40.6292 H         1 KIR1406     0.0000 
    104 H          36.3711  112.3159   41.1200 H         1 KIR1406     0.0000 
    105 H          35.9872  113.8434   41.4449 H         1 KIR1406     0.0000 
    106 H          39.2124  112.3381   41.7241 H         1 KIR1406     0.0000 
    107 H          39.2051  111.9517   43.2851 H         1 KIR1406     0.0000 
    108 H          38.2254  111.1887   42.2633 H         1 KIR1406     0.0000 
    109 H          32.0350  110.5987   45.7254 H         1 KIR1406     0.0000 
    110 H          31.5563  111.0244   44.2503 H         1 KIR1406     0.0000 
    111 H          30.9296  109.7214   44.9543 H         1 KIR1406     0.0000 
    112 H          23.1830  117.2455   42.0578 H         1 KIR1406     0.0000 
    113 H          24.3297  119.6910   42.5376 H         1 KIR1406     0.0000 
    114 H          36.2633  115.5685   46.3003 H         1 KIR1406     0.0000 
    115 H          37.0814  115.5848   41.5801 H         1 KIR1406     0.0000 
    116 H          39.7086  115.4756   42.5397 H         1 KIR1406     0.0000 
@<TRIPOS>BOND
     1    2    1 1    
     2   27    1 am   
     3   28    1 2    
     4    3    2 2    
     5    6    2 1    
     6    4    3 1    
     7   12    3 1    
     8    5    4 2    
     9   58    4 1    
    10   27    5 1    
    11   59    5 1    
    12    7    6 1    
    13   13    6 2    
    14   14    7 2    
    15   29    7 1    
    16    9    8 1    
    17   23    8 1    
    18   33    8 1    
    19   60    8 1    
    20   24    9 2    
    21   35    9 1    
    22   11   10 1    
    23   25   10 2    
    24   61   10 1    
    25   36   11 1    
    26   62   11 1    
    27   63   11 1    
    28   15   14 1    
    29   64   14 1    
    30   16   15 2    
    31   65   15 1    
    32   17   16 1    
    33   66   16 1    
    34   18   17 2    
    35   67   17 1    
    36   19   18 1    
    37   68   18 1    
    38   20   19 1    
    39   31   19 1    
    40   69   19 1    
    41   21   20 1    
    42   26   20 1    
    43   70   20 1    
    44   22   21 1    
    45   30   21 1    
    46   71   21 1    
    47   23   22 1    
    48   31   22 1    
    49   72   22 1    
    50   32   23 1    
    51   73   23 1    
    52   25   24 1    
    53   74   24 1    
    54   75   25 1    
    55  112   26 1    
    56   76   27 1    
    57   88   29 1    
    58   89   29 1    
    59   90   29 1    
    60  113   30 1    
    61   91   32 1    
    62   92   32 1    
    63   93   32 1    
    64   34   33 1    
    65   94   34 1    
    66   95   34 1    
    67   96   34 1    
    68   97   35 1    
    69   98   35 1    
    70   99   35 1    
    71   37   36 am   
    72   77   36 1    
    73   38   37 2    
    74   41   37 1    
    75   40   39 1    
    76   41   39 1    
    77   78   39 1    
    78   79   39 1    
    79  100   40 1    
    80  101   40 1    
    81  102   40 1    
    82   42   41 1    
    83   80   41 1    
    84   43   42 1    
    85   44   42 1    
    86   52   42 1    
    87  114   43 1    
    88   45   44 1    
    89   46   44 1    
    90   81   44 1    
    91  115   45 1    
    92   47   46 1    
    93   48   46 1    
    94   82   46 1    
    95  116   47 1    
    96   49   48 1    
    97   50   48 1    
    98   51   48 1    
    99  103   49 1    
   100  104   49 1    
   101  105   49 1    
   102  106   50 1    
   103  107   50 1    
   104  108   50 1    
   105   52   51 1    
   106   53   51 1    
   107   83   51 1    
   108   54   53 2    
   109   84   53 1    
   110   55   54 1    
   111   85   54 1    
   112   56   55 2    
   113   86   55 1    
   114   57   56 1    
   115   87   56 1    
   116  109   57 1    
   117  110   57 1    
   118  111   57 1    
@<TRIPOS>SUBSTRUCTURE
     1 KIR1406     1 GROUP   
@<TRIPOS>SET

