#    Name: 2WHR_2_CAVITY_N1_6.mol2
#    Modification time : Mon Mar 10 19:58:45 2014

@<TRIPOS>MOLECULE
2WHR_2_CAVITY_N1_6.mol2
  125     0     6     0     0
SMALL
NO_CHARGES


@<TRIPOS>ATOM
      1 CA          6.3320   -2.6568  -35.1643 C.3       5 GLY6        0.0000 
      2 CA          7.0698   -2.8018  -36.4622 C.3       5 GLY6        0.0000 
      3 DU          7.8077   -2.9468  -37.7601 H         6 CUB7        0.0000 
      4 CA          8.5455   -3.0917  -39.0580 C.3       5 GLY6        0.0000 
      5 CZ          5.0903   -3.1967  -35.8099 C.ar      4 PHE5        0.0000 
      6 DU          5.8281   -3.3416  -37.1078 H         6 CUB7        0.0000 
      7 DU          6.5660   -3.4866  -38.4057 H         6 CUB7        0.0000 
      8 CA          7.3038   -3.6316  -39.7036 C.3       5 GLY6        0.0000 
      9 O           3.8486   -3.7365  -36.4555 O.2       2 ALA2        0.0000 
     10 CA          4.5865   -3.8815  -37.7534 C.3       5 GLY6        0.0000 
     11 CA          5.3243   -4.0264  -39.0513 C.3       5 GLY6        0.0000 
     12 CA          6.0621   -4.1714  -40.3492 C.3       5 GLY6        0.0000 
     13 OG          8.6447   -1.0150  -37.5001 O.2       1 SER1        0.0000 
     14 CA          6.6651   -1.4098  -36.8477 C.3       5 GLY6        0.0000 
     15 O           7.4030   -1.5548  -38.1457 O.2       2 ALA2        0.0000 
     16 N           4.6856   -1.8047  -36.1954 N.2       2 ALA2        0.0000 
     17 DU          5.4234   -1.9497  -37.4933 H         6 CUB7        0.0000 
     18 CA          6.1613   -2.0946  -38.7912 C.3       5 GLY6        0.0000 
     19 CZ          3.4439   -2.3445  -36.8410 C.ar      4 PHE5        0.0000 
     20 CZ          4.1818   -2.4895  -38.1389 C.ar      4 PHE5        0.0000 
     21 CZ          4.9196   -2.6345  -39.4368 C.ar      4 PHE5        0.0000 
     22 CA          5.6574   -2.7794  -40.7347 C.3       5 GLY6        0.0000 
     23 CA          4.4157   -3.3192  -41.3803 C.3       5 GLY6        0.0000 
     24 O          17.4878  -12.2131  -34.6892 O.2       2 ALA2        0.0000 
     25 CZ         15.5082  -12.6080  -34.0369 C.ar      4 PHE5        0.0000 
     26 CZ         16.2461  -12.7530  -35.3348 C.ar      4 PHE5        0.0000 
     27 CZ         11.1005   -4.6510  -35.6979 C.ar      4 PHE5        0.0000 
     28 CZ          8.3831   -4.9009  -33.7476 C.ar      4 PHE5        0.0000 
     29 CZ          9.1209   -5.0459  -35.0455 C.ar      4 PHE5        0.0000 
     30 OG          9.8588   -5.1909  -36.3434 O.2       1 SER1        0.0000 
     31 CZ          7.8793   -5.5857  -35.6911 C.ar      4 PHE5        0.0000 
     32 OG          8.6171   -5.7307  -36.9890 O.2       1 SER1        0.0000 
     33 CZ          6.6376   -6.1256  -36.3367 C.ar      4 PHE5        0.0000 
     34 OG          7.3754   -6.2705  -37.6346 O.2       1 SER1        0.0000 
     35 OG          6.1337   -6.8104  -38.2802 O.2       1 SER1        0.0000 
     36 OG          6.8715   -6.9553  -39.5781 O.2       1 SER1        0.0000 
     37 OG          7.6094   -7.1003  -40.8760 O.2       1 SER1        0.0000 
     38 CA          4.8920   -7.3502  -38.9258 C.3       5 GLY6        0.0000 
     39 CA          5.6299   -7.4951  -40.2237 C.3       5 GLY6        0.0000 
     40 N           6.3677   -7.6401  -41.5216 N.2       2 ALA2        0.0000 
     41 CZ         12.7469   -5.5032  -34.6667 C.ar      4 PHE5        0.0000 
     42 CZ         10.7673   -5.8980  -34.0144 C.ar      4 PHE5        0.0000 
     43 CZ         11.5052   -6.0430  -35.3123 C.ar      4 PHE5        0.0000 
     44 CZ         12.2430   -6.1880  -36.6102 C.ar      4 PHE5        0.0000 
     45 CZ          9.5257   -6.4379  -34.6600 C.ar      4 PHE5        0.0000 
     46 OG         10.2635   -6.5828  -35.9579 O.2       1 SER1        0.0000 
     47 CZ          8.2840   -6.9777  -35.3056 C.ar      4 PHE5        0.0000 
     48 OG          9.0218   -7.1227  -36.6035 O.2       1 SER1        0.0000 
     49 OG          7.7801   -7.6625  -37.2491 O.2       1 SER1        0.0000 
     50 NZ          6.5384   -8.2023  -37.8947 N.2       3 LYS4        0.0000 
     51 NZ          7.2763   -8.3473  -39.1926 N.2       3 LYS4        0.0000 
     52 OG          8.0141   -8.4923  -40.4905 O.2       1 SER1        0.0000 
     53 CA          5.2967   -8.7421  -38.5402 C.3       5 GLY6        0.0000 
     54 CA          6.0346   -8.8871  -39.8382 C.3       5 GLY6        0.0000 
     55 CA          6.7724   -9.0321  -41.1361 C.3       5 GLY6        0.0000 
     56 CA         14.7980   -7.7473  -33.2501 C.3       5 GLY6        0.0000 
     57 N          15.5358   -7.8923  -34.5480 N.2       2 ALA2        0.0000 
     58 CA         12.8184   -8.1422  -32.5977 C.3       5 GLY6        0.0000 
     59 CA         13.5563   -8.2871  -33.8956 C.3       5 GLY6        0.0000 
     60 CZ         14.2941   -8.4321  -35.1935 C.ar      4 PHE5        0.0000 
     61 CA         12.3146   -8.8269  -34.5412 C.3       5 GLY6        0.0000 
     62 CZ         13.0524   -8.9719  -35.8391 C.ar      4 PHE5        0.0000 
     63 CA         16.0038   -9.5518  -41.0308 C.3       5 GLY6        0.0000 
     64 CZ         11.8107   -9.5117  -36.4847 C.ar      4 PHE5        0.0000 
     65 CZ         13.2864   -9.8017  -39.0805 C.ar      4 PHE5        0.0000 
     66 CZ         14.0243   -9.9467  -40.3785 C.ar      4 PHE5        0.0000 
     67 NZ         10.5690  -10.0516  -37.1303 N.2       3 LYS4        0.0000 
     68 CZ         11.3069  -10.1965  -38.4282 C.ar      4 PHE5        0.0000 
     69 CZ         12.0447  -10.3415  -39.7261 C.ar      4 PHE5        0.0000 
     70 N           6.2604   -0.0179  -37.2333 N.2       2 ALA2        0.0000 
     71 CA          4.2809   -0.4127  -36.5810 C.3       5 GLY6        0.0000 
     72 NZ          5.0187   -0.5577  -37.8789 N.2       3 LYS4        0.0000 
     73 O           5.7566   -0.7027  -39.1768 O.2       2 ALA2        0.0000 
     74 CZ          3.7770   -1.0975  -38.5245 C.ar      4 PHE5        0.0000 
     75 CZ          4.5149   -1.2425  -39.8224 C.ar      4 PHE5        0.0000 
     76 N           5.2527   -1.3875  -41.1203 N.2       2 ALA2        0.0000 
     77 O          18.3248  -10.2813  -34.4292 O.2       2 ALA2        0.0000 
     78 O          19.0626  -10.4263  -35.7271 O.2       2 ALA2        0.0000 
     79 N          15.6074  -10.5312  -32.4790 N.2       2 ALA2        0.0000 
     80 CZ         16.3452  -10.6762  -33.7769 C.ar      4 PHE5        0.0000 
     81 CA         17.9201   -8.8894  -34.8147 C.3       5 GLY6        0.0000 
     82 N          15.2027   -9.1393  -32.8645 N.2       2 ALA2        0.0000 
     83 O          15.9405   -9.2842  -34.1624 O.2       2 ALA2        0.0000 
     84 N          13.9610   -9.6791  -33.5101 N.2       2 ALA2        0.0000 
     85 O          14.3933   -6.3553  -33.6356 O.2       2 ALA2        0.0000 
     86 N          15.1311   -6.5003  -34.9335 N.2       2 ALA2        0.0000 
     87 CZ         12.4137   -6.7502  -32.9833 C.ar      4 PHE5        0.0000 
     88 O          13.1516   -6.8952  -34.2812 O.2       2 ALA2        0.0000 
     89 CZ         13.8894   -7.0401  -35.5791 C.ar      4 PHE5        0.0000 
     90 N          14.6273   -7.1851  -36.8770 N.2       2 ALA2        0.0000 
     91 CA         11.1720   -7.2900  -33.6289 C.3       5 GLY6        0.0000 
     92 CA         11.9099   -7.4350  -34.9268 C.3       5 GLY6        0.0000 
     93 CZ         12.6477   -7.5799  -36.2247 C.ar      4 PHE5        0.0000 
     94 CZ         13.3856   -7.7249  -37.5226 C.ar      4 PHE5        0.0000 
     95 CZ         14.1234   -7.8699  -38.8205 C.ar      4 PHE5        0.0000 
     96 CZ         14.8613   -8.0149  -40.1184 C.ar      4 PHE5        0.0000 
     97 NZ         15.5991   -8.1598  -41.4163 N.2       3 LYS4        0.0000 
     98 CZ          9.9304   -7.8298  -34.2744 C.ar      4 PHE5        0.0000 
     99 CZ         10.6682   -7.9748  -35.5724 C.ar      4 PHE5        0.0000 
    100 OG         11.4060   -8.1198  -36.8703 O.2       1 SER1        0.0000 
    101 OG         12.1439   -8.2647  -38.1682 O.2       1 SER1        0.0000 
    102 CZ         12.8817   -8.4097  -39.4661 C.ar      4 PHE5        0.0000 
    103 CZ         13.6196   -8.5547  -40.7640 C.ar      4 PHE5        0.0000 
    104 NZ         14.3574   -8.6997  -42.0619 N.2       3 LYS4        0.0000 
    105 CZ          9.4265   -8.5146  -36.2179 C.ar      4 PHE5        0.0000 
    106 OG         10.1643   -8.6596  -37.5159 O.2       1 SER1        0.0000 
    107 CZ         10.6958   -3.2591  -36.0834 C.ar      4 PHE5        0.0000 
    108 CZ          7.9784   -3.5090  -34.1332 C.ar      4 PHE5        0.0000 
    109 CZ          8.7162   -3.6539  -35.4311 C.ar      4 PHE5        0.0000 
    110 CZ          9.4541   -3.7989  -36.7290 C.ar      4 PHE5        0.0000 
    111 OG         10.1919   -3.9439  -38.0269 O.2       1 SER1        0.0000 
    112 CZ          6.7367   -4.0488  -34.7787 C.ar      4 PHE5        0.0000 
    113 CZ          7.4745   -4.1938  -36.0767 C.ar      4 PHE5        0.0000 
    114 OG          8.2124   -4.3387  -37.3746 O.2       1 SER1        0.0000 
    115 OG          8.9502   -4.4837  -38.6725 O.2       1 SER1        0.0000 
    116 CZ          6.2329   -4.7336  -36.7222 C.ar      4 PHE5        0.0000 
    117 OG          6.9707   -4.8786  -38.0202 O.2       1 SER1        0.0000 
    118 OG          4.9912   -5.2734  -37.3678 O.2       1 SER1        0.0000 
    119 CA          6.4668   -5.5634  -39.9637 C.3       5 GLY6        0.0000 
    120 N           5.9630   -6.2482  -41.9072 N.2       2 ALA2        0.0000 
    121 CZ         10.2911   -1.8671  -36.4689 C.ar      4 PHE5        0.0000 
    122 O          11.0289   -2.0121  -37.7668 O.2       2 ALA2        0.0000 
    123 CZ          8.3115   -2.2620  -35.8166 C.ar      4 PHE5        0.0000 
    124 CZ          9.0494   -2.4069  -37.1145 C.ar      4 PHE5        0.0000 
    125 O           9.7872   -2.5519  -38.4124 O.2       2 ALA2        0.0000 
@<TRIPOS>BOND
@<TRIPOS>SUBSTRUCTURE
     1 SER1       13 GROUP   
     2 ALA2        9 GROUP   
     3 LYS4       50 GROUP   
     4 PHE5        5 GROUP   
     5 GLY6        1 GROUP   
     6 CUB7        3 GROUP   
@<TRIPOS>SET

