#    Name: 2whr_K27_2_ligand
#    Modification time : Tue Mar 25 04:22:45 2014

@<TRIPOS>MOLECULE
2whr_K27_2_ligand
   39    40     1     0     0
SMALL
NO_CHARGES


@<TRIPOS>ATOM
      1 C1          9.9360   -8.0080  -35.5970 C.3       1 K271545     0.0000 
      2 C5A         7.2400   -4.7540  -35.5400 C.ar      1 K271545     0.0000 
      3 O10         4.3200   -2.4950  -35.6520 O.3       1 K271545     0.0000 
      4 N9          5.1150   -3.6360  -35.7540 N.2       1 K271545     0.0000 
      5 C8          6.3390   -3.5770  -35.4560 C.2       1 K271545     0.0000 
      6 C4          8.3280   -4.8140  -34.6840 C.ar      1 K271545     0.0000 
      7 C3          9.1830   -5.9040  -34.7350 C.ar      1 K271545     0.0000 
      8 N2          8.9880   -6.8920  -35.6120 N.pl3     1 K271545     0.0000 
      9 C7          7.9400   -6.8680  -36.4530 C.ar      1 K271545     0.0000 
     10 C6          7.0430   -5.7970  -36.4430 C.ar      1 K271545     0.0000 
     11 C2         10.9170   -7.8810  -36.7500 C.3       1 K271545     0.0000 
     12 C5         12.0970   -8.8250  -36.5560 C.3       1 K271545     0.0000 
     13 N8         13.1070   -8.5220  -37.5710 N.pl3     1 K271545     0.0000 
     14 C9         14.2130   -7.8640  -37.1880 C.ar      1 K271545     0.0000 
     15 C10        15.2060   -7.5470  -38.1100 C.ar      1 K271545     0.0000 
     16 C11        15.0390   -7.9100  -39.4400 C.ar      1 K271545     0.0000 
     17 C12        13.8950   -8.6100  -39.8140 C.ar      1 K271545     0.0000 
     18 C13        12.9290   -8.9040  -38.8500 C.ar      1 K271545     0.0000 
     19 C14        16.1160   -7.5720  -40.4280 C.2       1 K271545     0.0000 
     20 N15        16.3120   -8.3510  -41.4940 N.am      1 K271545     0.0000 
     21 O3         16.7650   -6.5530  -40.2450 O.2       1 K271545     0.0000 
     22 H           9.4104   -8.9636  -35.6917 H         1 K271545     0.0000 
     23 H          10.5015   -8.0229  -34.6598 H         1 K271545     0.0000 
     24 H           6.8309   -2.7023  -35.1247 H         1 K271545     0.0000 
     25 H           8.5006   -4.0539  -34.0141 H         1 K271545     0.0000 
     26 H           9.9868   -5.9322  -34.0668 H         1 K271545     0.0000 
     27 H           7.7747   -7.6427  -37.1265 H         1 K271545     0.0000 
     28 H           6.2533   -5.7801  -37.0899 H         1 K271545     0.0000 
     29 H          11.2820   -6.8562  -36.8038 H         1 K271545     0.0000 
     30 H          10.4120   -8.1246  -37.6838 H         1 K271545     0.0000 
     31 H          11.7416   -9.8477  -36.6538 H         1 K271545     0.0000 
     32 H          12.4954   -8.6796  -35.5550 H         1 K271545     0.0000 
     33 H          14.3494   -7.5785  -36.1962 H         1 K271545     0.0000 
     34 H          16.0498   -7.0517  -37.8099 H         1 K271545     0.0000 
     35 H          13.7624   -8.9061  -40.7831 H         1 K271545     0.0000 
     36 H          12.0781   -9.4198  -39.1423 H         1 K271545     0.0000 
     37 H          15.7044   -9.1406  -41.5797 H         1 K271545     0.0000 
     38 H          17.0488   -8.0750  -42.1112 H         1 K271545     0.0000 
     39 H           4.2517   -2.3141  -34.6709 H         1 K271545     0.0000 
@<TRIPOS>BOND
     1    8    1 1    
     2   11    1 1    
     3   22    1 1    
     4   23    1 1    
     5    5    2 1    
     6    6    2 ar   
     7   10    2 ar   
     8    4    3 1    
     9   39    3 1    
    10    5    4 2    
    11   24    5 1    
    12    7    6 ar   
    13   25    6 1    
    14    8    7 ar   
    15   26    7 1    
    16    9    8 ar   
    17   10    9 ar   
    18   27    9 1    
    19   28   10 1    
    20   12   11 1    
    21   29   11 1    
    22   30   11 1    
    23   13   12 1    
    24   31   12 1    
    25   32   12 1    
    26   14   13 ar   
    27   18   13 ar   
    28   15   14 ar   
    29   33   14 1    
    30   16   15 ar   
    31   34   15 1    
    32   17   16 ar   
    33   19   16 1    
    34   18   17 ar   
    35   35   17 1    
    36   36   18 1    
    37   20   19 am   
    38   21   19 2    
    39   37   20 1    
    40   38   20 1    
@<TRIPOS>SUBSTRUCTURE
     1 K271545     1 GROUP   
@<TRIPOS>SET

