#    Name: 1b8s_FAD_1_INTS_M
#    Modification time : Mon Mar 24 19:27:35 2014

@<TRIPOS>MOLECULE
1b8s_FAD_1_INTS_M
  126     0     9     0     0
SMALL
NO_CHARGES


@<TRIPOS>ATOM
      1 N          19.9775   -0.7970   22.7950 N.am      2 SEC2        0.0000 
      2 N          21.3790   -0.4730   22.8340 N.am      8 SEL2        0.0000 
      3 N          18.5760   -1.1210   22.7560 N.am      5 SEP2        0.0000 
      4 CA         23.3915    2.8310   24.9985 C.3       3 GLC5        0.0000 
      5 CA         21.8530    1.7150   25.8120 C.3       9 GLL5        0.0000 
      6 CA         24.9300    3.9470   24.1850 C.3       6 GLP5        0.0000 
      7 CA         21.9135    0.9485   28.8890 C.3       3 GLC5        0.0000 
      8 CA         21.0090    1.3970   27.0770 C.3       9 GLL5        0.0000 
      9 CA         22.8180    0.5000   30.7010 C.3       6 GLP5        0.0000 
     10 O          18.9205    0.2645   28.8045 O.2       1 ALC1        0.0000 
     11 O          18.6750    0.6010   27.4550 O.2       7 ALL1        0.0000 
     12 O          19.1660   -0.0720   30.1540 O.2       4 ALP1        0.0000 
     13 CA         17.5430    4.2710   27.3220 C.3       3 GLC5        0.0000 
     14 CA         19.3200    3.0130   27.7080 C.3       9 GLL5        0.0000 
     15 CA         15.7660    5.5290   26.9360 C.3       6 GLP5        0.0000 
     16 O          17.7580    2.2555   29.2190 O.2       1 ALC1        0.0000 
     17 O          18.0370    3.1750   28.2430 O.2       7 ALL1        0.0000 
     18 O          17.4790    1.3360   30.1950 O.2       4 ALP1        0.0000 
     19 CA         21.5630    1.6690   29.7630 C.3       3 GLC5        0.0000 
     20 CA         20.3080    2.8380   28.8250 C.3       9 GLL5        0.0000 
     21 CA         22.4540    3.2885   28.4005 C.3       3 GLC5        0.0000 
     22 CA         24.6000    3.7390   27.9760 C.3       6 GLP5        0.0000 
     23 CA         20.5885    7.3780   33.0570 C.3       3 GLC5        0.0000 
     24 CA         21.8700    6.2430   32.0840 C.3       9 GLL5        0.0000 
     25 CA         19.3070    8.5130   34.0300 C.3       6 GLP5        0.0000 
     26 CA         23.0355    6.4585   33.9955 C.3       3 GLC5        0.0000 
     27 CA         24.2010    6.6740   35.9070 C.3       6 GLP5        0.0000 
     28 O          22.5925    8.3080   33.4905 O.2       1 ALC1        0.0000 
     29 O          22.3460    7.4580   32.2590 O.2       7 ALL1        0.0000 
     30 O          22.8390    9.1580   34.7220 O.2       4 ALP1        0.0000 
     31 N          21.6860    6.1235   34.4995 N.am      2 SEC2        0.0000 
     32 N          21.6640    5.3980   33.1440 N.am      8 SEL2        0.0000 
     33 N          21.7080    6.8490   35.8550 N.am      5 SEP2        0.0000 
     34 CA         23.0765    4.0400   32.9860 C.3       3 GLC5        0.0000 
     35 CA         21.1780    4.1330   32.9920 C.3       9 GLL5        0.0000 
     36 CA         24.9750    3.9470   32.9800 C.3       6 GLP5        0.0000 
     37 CA         20.0780    2.3620   33.2350 C.3       3 GLC5        0.0000 
     38 CA         18.9780    0.5910   33.4780 C.3       6 GLP5        0.0000 
     39 CA         19.2940    4.6285   32.7480 C.3       3 GLC5        0.0000 
     40 CA         17.4100    5.1240   32.5040 C.3       6 GLP5        0.0000 
     41 CA         20.2360    5.3390   34.3385 C.3       3 GLC5        0.0000 
     42 CA         19.2940    6.5450   35.6850 C.3       6 GLP5        0.0000 
     43 N          19.4050    3.1265   32.4040 N.am      2 SEC2        0.0000 
     44 N          20.8950    3.5070   31.8380 N.am      8 SEL2        0.0000 
     45 N          17.9150    2.7460   32.9700 N.am      5 SEP2        0.0000 
     46 CA         21.9585    2.4050   30.7255 C.3       3 GLC5        0.0000 
     47 CA         21.0990    4.3100   30.7500 C.3       9 GLL5        0.0000 
     48 N          23.6845   -3.6065   14.5620 N.am      2 SEC2        0.0000 
     49 N          22.5020   -3.7460   13.7440 N.am      8 SEL2        0.0000 
     50 N          24.8670   -3.4670   15.3800 N.am      5 SEP2        0.0000 
     51 N          23.4395   -4.9220   13.3295 N.am      2 SEC2        0.0000 
     52 N          24.3770   -6.0980   12.9150 N.am      5 SEP2        0.0000 
     53 O          20.9430   -5.2545   12.7565 O.2       1 ALC1        0.0000 
     54 O          20.3750   -4.0000   13.1310 O.2       7 ALL1        0.0000 
     55 O          21.5110   -6.5090   12.3820 O.2       4 ALP1        0.0000 
     56 N          18.3780   -5.6380   12.4760 N.am      2 SEC2        0.0000 
     57 N          18.2240   -4.1740   12.5290 N.am      8 SEL2        0.0000 
     58 N          18.5320   -7.1020   12.4230 N.am      5 SEP2        0.0000 
     59 N          16.5790   -2.7305   13.8260 N.am      2 SEC2        0.0000 
     60 N          17.6630   -1.5980   13.5010 N.am      8 SEL2        0.0000 
     61 N          15.4950   -3.8630   14.1510 N.am      5 SEP2        0.0000 
     62 CA         12.4840    1.6040   15.3795 C.3       3 GLC5        0.0000 
     63 CA         14.3100    1.5490   15.1080 C.3       9 GLL5        0.0000 
     64 CA         10.6580    1.6590   15.6510 C.3       6 GLP5        0.0000 
     65 CA         15.2295    2.3385   13.4385 C.3       3 GLC5        0.0000 
     66 CA         16.1490    3.1280   11.7690 C.3       6 GLP5        0.0000 
     67 CA         14.5495    3.1630   18.0995 C.3       3 GLC5        0.0000 
     68 CA         16.3340    2.6840   16.9850 C.3       9 GLL5        0.0000 
     69 CA         12.7650    3.6420   19.2140 C.3       6 GLP5        0.0000 
     70 CA         15.7625    4.4750   16.9130 C.3       3 GLC5        0.0000 
     71 CA         15.1910    6.2660   16.8410 C.3       6 GLP5        0.0000 
     72 CA         16.7720    3.7135   18.8900 C.3       3 GLC5        0.0000 
     73 CA         17.2100    4.7430   20.7950 C.3       6 GLP5        0.0000 
     74 CA         17.6070    3.6740   15.5195 C.3       3 GLC5        0.0000 
     75 CA         18.8800    4.6640   14.0540 C.3       6 GLP5        0.0000 
     76 CA         20.9405    0.8080   14.4045 C.3       3 GLC5        0.0000 
     77 CA         20.7000    0.0940   16.0280 C.3       9 GLL5        0.0000 
     78 CA         21.1810    1.5220   12.7810 C.3       6 GLP5        0.0000 
     79 CA         22.6020   -0.0230   15.0950 C.3       3 GLC5        0.0000 
     80 CA         24.5040   -0.1400   14.1620 C.3       6 GLP5        0.0000 
     81 CA         19.1185   -1.8495   16.8595 C.3       3 GLC5        0.0000 
     82 CA         21.0560   -0.7970   17.2500 C.3       9 GLL5        0.0000 
     83 CA         17.1810   -2.9020   16.4690 C.3       6 GLP5        0.0000 
     84 N          19.3355   -2.5845   17.8565 N.am      2 SEC2        0.0000 
     85 N          19.8470   -1.0570   17.9720 N.am      8 SEL2        0.0000 
     86 N          18.8240   -4.1120   17.7410 N.am      5 SEP2        0.0000 
     87 N          25.9420   -2.2245   23.9130 N.am      2 SEC2        0.0000 
     88 N          25.0510   -1.0050   23.4760 N.am      8 SEL2        0.0000 
     89 N          26.8330   -3.4440   24.3500 N.am      5 SEP2        0.0000 
     90 N          26.9155    1.3350   21.8130 N.am      2 SEC2        0.0000 
     91 N          25.4780    1.0630   22.1560 N.am      8 SEL2        0.0000 
     92 N          28.3530    1.6070   21.4700 N.am      5 SEP2        0.0000 
     93 CA         21.8775   -0.5345   26.0113 C.3       3 GLC5        0.0000 
     94 CA         22.3240   -2.6250   25.5780 C.3       6 GLP5        0.0000 
     95 CA         23.0155    2.6475   27.2102 C.3       3 GLC5        0.0000 
     96 CA         19.2710    0.0605   26.0925 C.3       3 GLC5        0.0000 
     97 CA         18.2960   -1.3990   25.1390 C.3       6 GLP5        0.0000 
     98 CA         18.6390    4.0062   29.6273 C.3       3 GLC5        0.0000 
     99 CA         17.4640    5.0870   30.9880 C.3       6 GLP5        0.0000 
    100 CA         23.1938    4.5371   32.0347 C.3       3 GLC5        0.0000 
    101 CA         21.5820    5.6460   30.7740 C.3       9 GLL5        0.0000 
    102 CA         19.8208    5.8511   30.6953 C.3       3 GLC5        0.0000 
    103 CA         18.2290    6.5750   30.3010 C.3       6 GLP5        0.0000 
    104 CA         23.0457    5.0431   29.9928 C.3       3 GLC5        0.0000 
    105 CA         24.6790    4.9590   28.8960 C.3       6 GLP5        0.0000 
    106 CA         17.5413   -1.5508   15.5898 C.3       3 GLC5        0.0000 
    107 CA         18.3700    0.0740   15.1680 C.3       9 GLL5        0.0000 
    108 CA         17.4920    1.7113   13.6947 C.3       3 GLC5        0.0000 
    109 CA         17.4330   -0.4730   14.2530 C.3       9 GLL5        0.0000 
    110 CA         18.2030    3.6230   13.1520 C.3       6 GLP5        0.0000 
    111 CA         19.5413    0.6613   13.7457 C.3       3 GLC5        0.0000 
    112 CA         15.7805   -1.1860   15.5315 C.3       3 GLC5        0.0000 
    113 CA         16.1290    0.0720   14.2220 C.3       9 GLL5        0.0000 
    114 CA         15.6360   -2.9030   16.3770 C.3       6 GLP5        0.0000 
    115 CA         17.1977    2.4343   14.3933 C.3       3 GLC5        0.0000 
    116 CA         15.7210    0.9900   15.1500 C.3       9 GLL5        0.0000 
    117 CA         15.4625    1.0842   18.0920 C.3       3 GLC5        0.0000 
    118 CA         16.6640    1.5010   16.1190 C.3       9 GLL5        0.0000 
    119 CA         14.4260    0.0760   19.6320 C.3       6 GLP5        0.0000 
    120 CA         17.2480   -0.8305   16.3005 C.3       3 GLC5        0.0000 
    121 CA         18.1855    2.0753   14.4042 C.3       3 GLC5        0.0000 
    122 CA         22.8550   -2.1115   20.2978 C.3       3 GLC5        0.0000 
    123 CA         22.3940   -0.7310   19.3570 C.3       9 GLL5        0.0000 
    124 CA         22.8310   -3.9370   20.8490 C.3       6 GLP5        0.0000 
    125 CA         24.7610   -0.4800   19.1382 C.3       3 GLC5        0.0000 
    126 CA         26.6430   -0.6740   18.5300 C.3       6 GLP5        0.0000 
@<TRIPOS>BOND
@<TRIPOS>SUBSTRUCTURE
     1 ALC1       10 GROUP        1 X    ALC  0     ROOT ALC X 1
     2 SEC2        1 GROUP        1 X    SEC  0     **** SEC X 2
     3 GLC5        4 GROUP        1 X    GLC  0     **** GLC X 6
     4 ALP1       12 GROUP        1 Y    ALP  0     ROOT ALP Y 8
     5 SEP2        3 GROUP        1 Y    SEP  0     **** SEP Y 9
     6 GLP5        6 GROUP        1 Y    GLP  0     **** GLP Y 13
     7 ALL1       11 GROUP        1 Z    ALL  0     ROOT ALL Z 15
     8 SEL2        2 GROUP        1 Z    SEL  0     **** SEL Z 16
     9 GLL5        5 GROUP        1 Z    GLL  0     **** GLL Z 20
@<TRIPOS>SET

