#    Name: 1b8s_FAD_1_ligand
#    Modification time : Mon Mar 24 19:27:35 2014

@<TRIPOS>MOLECULE
1b8s_FAD_1_ligand
   84    89     1     0     0
SMALL
NO_CHARGES


@<TRIPOS>ATOM
      1 PA         21.8520    0.8380   23.3150 P.3       1 FAD510      0.0000 
      2 O1A        21.3790   -0.4730   22.8340 O.co2     1 FAD510      0.0000 
      3 O2A        21.2480    1.9860   22.9040 O.co2     1 FAD510      0.0000 
      4 O5B        21.5620    0.6650   24.8250 O.3       1 FAD510      0.0000 
      5 C5B        21.8530    1.7150   25.8120 C.3       1 FAD510      0.0000 
      6 C4B        21.0090    1.3970   27.0770 C.3       1 FAD510      0.0000 
      7 O4B        21.4900    2.2810   28.1540 O.3       1 FAD510      0.0000 
      8 C3B        19.4830    1.6430   27.0150 C.3       1 FAD510      0.0000 
      9 O3B        18.6750    0.6010   27.4550 O.3       1 FAD510      0.0000 
     10 C2B        19.3200    3.0130   27.7080 C.3       1 FAD510      0.0000 
     11 O2B        18.0370    3.1750   28.2430 O.3       1 FAD510      0.0000 
     12 C1B        20.3080    2.8380   28.8250 C.3       1 FAD510      0.0000 
     13 N9A        20.8470    4.0670   29.3960 N.pl3     1 FAD510      0.0000 
     14 C8A        20.9890    5.2660   28.7510 C.2       1 FAD510      0.0000 
     15 N7A        21.5970    6.1790   29.5100 N.2       1 FAD510      0.0000 
     16 C5A        21.5820    5.6460   30.7740 C.ar      1 FAD510      0.0000 
     17 C6A        21.8700    6.2430   32.0840 C.ar      1 FAD510      0.0000 
     18 N6A        22.3460    7.4580   32.2590 N.pl3     1 FAD510      0.0000 
     19 N1A        21.6640    5.3980   33.1440 N.ar      1 FAD510      0.0000 
     20 C2A        21.1780    4.1330   32.9920 C.ar      1 FAD510      0.0000 
     21 N3A        20.8950    3.5070   31.8380 N.ar      1 FAD510      0.0000 
     22 C4A        21.0990    4.3100   30.7500 C.ar      1 FAD510      0.0000 
     23 N1         21.1590   -2.1580   14.4650 N.2       1 FAD510      0.0000 
     24 C2         21.4080   -3.2580   13.7730 C.2       1 FAD510      0.0000 
     25 O2         22.5020   -3.7460   13.7440 O.2       1 FAD510      0.0000 
     26 N3         20.3750   -4.0000   13.1310 N.am      1 FAD510      0.0000 
     27 C4         19.1060   -3.4850   13.0090 C.2       1 FAD510      0.0000 
     28 O4         18.2240   -4.1740   12.5290 O.2       1 FAD510      0.0000 
     29 C4X        18.8700   -2.1830   13.6200 C.2       1 FAD510      0.0000 
     30 N5         17.6630   -1.5980   13.5010 N.2       1 FAD510      0.0000 
     31 C5X        17.4330   -0.4730   14.2530 C.ar      1 FAD510      0.0000 
     32 C6         16.1290    0.0720   14.2220 C.ar      1 FAD510      0.0000 
     33 C7         15.7210    0.9900   15.1500 C.ar      1 FAD510      0.0000 
     34 C7M        14.3100    1.5490   15.1080 C.3       1 FAD510      0.0000 
     35 C8         16.6640    1.5010   16.1190 C.ar      1 FAD510      0.0000 
     36 C8M        16.3340    2.6840   16.9850 C.3       1 FAD510      0.0000 
     37 C9         17.9660    0.9810   16.1450 C.ar      1 FAD510      0.0000 
     38 C9A        18.3700    0.0740   15.1680 C.ar      1 FAD510      0.0000 
     39 N10        19.6600   -0.5240   15.1840 N.pl3     1 FAD510      0.0000 
     40 C10        19.9320   -1.5850   14.4150 C.2       1 FAD510      0.0000 
     41 C1'        20.7000    0.0940   16.0280 C.3       1 FAD510      0.0000 
     42 C2'        21.0560   -0.7970   17.2500 C.3       1 FAD510      0.0000 
     43 O2'        19.8470   -1.0570   17.9720 O.3       1 FAD510      0.0000 
     44 C3'        22.0000    0.0440   18.1050 C.3       1 FAD510      0.0000 
     45 O3'        23.1840    0.2990   17.3510 O.3       1 FAD510      0.0000 
     46 C4'        22.3940   -0.7310   19.3570 C.3       1 FAD510      0.0000 
     47 O4'        21.2170   -1.0430   20.1600 O.3       1 FAD510      0.0000 
     48 C5'        23.3640    0.1590   20.1360 C.3       1 FAD510      0.0000 
     49 O5'        23.9130   -0.6460   21.3910 O.3       1 FAD510      0.0000 
     50 P          24.5170    0.1270   22.5590 P.3       1 FAD510      0.0000 
     51 O1P        25.0510   -1.0050   23.4760 O.co2     1 FAD510      0.0000 
     52 O2P        25.4780    1.0630   22.1560 O.co2     1 FAD510      0.0000 
     53 O3P        23.4450    0.9270   23.1870 O.3       1 FAD510      0.0000 
     54 H          21.5599    2.6867   25.4510 H         1 FAD510      0.0000 
     55 H          22.8924    1.7120   26.0950 H         1 FAD510      0.0000 
     56 H          21.1860    0.3773   27.3767 H         1 FAD510      0.0000 
     57 H          19.3035    1.8772   25.9191 H         1 FAD510      0.0000 
     58 H          19.6578    3.7505   27.0639 H         1 FAD510      0.0000 
     59 H          19.9726    2.1671   29.5425 H         1 FAD510      0.0000 
     60 H          20.6704    5.4192   27.8265 H         1 FAD510      0.0000 
     61 H          22.5050    7.9921   31.4287 H         1 FAD510      0.0000 
     62 H          22.5051    7.7361   33.2063 H         1 FAD510      0.0000 
     63 H          21.0027    3.5755   33.9121 H         1 FAD510      0.0000 
     64 H          20.6042   -4.9352   12.7595 H         1 FAD510      0.0000 
     65 H          15.4841   -0.2433   13.4731 H         1 FAD510      0.0000 
     66 H          18.6158    1.2702   16.8829 H         1 FAD510      0.0000 
     67 H          20.3654    1.0656   16.4102 H         1 FAD510      0.0000 
     68 H          21.6205    0.2575   15.4554 H         1 FAD510      0.0000 
     69 H          21.5443   -1.6513   16.9100 H         1 FAD510      0.0000 
     70 H          21.5082    0.9404   18.3898 H         1 FAD510      0.0000 
     71 H          22.9160   -1.6150   19.0571 H         1 FAD510      0.0000 
     72 H          22.8580    1.0347   20.4993 H         1 FAD510      0.0000 
     73 H          24.2033    0.4256   19.5200 H         1 FAD510      0.0000 
     74 H          14.1498    2.2086   15.8423 H         1 FAD510      0.0000 
     75 H          14.1223    2.0191   14.2456 H         1 FAD510      0.0000 
     76 H          13.6224    0.8294   15.2053 H         1 FAD510      0.0000 
     77 H          17.0865    2.9139   17.6022 H         1 FAD510      0.0000 
     78 H          16.1415    3.5005   16.4407 H         1 FAD510      0.0000 
     79 H          15.5294    2.5147   17.5541 H         1 FAD510      0.0000 
     80 H          18.9298    0.4624   28.4120 H         1 FAD510      0.0000 
     81 H          17.9501    2.4534   28.9298 H         1 FAD510      0.0000 
     82 H          20.1185   -1.0716   18.9343 H         1 FAD510      0.0000 
     83 H          23.5057    1.1910   17.6685 H         1 FAD510      0.0000 
     84 H          21.4695   -0.7967   21.0957 H         1 FAD510      0.0000 
@<TRIPOS>BOND
     1    2    1 ar   
     2    3    1 ar   
     3    4    1 1    
     4   53    1 1    
     5    5    4 1    
     6    6    5 1    
     7   54    5 1    
     8   55    5 1    
     9    7    6 1    
    10    8    6 1    
    11   56    6 1    
    12   12    7 1    
    13    9    8 1    
    14   10    8 1    
    15   57    8 1    
    16   80    9 1    
    17   11   10 1    
    18   12   10 1    
    19   58   10 1    
    20   81   11 1    
    21   13   12 1    
    22   59   12 1    
    23   14   13 1    
    24   22   13 1    
    25   15   14 2    
    26   60   14 1    
    27   16   15 1    
    28   17   16 ar   
    29   22   16 ar   
    30   18   17 1    
    31   19   17 ar   
    32   61   18 1    
    33   62   18 1    
    34   20   19 ar   
    35   21   20 ar   
    36   63   20 1    
    37   22   21 ar   
    38   24   23 1    
    39   40   23 2    
    40   25   24 2    
    41   26   24 am   
    42   27   26 am   
    43   64   26 1    
    44   28   27 2    
    45   29   27 1    
    46   30   29 2    
    47   40   29 1    
    48   31   30 1    
    49   32   31 ar   
    50   38   31 ar   
    51   33   32 ar   
    52   65   32 1    
    53   34   33 1    
    54   35   33 ar   
    55   74   34 1    
    56   75   34 1    
    57   76   34 1    
    58   36   35 1    
    59   37   35 ar   
    60   77   36 1    
    61   78   36 1    
    62   79   36 1    
    63   38   37 ar   
    64   66   37 1    
    65   39   38 1    
    66   40   39 1    
    67   41   39 1    
    68   42   41 1    
    69   67   41 1    
    70   68   41 1    
    71   43   42 1    
    72   44   42 1    
    73   69   42 1    
    74   82   43 1    
    75   45   44 1    
    76   46   44 1    
    77   70   44 1    
    78   83   45 1    
    79   47   46 1    
    80   48   46 1    
    81   71   46 1    
    82   84   47 1    
    83   49   48 1    
    84   72   48 1    
    85   73   48 1    
    86   50   49 1    
    87   51   50 ar   
    88   52   50 ar   
    89   53   50 1    
@<TRIPOS>SUBSTRUCTURE
     1 FAD510      1 GROUP   
@<TRIPOS>SET

