#    Name: 2ohi_FMN_7_INTS_M
#    Modification time : Tue Mar 25 22:38:47 2014

@<TRIPOS>MOLECULE
2ohi_FMN_7_INTS_M
   78     0     9     0     0
SMALL
NO_CHARGES


@<TRIPOS>ATOM
      1 N          43.8730   74.9325   68.7260 N.am      2 SEC2        0.0000 
      2 N          45.2920   74.5600   69.0160 N.am      8 SEL2        0.0000 
      3 N          42.4540   75.3050   68.4360 N.am      5 SEP2        0.0000 
      4 N          43.7325   76.0125   68.3730 N.am      2 SEC2        0.0000 
      5 N          45.0110   76.7200   68.3100 N.am      8 SEL2        0.0000 
      6 N          44.1035   77.1440   69.0685 N.am      2 SEC2        0.0000 
      7 N          43.1960   77.5680   69.8270 N.am      5 SEP2        0.0000 
      8 N          45.4760   78.0265   67.4910 N.am      2 SEC2        0.0000 
      9 N          45.9410   79.3330   66.6720 N.am      5 SEP2        0.0000 
     10 N          50.3855   75.4630   68.5160 N.am      2 SEC2        0.0000 
     11 N          49.1860   75.3430   69.5700 N.am      8 SEL2        0.0000 
     12 N          51.5850   75.5830   67.4620 N.am      5 SEP2        0.0000 
     13 N          49.6250   72.8760   69.3835 N.am      2 SEC2        0.0000 
     14 N          48.3360   72.8760   70.1710 N.am      8 SEL2        0.0000 
     15 N          50.9140   72.8760   68.5960 N.am      5 SEP2        0.0000 
     16 CA         50.8565   69.1330   71.6820 C.3       3 GLC5        0.0000 
     17 CA         49.2770   68.2630   71.4350 C.3       9 GLL5        0.0000 
     18 CA         52.4360   70.0030   71.9290 C.3       6 GLP5        0.0000 
     19 CA         49.7540   66.9225   72.6415 C.3       3 GLC5        0.0000 
     20 CA         50.2310   65.5820   73.8480 C.3       6 GLP5        0.0000 
     21 CA         46.3850   67.0085   68.8860 C.3       3 GLC5        0.0000 
     22 CA         46.5880   67.6060   70.6670 C.3       9 GLL5        0.0000 
     23 CA         46.1820   66.4110   67.1050 C.3       6 GLP5        0.0000 
     24 CA         47.0340   65.5320   70.1045 C.3       3 GLC5        0.0000 
     25 CA         47.4800   63.4580   69.5420 C.3       6 GLP5        0.0000 
     26 CA         43.7820   71.2205   71.1775 C.3       3 GLC5        0.0000 
     27 CA         44.1800   72.0590   69.6670 C.3       9 GLL5        0.0000 
     28 CA         43.3840   70.3820   72.6880 C.3       6 GLP5        0.0000 
     29 CA         44.5045   69.8055   67.6850 C.3       3 GLC5        0.0000 
     30 CA         43.7120   71.6310   68.2650 C.3       9 GLL5        0.0000 
     31 CA         45.2970   67.9800   67.1050 C.3       6 GLP5        0.0000 
     32 O          45.6160   72.3410   67.0245 O.2       1 ALC1        0.0000 
     33 O          44.3030   72.3980   67.2400 O.2       7 ALL1        0.0000 
     34 O          46.9290   72.2840   66.8090 O.2       4 ALP1        0.0000 
     35 CA         40.9335   72.4370   69.6285 C.3       3 GLC5        0.0000 
     36 CA         42.1930   71.7400   68.2040 C.3       9 GLL5        0.0000 
     37 CA         39.6740   73.1340   71.0530 C.3       6 GLP5        0.0000 
     38 O          39.6355   72.0625   65.9260 O.2       1 ALC1        0.0000 
     39 O          40.1910   71.5880   66.9940 O.2       7 ALL1        0.0000 
     40 O          39.0800   72.5370   64.8580 O.2       4 ALP1        0.0000 
     41 CA         43.6085   68.9730   66.7590 C.3       3 GLC5        0.0000 
     42 CA         41.9200   69.9660   66.4130 C.3       9 GLL5        0.0000 
     43 N          40.3855   66.2955   65.7265 N.am      2 SEC2        0.0000 
     44 N          39.8390   67.7210   65.4200 N.am      8 SEL2        0.0000 
     45 N          40.9320   64.8700   66.0330 N.am      5 SEP2        0.0000 
     46 N          38.6255   67.5035   64.4485 N.am      2 SEC2        0.0000 
     47 N          37.4120   67.2860   63.4770 N.am      5 SEP2        0.0000 
     48 N          40.6510   66.9785   62.8015 N.am      2 SEC2        0.0000 
     49 N          40.7410   68.2430   63.1740 N.am      8 SEL2        0.0000 
     50 N          40.5610   65.7140   62.4290 N.am      5 SEP2        0.0000 
     51 N          39.7135   68.5695   62.3285 N.am      2 SEC2        0.0000 
     52 N          38.6860   68.8960   61.4830 N.am      5 SEP2        0.0000 
     53 N          40.9930   69.1550   62.2260 N.am      2 SEC2        0.0000 
     54 N          41.2450   70.0670   61.2780 N.am      5 SEP2        0.0000 
     55 N          41.3820   66.5005   63.6335 N.am      2 SEC2        0.0000 
     56 N          42.2030   67.2870   64.8380 N.am      8 SEL2        0.0000 
     57 N          42.5765   66.1960   64.4680 N.am      2 SEC2        0.0000 
     58 N          42.9500   65.1050   64.0980 N.am      5 SEP2        0.0000 
     59 N          41.5675   66.0785   65.4355 N.am      2 SEC2        0.0000 
     60 CA         48.4265   71.4630   68.7130 C.3       3 GLC5        0.0000 
     61 CA         46.5160   71.3060   70.2380 C.3       9 GLL5        0.0000 
     62 CA         49.6650   71.4700   67.0890 C.3       6 GLP5        0.0000 
     63 CA         49.8454   69.2344   69.5720 C.3       3 GLC5        0.0000 
     64 CA         48.7460   70.6320   70.9000 C.3       9 GLL5        0.0000 
     65 CA         50.7950   69.3420   67.9090 C.3       6 GLP5        0.0000 
     66 CA         45.8950   68.7515   68.9218 C.3       3 GLC5        0.0000 
     67 CA         46.9340   69.0310   70.9680 C.3       9 GLL5        0.0000 
     68 CA         47.7095   68.1423   68.9363 C.3       3 GLC5        0.0000 
     69 CA         48.6580   67.9660   67.0550 C.3       6 GLP5        0.0000 
     70 CA         42.5228   73.6283   69.1920 C.3       3 GLC5        0.0000 
     71 CA         41.9760   75.4640   69.7990 C.3       6 GLP5        0.0000 
     72 CA         43.0312   70.3835   65.1460 C.3       3 GLC5        0.0000 
     73 CA         41.5850   71.4000   66.8510 C.3       9 GLL5        0.0000 
     74 CA         44.3100   70.0840   63.6600 C.3       6 GLP5        0.0000 
     75 CA         40.7448   71.4700   65.1280 C.3       3 GLC5        0.0000 
     76 CA         39.7370   72.2570   63.6240 C.3       6 GLP5        0.0000 
     77 CA         42.2609   73.3204   66.7904 C.3       3 GLC5        0.0000 
     78 CA         42.2530   75.0980   66.0380 C.3       6 GLP5        0.0000 
@<TRIPOS>BOND
@<TRIPOS>SUBSTRUCTURE
     1 ALC1       32 GROUP        1 X    ALC  0     ROOT ALC X 1
     2 SEC2        1 GROUP        1 X    SEC  0     **** SEC X 2
     3 GLC5       16 GROUP        1 X    GLC  0     **** GLC X 6
     4 ALP1       34 GROUP        1 Y    ALP  0     ROOT ALP Y 8
     5 SEP2        3 GROUP        1 Y    SEP  0     **** SEP Y 9
     6 GLP5       18 GROUP        1 Y    GLP  0     **** GLP Y 13
     7 ALL1       33 GROUP        1 Z    ALL  0     ROOT ALL Z 15
     8 SEL2        2 GROUP        1 Z    SEL  0     **** SEL Z 16
     9 GLL5       17 GROUP        1 Z    GLL  0     **** GLL Z 20
@<TRIPOS>SET

