#    Name: 2ohi_FMN_7_ligand
#    Modification time : Tue Mar 25 22:38:47 2014

@<TRIPOS>MOLECULE
2ohi_FMN_7_ligand
   50    52     1     0     0
SMALL
NO_CHARGES


@<TRIPOS>ATOM
      1 N1         45.2920   74.5600   69.0160 N.2       1 FMN2702     0.0000 
      2 C2         45.7840   75.8380   68.7380 C.2       1 FMN2702     0.0000 
      3 O2         45.0110   76.7200   68.3100 O.2       1 FMN2702     0.0000 
      4 N3         47.1380   76.1150   68.9480 N.am      1 FMN2702     0.0000 
      5 C4         47.9820   75.1280   69.4280 C.2       1 FMN2702     0.0000 
      6 O4         49.1860   75.3430   69.5700 O.2       1 FMN2702     0.0000 
      7 C4A        47.4910   73.8540   69.6920 C.2       1 FMN2702     0.0000 
      8 N5         48.3360   72.8760   70.1710 N.2       1 FMN2702     0.0000 
      9 C5A        47.8600   71.6060   70.4360 C.ar      1 FMN2702     0.0000 
     10 C6         48.7460   70.6320   70.9000 C.ar      1 FMN2702     0.0000 
     11 C7         48.2830   69.3490   71.1700 C.ar      1 FMN2702     0.0000 
     12 C7M        49.2770   68.2630   71.4350 C.3       1 FMN2702     0.0000 
     13 C8         46.9340   69.0310   70.9680 C.ar      1 FMN2702     0.0000 
     14 C8M        46.5880   67.6060   70.6670 C.3       1 FMN2702     0.0000 
     15 C9         46.0520   70.0150   70.5090 C.ar      1 FMN2702     0.0000 
     16 C9A        46.5160   71.3060   70.2380 C.ar      1 FMN2702     0.0000 
     17 N10        45.6630   72.2920   69.7580 N.pl3     1 FMN2702     0.0000 
     18 C10        46.1430   73.5670   69.4840 C.2       1 FMN2702     0.0000 
     19 C1'        44.1800   72.0590   69.6670 C.3       1 FMN2702     0.0000 
     20 C2'        43.7120   71.6310   68.2650 C.3       1 FMN2702     0.0000 
     21 O2'        44.3030   72.3980   67.2400 O.3       1 FMN2702     0.0000 
     22 C3'        42.1930   71.7400   68.2040 C.3       1 FMN2702     0.0000 
     23 O3'        41.6380   70.8620   69.1690 O.3       1 FMN2702     0.0000 
     24 C4'        41.5850   71.4000   66.8510 C.3       1 FMN2702     0.0000 
     25 O4'        40.1910   71.5880   66.9940 O.3       1 FMN2702     0.0000 
     26 C5'        41.9200   69.9660   66.4130 C.3       1 FMN2702     0.0000 
     27 O5'        41.4460   69.7020   65.1110 O.3       1 FMN2702     0.0000 
     28 P          41.0410   68.2110   64.6470 P.3       1 FMN2702     0.0000 
     29 O1P        39.8390   67.7210   65.4200 O.co2     1 FMN2702     0.0000 
     30 O2P        40.7410   68.2430   63.1740 O.co2     1 FMN2702     0.0000 
     31 O3P        42.2030   67.2870   64.8380 O.co2     1 FMN2702     0.0000 
     32 H          47.5020   77.0552   68.7438 H         1 FMN2702     0.0000 
     33 H          49.7353   70.8647   71.0405 H         1 FMN2702     0.0000 
     34 H          45.0596   69.7881   70.3705 H         1 FMN2702     0.0000 
     35 H          43.6415   72.9786   69.9463 H         1 FMN2702     0.0000 
     36 H          43.8817   71.2787   70.3851 H         1 FMN2702     0.0000 
     37 H          43.9564   70.5681   68.1601 H         1 FMN2702     0.0000 
     38 H          41.9184   72.7700   68.4472 H         1 FMN2702     0.0000 
     39 H          41.9952   72.0885   66.1248 H         1 FMN2702     0.0000 
     40 H          41.4779   69.2860   67.1626 H         1 FMN2702     0.0000 
     41 H          43.0159   69.8513   66.4881 H         1 FMN2702     0.0000 
     42 H          49.8923   68.1253   70.6589 H         1 FMN2702     0.0000 
     43 H          49.8486   68.4685   72.2294 H         1 FMN2702     0.0000 
     44 H          48.8304   67.3864   71.6141 H         1 FMN2702     0.0000 
     45 H          47.0344   67.2838   69.8322 H         1 FMN2702     0.0000 
     46 H          46.8682   66.9920   71.4049 H         1 FMN2702     0.0000 
     47 H          45.6039   67.4816   70.5399 H         1 FMN2702     0.0000 
     48 H          45.2811   72.1985   67.2988 H         1 FMN2702     0.0000 
     49 H          40.6761   70.7694   68.9117 H         1 FMN2702     0.0000 
     50 H          39.8465   71.6889   66.0606 H         1 FMN2702     0.0000 
@<TRIPOS>BOND
     1    2    1 1    
     2   18    1 2    
     3    3    2 2    
     4    4    2 am   
     5    5    4 am   
     6   32    4 1    
     7    6    5 2    
     8    7    5 1    
     9    8    7 2    
    10   18    7 1    
    11    9    8 1    
    12   10    9 ar   
    13   16    9 ar   
    14   11   10 ar   
    15   33   10 1    
    16   12   11 1    
    17   13   11 ar   
    18   42   12 1    
    19   43   12 1    
    20   44   12 1    
    21   14   13 1    
    22   15   13 ar   
    23   45   14 1    
    24   46   14 1    
    25   47   14 1    
    26   16   15 ar   
    27   34   15 1    
    28   17   16 1    
    29   18   17 1    
    30   19   17 1    
    31   20   19 1    
    32   35   19 1    
    33   36   19 1    
    34   21   20 1    
    35   22   20 1    
    36   37   20 1    
    37   48   21 1    
    38   23   22 1    
    39   24   22 1    
    40   38   22 1    
    41   49   23 1    
    42   25   24 1    
    43   26   24 1    
    44   39   24 1    
    45   50   25 1    
    46   27   26 1    
    47   40   26 1    
    48   41   26 1    
    49   28   27 1    
    50   29   28 ar   
    51   30   28 ar   
    52   31   28 ar   
@<TRIPOS>SUBSTRUCTURE
     1 FMN2702     1 GROUP   
@<TRIPOS>SET

