#    Name: 2q14_ADP_5_INTS_M
#    Modification time : Mon Mar 24 20:23:54 2014

@<TRIPOS>MOLECULE
2q14_ADP_5_INTS_M
   61     0    12     0     0
SMALL
NO_CHARGES


@<TRIPOS>ATOM
      1 NZ         -8.0055   -1.5255 -154.6110 N.4       3 LYC4        0.0000 
      2 NZ         -6.2940   -0.7130 -154.6600 N.4      11 LYL4        0.0000 
      3 NZ         -9.7170   -2.3380 -154.5620 N.4       7 LYP4        0.0000 
      4 NZ         -7.8015    0.6250 -157.5440 N.4       3 LYC4        0.0000 
      5 NZ         -6.3360   -0.3160 -157.1440 N.4      11 LYL4        0.0000 
      6 NZ         -9.2670    1.5660 -157.9440 N.4       7 LYP4        0.0000 
      7 NZ         -8.8895    0.6105 -156.8755 N.4       3 LYC4        0.0000 
      8 NZ         -8.5120   -0.3450 -155.8070 N.4      11 LYL4        0.0000 
      9 NZ         -9.1145   -1.3415 -155.1845 N.4       3 LYC4        0.0000 
     10 N          -8.8895    0.6105 -156.8755 N.am      2 SEC2        0.0000 
     11 N          -8.5120   -0.3450 -155.8070 N.am     10 SEL2        0.0000 
     12 N          -9.2670    1.5660 -157.9440 N.am      6 SEP2        0.0000 
     13 N          -9.1145   -1.3415 -155.1845 N.am      2 SEC2        0.0000 
     14 N          -9.7170   -2.3380 -154.5620 N.am      6 SEP2        0.0000 
     15 NZ         -6.3430    5.1245 -154.1865 N.4       3 LYC4        0.0000 
     16 NZ         -6.1110    3.7150 -154.7360 N.4      11 LYL4        0.0000 
     17 NZ         -7.2260    6.4980 -152.4860 N.4       7 LYP4        0.0000 
     18 N          -6.3430    5.1245 -154.1865 N.am      2 SEC2        0.0000 
     19 N          -6.1110    3.7150 -154.7360 N.am     10 SEL2        0.0000 
     20 N          -6.5750    6.5340 -153.6370 N.am      6 SEP2        0.0000 
     21 N          -5.2445    0.9370 -152.2465 N.am      2 SEC2        0.0000 
     22 N          -5.5160    1.5330 -153.4740 N.am     10 SEL2        0.0000 
     23 N          -4.9730    0.3410 -151.0190 N.am      6 SEP2        0.0000 
     24 N          -7.7230    3.8520 -152.7055 N.am      2 SEC2        0.0000 
     25 N          -7.8560    2.3920 -153.4240 N.am     10 SEL2        0.0000 
     26 N          -7.5900    5.3120 -151.9870 N.am      6 SEP2        0.0000 
     27 CA         -6.4235    2.1035 -151.2805 C.3       4 GLC5        0.0000 
     28 CA         -8.0500    1.5360 -152.2950 C.3      12 GLL5        0.0000 
     29 CA         -4.7970    2.6710 -150.2660 C.3       8 GLP5        0.0000 
     30 CA         -9.8175    1.4110 -149.9585 C.3       4 GLC5        0.0000 
     31 CA         -9.5220    1.5470 -151.8990 C.3      12 GLL5        0.0000 
     32 CA        -10.1130    1.2750 -148.0180 C.3       8 GLP5        0.0000 
     33 CA        -10.1725    1.8350 -155.0020 C.3       4 GLC5        0.0000 
     34 CA        -10.4630    1.1550 -153.0360 C.3      12 GLL5        0.0000 
     35 CA         -9.8820    2.5150 -156.9680 C.3       8 GLP5        0.0000 
     36 N         -10.3420   -1.2600 -153.7215 N.am      2 SEC2        0.0000 
     37 N         -10.9670   -0.1820 -152.8810 N.am     10 SEL2        0.0000 
     38 CA        -11.5085    2.3675 -154.9970 C.3       4 GLC5        0.0000 
     39 CA        -11.5880    2.1640 -152.9710 C.3      12 GLL5        0.0000 
     40 CA        -11.4290    2.5710 -157.0230 C.3       8 GLP5        0.0000 
     41 O         -13.7760    1.4920 -152.8520 O.2       1 ALC1        0.0000 
     42 O         -12.7040    1.5670 -152.3220 O.2       9 ALL1        0.0000 
     43 O         -14.8480    1.4170 -153.3820 O.2       5 ALP1        0.0000 
     44 CA        -10.3575    3.5565 -150.0600 C.3       4 GLC5        0.0000 
     45 CA        -11.0860    3.3210 -152.1190 C.3      12 GLL5        0.0000 
     46 CA         -9.6290    3.7920 -148.0010 C.3       8 GLP5        0.0000 
     47 CA        -12.9815    4.2970 -152.7035 C.3       4 GLC5        0.0000 
     48 CA        -14.8770    5.2730 -153.2880 C.3       8 GLP5        0.0000 
     49 O          -9.9690   10.4305 -153.7655 O.2       1 ALC1        0.0000 
     50 O         -10.2640    9.0720 -154.0540 O.2       9 ALL1        0.0000 
     51 O          -9.6740   11.7890 -153.4770 O.2       5 ALP1        0.0000 
     52 CA        -12.6795    7.6350 -149.6465 C.3       4 GLC5        0.0000 
     53 CA        -11.2800    7.5920 -150.9690 C.3      12 GLL5        0.0000 
     54 CA        -14.0790    7.6780 -148.3240 C.3       8 GLP5        0.0000 
     55 CA        -12.8850    7.1885 -152.1855 C.3       4 GLC5        0.0000 
     56 CA        -14.4900    6.7850 -153.4020 C.3       8 GLP5        0.0000 
     57 CA         -8.8693    8.2045 -152.8032 C.3       4 GLC5        0.0000 
     58 CA        -10.5390    6.7180 -153.4660 C.3      12 GLL5        0.0000 
     59 CA         -7.1760    8.9740 -152.3050 C.3       8 GLP5        0.0000 
     60 CA        -12.6121    6.6970 -153.1254 C.3       4 GLC5        0.0000 
     61 CA        -10.5860    8.1520 -153.1370 C.3      12 GLL5        0.0000 
@<TRIPOS>BOND
@<TRIPOS>SUBSTRUCTURE
     1 ALC1       41 GROUP        1 X    ALC  0     ROOT ALC X 1
     2 SEC2       10 GROUP        1 X    SEC  0     **** SEC X 2
     3 LYC4        1 GROUP        1 X    LYC  0     **** LYC X 4
     4 GLC5       27 GROUP        1 X    GLC  0     **** GLC X 6
     5 ALP1       43 GROUP        1 Y    ALP  0     ROOT ALP Y 8
     6 SEP2       12 GROUP        1 Y    SEP  0     **** SEP Y 9
     7 LYP4        3 GROUP        1 Y    LYP  0     **** LYP Y 11
     8 GLP5       29 GROUP        1 Y    GLP  0     **** GLP Y 13
     9 ALL1       42 GROUP        1 Z    ALL  0     ROOT ALL Z 15
    10 SEL2       11 GROUP        1 Z    SEL  0     **** SEL Z 16
    11 LYL4        2 GROUP        1 Z    LYL  0     **** LYL Z 18
    12 GLL5       28 GROUP        1 Z    GLL  0     **** GLL Z 20
@<TRIPOS>SET

