#    Name: 2q14_ADP_5_ligand
#    Modification time : Mon Mar 24 20:23:54 2014

@<TRIPOS>MOLECULE
2q14_ADP_5_ligand
   39    41     1     0     0
SMALL
NO_CHARGES


@<TRIPOS>ATOM
      1 PB         -7.0260   -0.0830 -155.8190 P.3       1 ADP501      0.0000 
      2 O1B        -6.2940   -0.7130 -154.6600 O.co2     1 ADP501      0.0000 
      3 O2B        -6.3360   -0.3160 -157.1440 O.co2     1 ADP501      0.0000 
      4 O3B        -8.5120   -0.3450 -155.8070 O.co2     1 ADP501      0.0000 
      5 PA         -6.5030    2.3320 -154.3000 P.3       1 ADP501      0.0000 
      6 O1A        -6.1110    3.7150 -154.7360 O.co2     1 ADP501      0.0000 
      7 O2A        -5.5160    1.5330 -153.4740 O.co2     1 ADP501      0.0000 
      8 O3A        -6.9600    1.5250 -155.6310 O.3       1 ADP501      0.0000 
      9 O5'        -7.8560    2.3920 -153.4240 O.3       1 ADP501      0.0000 
     10 C5'        -8.0500    1.5360 -152.2950 C.3       1 ADP501      0.0000 
     11 C4'        -9.5220    1.5470 -151.8990 C.3       1 ADP501      0.0000 
     12 O4'        -9.9010    2.8570 -151.4710 O.3       1 ADP501      0.0000 
     13 C3'       -10.4630    1.1550 -153.0360 C.3       1 ADP501      0.0000 
     14 O3'       -10.9670   -0.1820 -152.8810 O.3       1 ADP501      0.0000 
     15 C2'       -11.5880    2.1640 -152.9710 C.3       1 ADP501      0.0000 
     16 O2'       -12.7040    1.5670 -152.3220 O.3       1 ADP501      0.0000 
     17 C1'       -11.0860    3.3210 -152.1190 C.3       1 ADP501      0.0000 
     18 N9        -10.7950    4.5620 -152.8990 N.pl3     1 ADP501      0.0000 
     19 C8        -10.3820    4.6770 -154.1810 C.2       1 ADP501      0.0000 
     20 N7        -10.2250    5.9810 -154.5430 N.2       1 ADP501      0.0000 
     21 C5        -10.5390    6.7180 -153.4660 C.ar      1 ADP501      0.0000 
     22 C6        -10.5860    8.1520 -153.1370 C.ar      1 ADP501      0.0000 
     23 N6        -10.2640    9.0720 -154.0540 N.pl3     1 ADP501      0.0000 
     24 N1        -10.9530    8.5100 -151.8990 N.ar      1 ADP501      0.0000 
     25 C2        -11.2800    7.5920 -150.9690 C.ar      1 ADP501      0.0000 
     26 N3        -11.2610    6.2700 -151.1950 N.ar      1 ADP501      0.0000 
     27 C4        -10.9060    5.7830 -152.3960 C.ar      1 ADP501      0.0000 
     28 H          -7.4663    1.8675 -151.4303 H         1 ADP501      0.0000 
     29 H          -7.7691    0.5017 -152.5178 H         1 ADP501      0.0000 
     30 H          -9.6679    0.8378 -151.0880 H         1 ADP501      0.0000 
     31 H          -9.9419    1.2961 -153.9601 H         1 ADP501      0.0000 
     32 H         -11.8051    2.5136 -153.9386 H         1 ADP501      0.0000 
     33 H         -11.8485    3.5332 -151.3722 H         1 ADP501      0.0000 
     34 H         -10.2141    3.9172 -154.7825 H         1 ADP501      0.0000 
     35 H         -10.2812   10.0237 -153.7474 H         1 ADP501      0.0000 
     36 H         -10.0351    8.7253 -154.9637 H         1 ADP501      0.0000 
     37 H         -11.5694    7.9375 -150.0011 H         1 ADP501      0.0000 
     38 H         -11.9561   -0.0754 -152.7789 H         1 ADP501      0.0000 
     39 H         -13.5003    2.0632 -152.6680 H         1 ADP501      0.0000 
@<TRIPOS>BOND
     1    2    1 ar   
     2    3    1 ar   
     3    4    1 ar   
     4    8    1 1    
     5    6    5 ar   
     6    7    5 ar   
     7    8    5 1    
     8    9    5 1    
     9   10    9 1    
    10   11   10 1    
    11   28   10 1    
    12   29   10 1    
    13   12   11 1    
    14   13   11 1    
    15   30   11 1    
    16   17   12 1    
    17   14   13 1    
    18   15   13 1    
    19   31   13 1    
    20   38   14 1    
    21   16   15 1    
    22   17   15 1    
    23   32   15 1    
    24   39   16 1    
    25   18   17 1    
    26   33   17 1    
    27   19   18 1    
    28   27   18 1    
    29   20   19 2    
    30   34   19 1    
    31   21   20 1    
    32   22   21 ar   
    33   27   21 ar   
    34   23   22 1    
    35   24   22 ar   
    36   35   23 1    
    37   36   23 1    
    38   25   24 ar   
    39   26   25 ar   
    40   37   25 1    
    41   27   26 ar   
@<TRIPOS>SUBSTRUCTURE
     1 ADP501      1 GROUP   
@<TRIPOS>SET

