#    Name: 3OUI_2_CAVITY_N1_ALL.mol2
#    Modification time : Mon Mar 10 12:31:43 2014

@<TRIPOS>MOLECULE
3OUI_2_CAVITY_N1_ALL.mol2
   66     0     6     0     0
SMALL
NO_CHARGES


@<TRIPOS>ATOM
      1 N          31.2625  -19.6388  -21.9925 N.2       2 ALA2        0.0000 
      2 O          30.5824  -20.0832  -23.2535 O.2       2 ALA2        0.0000 
      3 OD1        30.1111  -19.1656  -25.1071 O.3       3 ASP3        0.0000 
      4 O          31.3020  -18.3057  -18.9150 O.2       2 ALA2        0.0000 
      5 CA         30.6219  -18.7501  -20.1759 C.3       5 GLY6        0.0000 
      6 CA         29.9419  -19.1946  -21.4369 C.3       5 GLY6        0.0000 
      7 DU         30.1507  -17.8325  -22.0296 H         6 CUB7        0.0000 
      8 CA         29.2618  -19.6390  -22.6978 C.3       5 GLY6        0.0000 
      9 N          29.4706  -18.2770  -23.2905 N.2       2 ALA2        0.0000 
     10 CA         28.5818  -20.0835  -23.9588 C.3       5 GLY6        0.0000 
     11 O          28.7906  -18.7214  -24.5515 O.2       2 ALA2        0.0000 
     12 CZ         29.3014  -18.3059  -19.6203 C.ar      4 PHE5        0.0000 
     13 CZ         29.5101  -16.9439  -20.2130 C.ar      4 PHE5        0.0000 
     14 OG         28.6213  -18.7504  -20.8813 O.2       1 SER1        0.0000 
     15 N          28.8301  -17.3883  -21.4739 N.2       2 ALA2        0.0000 
     16 N          29.0389  -16.0263  -22.0666 N.2       2 ALA2        0.0000 
     17 OG         27.7325  -20.5569  -21.5495 O.2       1 SER1        0.0000 
     18 OG         27.9412  -19.1948  -22.1422 O.2       1 SER1        0.0000 
     19 N          28.1500  -17.8328  -22.7349 N.2       2 ALA2        0.0000 
     20 N          27.0524  -21.0013  -22.8105 N.2       2 ALA2        0.0000 
     21 CA         27.2612  -19.6393  -23.4032 C.3       5 GLY6        0.0000 
     22 N          27.4700  -18.2772  -23.9958 N.2       2 ALA2        0.0000 
     23 CZ         28.1896  -16.4997  -19.6573 C.ar      4 PHE5        0.0000 
     24 CZ         28.3983  -15.1376  -20.2500 C.ar      4 PHE5        0.0000 
     25 CZ         27.3007  -18.3062  -20.3256 C.ar      4 PHE5        0.0000 
     26 CZ         27.5095  -16.9441  -20.9183 C.ar      4 PHE5        0.0000 
     27 N          27.7183  -15.5821  -21.5110 N.2       2 ALA2        0.0000 
     28 N          27.9271  -14.2201  -22.1036 N.2       2 ALA2        0.0000 
     29 N          26.4119  -20.1126  -20.9939 N.2       2 ALA2        0.0000 
     30 DU         26.6207  -18.7506  -21.5866 H         6 CUB7        0.0000 
     31 N          26.8294  -17.3886  -22.1792 N.2       2 ALA2        0.0000 
     32 CA         25.7318  -20.5571  -22.2548 C.3       5 GLY6        0.0000 
     33 CA         25.9406  -19.1951  -22.8475 C.3       5 GLY6        0.0000 
     34 N          26.1494  -17.8330  -23.4402 N.2       2 ALA2        0.0000 
     35 OG         25.5626  -20.5860  -18.5846 O.2       1 SER1        0.0000 
     36 CZ         25.7714  -19.2240  -19.1773 C.ar      4 PHE5        0.0000 
     37 CZ         25.9801  -17.8620  -19.7700 C.ar      4 PHE5        0.0000 
     38 CA         25.0913  -19.6684  -20.4382 C.3       5 GLY6        0.0000 
     39 DU         25.3001  -18.3064  -21.0309 H         6 CUB7        0.0000 
     40 CZ         25.5089  -16.9444  -21.6236 C.ar      4 PHE5        0.0000 
     41 N          25.7176  -15.5823  -22.2163 N.2       2 ALA2        0.0000 
     42 CA         24.4112  -20.1129  -21.6992 C.3       5 GLY6        0.0000 
     43 CA         24.6200  -18.7508  -22.2919 C.3       5 GLY6        0.0000 
     44 N          24.8288  -17.3888  -22.8845 N.2       2 ALA2        0.0000 
     45 OG         24.9221  -19.6974  -16.7680 O.2       1 SER1        0.0000 
     46 CA         24.2420  -20.1418  -18.0290 C.3       5 GLY6        0.0000 
     47 OG         24.4508  -18.7798  -18.6216 O.2       1 SER1        0.0000 
     48 CZ         24.6596  -17.4178  -19.2143 C.ar      4 PHE5        0.0000 
     49 CA         23.7707  -19.2242  -19.8826 C.3       5 GLY6        0.0000 
     50 CZ         23.9795  -17.8622  -20.4753 C.ar      4 PHE5        0.0000 
     51 CZ         24.1883  -16.5002  -21.0679 C.ar      4 PHE5        0.0000 
     52 CA         23.2994  -18.3066  -21.7362 C.3       5 GLY6        0.0000 
     53 CA         22.9214  -19.6976  -17.4733 C.3       5 GLY6        0.0000 
     54 CA         23.1302  -18.3356  -18.0660 C.3       5 GLY6        0.0000 
     55 CZ         23.3390  -16.9735  -18.6587 C.ar      4 PHE5        0.0000 
     56 CA         22.2414  -20.1421  -18.7343 C.3       5 GLY6        0.0000 
     57 CA         22.4501  -18.7800  -19.3269 C.3       5 GLY6        0.0000 
     58 CA         22.6589  -17.4180  -19.9196 C.3       5 GLY6        0.0000 
     59 CA         22.8677  -16.0559  -20.5123 C.3       5 GLY6        0.0000 
     60 CA         21.7701  -19.2245  -20.5879 C.3       5 GLY6        0.0000 
     61 CA         21.9789  -17.8624  -21.1806 C.3       5 GLY6        0.0000 
     62 CA         21.8096  -17.8914  -17.5103 C.3       5 GLY6        0.0000 
     63 CA         21.1296  -18.3358  -18.7713 C.3       5 GLY6        0.0000 
     64 CA         21.3383  -16.9738  -19.3640 C.3       5 GLY6        0.0000 
     65 CA         20.4495  -18.7803  -20.0322 C.3       5 GLY6        0.0000 
     66 CA         20.6583  -17.4182  -20.6249 C.3       5 GLY6        0.0000 
@<TRIPOS>BOND
@<TRIPOS>SUBSTRUCTURE
     1 SER1       14 GROUP   
     2 ALA2        1 GROUP   
     3 ASP3        3 GROUP   
     4 PHE5       12 GROUP   
     5 GLY6        5 GROUP   
     6 CUB7        7 GROUP   
@<TRIPOS>SET

