#    Name: 3oui_42Z_2_INTS_M
#    Modification time : Tue Mar 25 05:19:30 2014

@<TRIPOS>MOLECULE
3oui_42Z_2_INTS_M
   50     0    12     0     0
SMALL
NO_CHARGES


@<TRIPOS>ATOM
      1 CA         25.6225  -21.7495  -18.5790 C.3       4 GLC5        0.0000 
      2 CA         25.2700  -19.7430  -18.8520 C.3      12 GLL5        0.0000 
      3 CA         25.9750  -23.7560  -18.3060 C.3       8 GLP5        0.0000 
      4 CA         24.5635  -19.5955  -22.6230 C.3       4 GLC5        0.0000 
      5 CA         25.3000  -18.3720  -20.9230 C.3      12 GLL5        0.0000 
      6 CA         23.8270  -20.8190  -24.3230 C.3       8 GLP5        0.0000 
      7 CA         21.3395  -19.9990  -16.8875 C.3       4 GLC5        0.0000 
      8 CA         23.1030  -19.9150  -17.2040 C.3      12 GLL5        0.0000 
      9 CA         19.5760  -20.0830  -16.5710 C.3       8 GLP5        0.0000 
     10 CA         24.4005  -21.6760  -16.9995 C.3       4 GLC5        0.0000 
     11 CA         25.6980  -23.4370  -16.7950 C.3       8 GLP5        0.0000 
     12 CA         23.6380  -20.3955  -15.4470 C.3       4 GLC5        0.0000 
     13 CA         24.1730  -20.8760  -13.6900 C.3       8 GLP5        0.0000 
     14 CA         22.5835  -17.8360  -16.5795 C.3       4 GLC5        0.0000 
     15 CA         22.0640  -15.7570  -15.9550 C.3       8 GLP5        0.0000 
     16 CA         23.2665  -16.3405  -21.7805 C.3       4 GLC5        0.0000 
     17 CA         24.0020  -17.9400  -20.7120 C.3      12 GLL5        0.0000 
     18 CA         22.5310  -14.7410  -22.8490 C.3       8 GLP5        0.0000 
     19 CA         20.4785  -18.1925  -21.0335 C.3       4 GLC5        0.0000 
     20 CA         21.6520  -17.9160  -19.2570 C.3      12 GLL5        0.0000 
     21 CA         19.3050  -18.4690  -22.8100 C.3       8 GLP5        0.0000 
     22 CA         21.4075  -16.4925  -20.7600 C.3       4 GLC5        0.0000 
     23 CA         21.1630  -15.0690  -22.2630 C.3       8 GLP5        0.0000 
     24 CA         20.6140  -18.9995  -17.9140 C.3       4 GLC5        0.0000 
     25 CA         21.4695  -19.6900  -20.4285 C.3       4 GLC5        0.0000 
     26 CA         21.2870  -21.4640  -21.6000 C.3       8 GLP5        0.0000 
     27 CA         21.8580  -16.8365  -17.6060 C.3       4 GLC5        0.0000 
     28 O          27.8370  -20.5340  -19.7895 O.2       1 ALC1        0.0000 
     29 O          27.1770  -19.5410  -20.4200 O.2       9 ALL1        0.0000 
     30 O          28.4970  -21.5270  -19.1590 O.2       5 ALP1        0.0000 
     31 O          28.0220  -16.7585  -23.8875 O.2       1 ALC1        0.0000 
     32 O          28.7440  -17.9640  -23.3110 O.2       9 ALL1        0.0000 
     33 O          27.3000  -15.5530  -24.4640 O.2       5 ALP1        0.0000 
     34 NZ         28.4800  -20.1045  -26.6500 N.4       3 LYC4        0.0000 
     35 NZ         28.7370  -19.0570  -25.8080 N.4      11 LYL4        0.0000 
     36 NZ         28.2230  -21.1520  -27.4920 N.4       7 LYP4        0.0000 
     37 N          28.1100  -17.8230  -26.1395 N.am      2 SEC2        0.0000 
     38 N          28.7370  -19.0570  -25.8080 N.am     10 SEL2        0.0000 
     39 N          27.4830  -16.5890  -26.4710 N.am      6 SEP2        0.0000 
     40 N          28.4800  -20.1045  -26.6500 N.am      2 SEC2        0.0000 
     41 N          28.2230  -21.1520  -27.4920 N.am      6 SEP2        0.0000 
     42 NZ         29.4500  -19.6775  -26.9675 N.4       3 LYC4        0.0000 
     43 NZ         30.6770  -18.2030  -26.4430 N.4      11 LYL4        0.0000 
     44 CA         24.1537  -20.7250  -20.0008 C.3       4 GLC5        0.0000 
     45 CA         25.9390  -19.2910  -19.9630 C.3      12 GLL5        0.0000 
     46 CA         22.7030  -21.9330  -20.5940 C.3       8 GLP5        0.0000 
     47 CA         23.1212  -20.7750  -19.2583 C.3       4 GLC5        0.0000 
     48 CA         23.9760  -19.3190  -18.6410 C.3      12 GLL5        0.0000 
     49 CA         23.3472  -20.1050  -20.3989 C.3       4 GLC5        0.0000 
     50 CA         23.3320  -18.3980  -19.5900 C.3      12 GLL5        0.0000 
@<TRIPOS>BOND
@<TRIPOS>SUBSTRUCTURE
     1 ALC1       28 GROUP        1 X    ALC  0     ROOT ALC X 1
     2 SEC2       37 GROUP        1 X    SEC  0     **** SEC X 2
     3 LYC4       34 GROUP        1 X    LYC  0     **** LYC X 4
     4 GLC5        1 GROUP        1 X    GLC  0     **** GLC X 6
     5 ALP1       30 GROUP        1 Y    ALP  0     ROOT ALP Y 8
     6 SEP2       39 GROUP        1 Y    SEP  0     **** SEP Y 9
     7 LYP4       36 GROUP        1 Y    LYP  0     **** LYP Y 11
     8 GLP5        3 GROUP        1 Y    GLP  0     **** GLP Y 13
     9 ALL1       29 GROUP        1 Z    ALL  0     ROOT ALL Z 15
    10 SEL2       38 GROUP        1 Z    SEL  0     **** SEL Z 16
    11 LYL4       35 GROUP        1 Z    LYL  0     **** LYL Z 18
    12 GLL5        2 GROUP        1 Z    GLL  0     **** GLL Z 20
@<TRIPOS>SET

