#    Name: 3oui_42Z_2_ligand
#    Modification time : Tue Mar 25 05:19:30 2014

@<TRIPOS>MOLECULE
3oui_42Z_2_ligand
   24    25     1     0     0
SMALL
NO_CHARGES


@<TRIPOS>ATOM
      1 C1         25.2700  -19.7430  -18.8520 C.ar      1 42Z2        0.0000 
      2 C2         25.9390  -19.2910  -19.9630 C.ar      1 42Z2        0.0000 
      3 C3         25.3000  -18.3720  -20.9230 C.ar      1 42Z2        0.0000 
      4 CL3        23.1030  -19.9150  -17.2040 Cl        1 42Z2        0.0000 
      5 C4         24.0020  -17.9400  -20.7120 C.ar      1 42Z2        0.0000 
      6 CL4        21.6520  -17.9160  -19.2570 Cl        1 42Z2        0.0000 
      7 C5         23.3320  -18.3980  -19.5900 C.ar      1 42Z2        0.0000 
      8 C6         23.9760  -19.3190  -18.6410 C.ar      1 42Z2        0.0000 
      9 N13        26.2190  -18.1410  -21.8730 N.2       1 42Z2        0.0000 
     10 C14        27.3320  -18.8400  -21.5630 C.2       1 42Z2        0.0000 
     11 N15        27.1770  -19.5410  -20.4200 N.pl3     1 42Z2        0.0000 
     12 C24        28.5880  -18.8650  -22.3370 C.2       1 42Z2        0.0000 
     13 N26        28.7440  -17.9640  -23.3110 N.am      1 42Z2        0.0000 
     14 C28        29.7450  -18.4190  -25.5080 C.2       1 42Z2        0.0000 
     15 O30        28.7370  -19.0570  -25.8080 O.co2     1 42Z2        0.0000 
     16 O32        30.6770  -18.2030  -26.4430 O.co2     1 42Z2        0.0000 
     17 O34        29.4280  -19.7140  -22.0400 O.2       1 42Z2        0.0000 
     18 C43        29.9510  -17.8730  -24.1130 C.3       1 42Z2        0.0000 
     19 H          25.7221  -20.3826  -18.1921 H         1 42Z2        0.0000 
     20 H          23.5510  -17.3017  -21.3650 H         1 42Z2        0.0000 
     21 H          27.8325  -20.1114  -20.0125 H         1 42Z2        0.0000 
     22 H          27.9914  -17.2722  -23.5436 H         1 42Z2        0.0000 
     23 H          30.7765  -18.4330  -23.6403 H         1 42Z2        0.0000 
     24 H          30.2851  -16.8243  -24.1974 H         1 42Z2        0.0000 
@<TRIPOS>BOND
     1    2    1 ar   
     2    8    1 ar   
     3   19    1 1    
     4    3    2 ar   
     5   11    2 1    
     6    5    3 ar   
     7    9    3 1    
     8    8    4 1    
     9    7    5 ar   
    10   20    5 1    
    11    7    6 1    
    12    8    7 ar   
    13   10    9 2    
    14   11   10 1    
    15   12   10 1    
    16   21   11 1    
    17   13   12 am   
    18   17   12 2    
    19   18   13 1    
    20   22   13 1    
    21   15   14 ar   
    22   16   14 ar   
    23   18   14 1    
    24   23   18 1    
    25   24   18 1    
@<TRIPOS>SUBSTRUCTURE
     1 42Z2        1 GROUP   
@<TRIPOS>SET

