#    Name: 4kz0_1UJ_1_INTS_M
#    Modification time : Tue Mar 25 09:19:39 2014

@<TRIPOS>MOLECULE
4kz0_1UJ_1_INTS_M
   44     0     9     0     0
SMALL
NO_CHARGES


@<TRIPOS>ATOM
      1 CA         13.8680   14.1545   21.2500 C.3       3 GLC5        0.0000 
      2 CA         13.7410   14.1680   23.0620 C.3       9 GLL5        0.0000 
      3 CA         13.9950   14.1410   19.4380 C.3       6 GLP5        0.0000 
      4 CA         13.9140   12.3940   22.3635 C.3       3 GLC5        0.0000 
      5 CA         14.0870   10.6200   21.6650 C.3       6 GLP5        0.0000 
      6 CA         13.8895   14.9300   25.1235 C.3       3 GLC5        0.0000 
      7 CA         14.0380   15.6920   27.1850 C.3       6 GLP5        0.0000 
      8 O          15.2005   12.7080   24.4330 O.2       1 ALC1        0.0000 
      9 O          16.0290   13.3940   23.3640 O.2       7 ALL1        0.0000 
     10 O          14.3720   12.0220   25.5020 O.2       4 ALP1        0.0000 
     11 N          17.0760   11.1730   24.1820 N.am      2 SEC2        0.0000 
     12 N          18.0510   12.3450   23.8380 N.am      8 SEL2        0.0000 
     13 N          16.1010   10.0010   24.5260 N.am      5 SEP2        0.0000 
     14 CA         18.5230   14.9585   19.9515 C.3       3 GLC5        0.0000 
     15 CA         18.2870   14.1570   21.9670 C.3       9 GLL5        0.0000 
     16 CA         18.7590   15.7600   17.9360 C.3       6 GLP5        0.0000 
     17 CA         18.2290   15.5855   23.1170 C.3       3 GLC5        0.0000 
     18 CA         18.1710   17.0140   24.2670 C.3       6 GLP5        0.0000 
     19 CA         19.0945   10.6350   25.4760 C.3       3 GLC5        0.0000 
     20 CA         20.4020   11.5460   23.9630 C.3       9 GLL5        0.0000 
     21 CA         17.7870    9.7240   26.9890 C.3       6 GLP5        0.0000 
     22 CA         20.0105   12.6310   20.4890 C.3       3 GLC5        0.0000 
     23 CA         20.9950   13.3770   21.9160 C.3       9 GLL5        0.0000 
     24 CA         19.0260   11.8850   19.0620 C.3       6 GLP5        0.0000 
     25 N          25.4730   12.7970   23.0395 N.am      2 SEC2        0.0000 
     26 N          24.3150   11.9630   22.2440 N.am      8 SEL2        0.0000 
     27 N          26.6310   13.6310   23.8350 N.am      5 SEP2        0.0000 
     28 CA         25.9130   12.8660   18.4010 C.3       3 GLC5        0.0000 
     29 CA         24.6660   13.3730   19.9880 C.3       9 GLL5        0.0000 
     30 CA         27.1600   12.3590   16.8140 C.3       6 GLP5        0.0000 
     31 CA         26.0560   14.1840   20.9760 C.3       3 GLC5        0.0000 
     32 CA         27.4460   14.9950   21.9640 C.3       6 GLP5        0.0000 
     33 CA         19.1106   12.4599   20.9421 C.3       3 GLC5        0.0000 
     34 CA         19.7100   13.2700   22.4320 C.3       9 GLL5        0.0000 
     35 CA         21.8103   12.8130   24.7398 C.3       3 GLC5        0.0000 
     36 CA         21.6900   11.6550   23.4570 C.3       9 GLL5        0.0000 
     37 CA         22.8270   13.8230   25.8990 C.3       6 GLP5        0.0000 
     38 CA         19.8175   14.5745   23.6976 C.3       3 GLC5        0.0000 
     39 CA         19.3620   16.0540   24.9680 C.3       6 GLP5        0.0000 
     40 CA         21.9098   10.3734   22.1790 C.3       3 GLC5        0.0000 
     41 CA         22.2980    8.6700   21.2880 C.3       6 GLP5        0.0000 
     42 CA         22.1209   14.4716   22.8925 C.3       3 GLC5        0.0000 
     43 CA         21.9970   12.5530   22.4300 C.3       9 GLL5        0.0000 
     44 CA         23.0670   16.0050   23.4830 C.3       6 GLP5        0.0000 
@<TRIPOS>BOND
@<TRIPOS>SUBSTRUCTURE
     1 ALC1        8 GROUP        1 X    ALC  0     ROOT ALC X 1
     2 SEC2       11 GROUP        1 X    SEC  0     **** SEC X 2
     3 GLC5        1 GROUP        1 X    GLC  0     **** GLC X 6
     4 ALP1       10 GROUP        1 Y    ALP  0     ROOT ALP Y 8
     5 SEP2       13 GROUP        1 Y    SEP  0     **** SEP Y 9
     6 GLP5        3 GROUP        1 Y    GLP  0     **** GLP Y 13
     7 ALL1        9 GROUP        1 Z    ALL  0     ROOT ALL Z 15
     8 SEL2       12 GROUP        1 Z    SEL  0     **** SEL Z 16
     9 GLL5        2 GROUP        1 Z    GLL  0     **** GLL Z 20
@<TRIPOS>SET

