#    Name: 4kz0_1UJ_1_ligand
#    Modification time : Tue Mar 25 09:19:39 2014

@<TRIPOS>MOLECULE
4kz0_1UJ_1_ligand
   27    28     1     0     0
SMALL
NO_CHARGES


@<TRIPOS>ATOM
      1 O2         15.6280   15.2270   22.0480 O.2       1 1UJ1201     0.0000 
      2 C7         15.2040   14.3240   22.7660 C.2       1 1UJ1201     0.0000 
      3 C8         13.7410   14.1680   23.0620 C.3       1 1UJ1201     0.0000 
      4 N1         16.0290   13.3940   23.3640 N.am      1 1UJ1201     0.0000 
      5 C6         17.3860   13.2310   23.1480 C.2       1 1UJ1201     0.0000 
      6 N          18.0510   12.3450   23.8380 N.2       1 1UJ1201     0.0000 
      7 S          18.2870   14.1570   21.9670 S.3       1 1UJ1201     0.0000 
      8 C9         19.7100   13.2700   22.4320 C.ar      1 1UJ1201     0.0000 
      9 C5         19.3920   12.3560   23.4450 C.ar      1 1UJ1201     0.0000 
     10 C4         20.4020   11.5460   23.9630 C.ar      1 1UJ1201     0.0000 
     11 C3         21.6900   11.6550   23.4570 C.ar      1 1UJ1201     0.0000 
     12 C10        20.9950   13.3770   21.9160 C.ar      1 1UJ1201     0.0000 
     13 C2         21.9970   12.5530   22.4300 C.ar      1 1UJ1201     0.0000 
     14 C1         23.3650   12.5760   21.8170 C.2       1 1UJ1201     0.0000 
     15 O1         24.3150   11.9630   22.2440 O.2       1 1UJ1201     0.0000 
     16 O          23.4290   13.3810   20.7470 O.3       1 1UJ1201     0.0000 
     17 C          24.6660   13.3730   19.9880 C.3       1 1UJ1201     0.0000 
     18 H          15.5701   12.7235   24.0739 H         1 1UJ1201     0.0000 
     19 H          20.1925   10.8777   24.7099 H         1 1UJ1201     0.0000 
     20 H          22.4448   11.0589   23.8465 H         1 1UJ1201     0.0000 
     21 H          21.2055   14.0447   21.1749 H         1 1UJ1201     0.0000 
     22 H          13.5644   13.3862   23.6600 H         1 1UJ1201     0.0000 
     23 H          13.3660   14.9756   23.5170 H         1 1UJ1201     0.0000 
     24 H          13.2065   14.0264   22.2288 H         1 1UJ1201     0.0000 
     25 H          25.4478   13.6451   20.5491 H         1 1UJ1201     0.0000 
     26 H          24.8705   12.4656   19.6207 H         1 1UJ1201     0.0000 
     27 H          24.6294   14.0021   19.2115 H         1 1UJ1201     0.0000 
@<TRIPOS>BOND
     1    2    1 2    
     2    3    2 1    
     3    4    2 am   
     4   22    3 1    
     5   23    3 1    
     6   24    3 1    
     7    5    4 1    
     8   18    4 1    
     9    6    5 2    
    10    7    5 1    
    11    9    6 1    
    12    8    7 1    
    13    9    8 ar   
    14   12    8 ar   
    15   10    9 ar   
    16   11   10 ar   
    17   19   10 1    
    18   13   11 ar   
    19   20   11 1    
    20   13   12 ar   
    21   21   12 1    
    22   14   13 1    
    23   15   14 2    
    24   16   14 1    
    25   17   16 1    
    26   25   17 1    
    27   26   17 1    
    28   27   17 1    
@<TRIPOS>SUBSTRUCTURE
     1 1UJ1201     1 GROUP   
@<TRIPOS>SET

