#    Name: 4b0q_GMF_1_INTS_M
#    Modification time : Tue Mar 25 06:27:33 2014

@<TRIPOS>MOLECULE
4b0q_GMF_1_INTS_M
   56     0    12     0     0
SMALL
NO_CHARGES


@<TRIPOS>ATOM
      1 O           3.2185    3.1245  -20.9240 O.2       1 ALC1        0.0000 
      2 O           4.3730    2.9050  -20.1860 O.2       9 ALL1        0.0000 
      3 O           2.0640    3.3440  -21.6620 O.2       5 ALP1        0.0000 
      4 O           1.8985    3.5975  -19.2590 O.2       1 ALC1        0.0000 
      5 O           3.0600    3.7770  -18.6290 O.2       9 ALL1        0.0000 
      6 O           0.7370    3.4180  -19.8890 O.2       5 ALP1        0.0000 
      7 O           2.5620    3.5605  -20.1455 O.2       1 ALC1        0.0000 
      8 O           2.7660    4.1150  -17.1320 O.2       1 ALC1        0.0000 
      9 O           2.4720    4.4530  -15.6350 O.2       5 ALP1        0.0000 
     10 OD1         1.8985    3.5975  -19.2590 O.co2     3 ASC3        0.0000 
     11 OD1         4.3190    3.3190  -18.8880 O.co2    11 ASL3        0.0000 
     12 OD1         0.7370    3.4180  -19.8890 O.co2     7 ASP3        0.0000 
     13 OD1         3.1915    3.3315  -20.2750 O.co2     3 ASC3        0.0000 
     14 OD1         2.0640    3.3440  -21.6620 O.co2     7 ASP3        0.0000 
     15 OD1         2.7660    4.1150  -17.1320 O.co2     3 ASC3        0.0000 
     16 OD1         2.4720    4.4530  -15.6350 O.co2     7 ASP3        0.0000 
     17 N           7.3385    5.1770  -25.3685 N.am      2 SEC2        0.0000 
     18 N           6.6260    5.2920  -23.9930 N.am     10 SEL2        0.0000 
     19 N           8.0510    5.0620  -26.7440 N.am      6 SEP2        0.0000 
     20 CA          6.4315   -3.6510  -21.4780 C.3       4 GLC5        0.0000 
     21 CA          5.9700   -1.6420  -21.7180 C.3      12 GLL5        0.0000 
     22 CA          6.8930   -5.6600  -21.2380 C.3       8 GLP5        0.0000 
     23 CA          1.6910   -3.0355  -19.9435 C.3       4 GLC5        0.0000 
     24 CA          2.8550   -2.9630  -18.2520 C.3      12 GLL5        0.0000 
     25 CA          0.5270   -3.1080  -21.6350 C.3       8 GLP5        0.0000 
     26 CA          0.9335   -4.3715  -17.8650 C.3       4 GLC5        0.0000 
     27 CA          1.4130   -3.1140  -16.4110 C.3      12 GLL5        0.0000 
     28 CA          0.4540   -5.6290  -19.3190 C.3       8 GLP5        0.0000 
     29 CA          1.2540   -1.1980  -17.1920 C.3       4 GLC5        0.0000 
     30 CA          1.0950    0.7180  -17.9730 C.3       8 GLP5        0.0000 
     31 CA          2.2290   -1.3610  -15.5500 C.3       4 GLC5        0.0000 
     32 CA          3.0450    0.3920  -14.6890 C.3       8 GLP5        0.0000 
     33 CA          2.1615   -3.0150  -14.5670 C.3       4 GLC5        0.0000 
     34 CA          2.9100   -2.9160  -12.7230 C.3       8 GLP5        0.0000 
     35 CA         -0.0365   -3.0965  -14.9510 C.3       4 GLC5        0.0000 
     36 CA         -1.4860   -3.0790  -13.4910 C.3       8 GLP5        0.0000 
     37 CA          3.8565    5.3735  -22.9952 C.3       4 GLC5        0.0000 
     38 CA          5.0470    3.7700  -22.9850 C.3      12 GLL5        0.0000 
     39 CA          2.4670    6.5320  -22.5160 C.3       8 GLP5        0.0000 
     40 CA          4.7060    2.3841  -23.9070 C.3       4 GLC5        0.0000 
     41 CA          5.4450    4.6600  -23.9640 C.3      12 GLL5        0.0000 
     42 CA          3.9440    0.6220  -24.5950 C.3       8 GLP5        0.0000 
     43 CA          5.1207   -0.2742  -23.3493 C.3       4 GLC5        0.0000 
     44 CA          6.6250   -0.6990  -22.4890 C.3      12 GLL5        0.0000 
     45 CA          3.4951   -0.8575  -21.5204 C.3       4 GLC5        0.0000 
     46 CA          1.6700   -1.0430  -22.2580 C.3       8 GLP5        0.0000 
     47 CA          4.7627    0.5513  -22.8147 C.3       4 GLC5        0.0000 
     48 CA          5.0610    0.1050  -20.3860 C.3      12 GLL5        0.0000 
     49 CA          1.8357   -4.5745  -18.6917 C.3       4 GLC5        0.0000 
     50 CA          2.0983   -0.9022  -18.3477 C.3       4 GLC5        0.0000 
     51 CA          2.8193   -1.6055  -20.8678 C.3       4 GLC5        0.0000 
     52 CA          3.3480   -2.0820  -19.1930 C.3      12 GLL5        0.0000 
     53 CA          3.7252   -6.1100  -18.3573 C.3       4 GLC5        0.0000 
     54 CA          4.8170   -4.2950  -18.4560 C.3      12 GLL5        0.0000 
     55 CA          3.2520   -8.0340  -18.5480 C.3       8 GLP5        0.0000 
     56 CA          5.8875   -4.6065  -20.1227 C.3       4 GLC5        0.0000 
@<TRIPOS>BOND
@<TRIPOS>SUBSTRUCTURE
     1 ALC1        1 GROUP        1 X    ALC  0     ROOT ALC X 1
     2 SEC2       17 GROUP        1 X    SEC  0     **** SEC X 2
     3 ASC3       10 GROUP        1 X    ASC  0     **** ASC X 3
     4 GLC5       20 GROUP        1 X    GLC  0     **** GLC X 6
     5 ALP1        3 GROUP        1 Y    ALP  0     ROOT ALP Y 8
     6 SEP2       19 GROUP        1 Y    SEP  0     **** SEP Y 9
     7 ASP3       12 GROUP        1 Y    ASP  0     **** ASP Y 10
     8 GLP5       22 GROUP        1 Y    GLP  0     **** GLP Y 13
     9 ALL1        2 GROUP        1 Z    ALL  0     ROOT ALL Z 15
    10 SEL2       18 GROUP        1 Z    SEL  0     **** SEL Z 16
    11 ASL3       11 GROUP        1 Z    ASL  0     **** ASL Z 17
    12 GLL5       21 GROUP        1 Z    GLL  0     **** GLL Z 20
@<TRIPOS>SET

