#    Name: 4b0q_GMF_1_ligand
#    Modification time : Tue Mar 25 06:27:33 2014

@<TRIPOS>MOLECULE
4b0q_GMF_1_ligand
   45    47     1     0     0
SMALL
NO_CHARGES


@<TRIPOS>ATOM
      1 N1          5.2720    3.2730  -18.0120 N.pl3     1 GMF1385     0.0000 
      2 O1          1.5980   -2.6570  -17.7490 O.3       1 GMF1385     0.0000 
      3 N2          4.3730    2.9050  -20.1860 N.pl3     1 GMF1385     0.0000 
      4 C3          5.6010    2.5340  -20.8510 C.3       1 GMF1385     0.0000 
      5 N3          3.0600    3.7770  -18.6290 N.pl3     1 GMF1385     0.0000 
      6 C4          4.3190    3.3190  -18.8880 C.cat     1 GMF1385     0.0000 
      7 N4          6.6260    5.2920  -23.9930 N.ar      1 GMF1385     0.0000 
      8 C5          5.9350    3.4950  -21.9630 C.ar      1 GMF1385     0.0000 
      9 C6          7.1690    4.1200  -21.9720 C.ar      1 GMF1385     0.0000 
     10 C7          7.4670    5.0020  -22.9940 C.ar      1 GMF1385     0.0000 
     11 C8          5.4450    4.6600  -23.9640 C.ar      1 GMF1385     0.0000 
     12 C9          5.0470    3.7700  -22.9850 C.ar      1 GMF1385     0.0000 
     13 C10         5.6970    1.0660  -21.1650 C.ar      1 GMF1385     0.0000 
     14 C11         6.5070    0.6460  -22.2010 C.ar      1 GMF1385     0.0000 
     15 C12         6.6250   -0.6990  -22.4890 C.ar      1 GMF1385     0.0000 
     16 C13         5.9700   -1.6420  -21.7180 C.ar      1 GMF1385     0.0000 
     17 C14         5.1890   -1.2560  -20.6410 C.ar      1 GMF1385     0.0000 
     18 C15         5.0610    0.1050  -20.3860 C.ar      1 GMF1385     0.0000 
     19 C30         2.8550   -2.9630  -18.2520 C.ar      1 GMF1385     0.0000 
     20 C16         4.5890   -2.2540  -19.7620 C.ar      1 GMF1385     0.0000 
     21 C17         5.3050   -3.3680  -19.3560 C.ar      1 GMF1385     0.0000 
     22 C18         4.8170   -4.2950  -18.4560 C.ar      1 GMF1385     0.0000 
     23 C1          1.4130   -3.1140  -16.4110 C.3       1 GMF1385     0.0000 
     24 C19         3.5800   -4.0770  -17.8770 C.ar      1 GMF1385     0.0000 
     25 C20         3.3480   -2.0820  -19.1930 C.ar      1 GMF1385     0.0000 
     26 H           3.4975    2.8413  -20.7589 H         1 GMF1385     0.0000 
     27 H           6.4378    2.7202  -20.0565 H         1 GMF1385     0.0000 
     28 H           2.8900    4.0929  -17.6955 H         1 GMF1385     0.0000 
     29 H           2.4180    3.7565  -19.3954 H         1 GMF1385     0.0000 
     30 H           7.8517    3.9318  -21.2321 H         1 GMF1385     0.0000 
     31 H           8.4240    5.4669  -22.9679 H         1 GMF1385     0.0000 
     32 H           4.7434    4.8481  -24.7536 H         1 GMF1385     0.0000 
     33 H           4.1304    3.3318  -23.0158 H         1 GMF1385     0.0000 
     34 H           7.0265    1.3403  -22.7625 H         1 GMF1385     0.0000 
     35 H           7.2076   -1.0050  -23.2874 H         1 GMF1385     0.0000 
     36 H           6.0637   -2.6472  -21.9474 H         1 GMF1385     0.0000 
     37 H           4.4693    0.4153  -19.5851 H         1 GMF1385     0.0000 
     38 H           6.2694   -3.5140  -19.7543 H         1 GMF1385     0.0000 
     39 H           5.3608   -5.1294  -18.2209 H         1 GMF1385     0.0000 
     40 H           3.2091   -4.7307  -17.1825 H         1 GMF1385     0.0000 
     41 H           2.7638   -1.2657  -19.4789 H         1 GMF1385     0.0000 
     42 H           1.5115   -4.1066  -16.3406 H         1 GMF1385     0.0000 
     43 H           2.0786   -2.7083  -15.7846 H         1 GMF1385     0.0000 
     44 H           0.5044   -2.8842  -16.0623 H         1 GMF1385     0.0000 
     45 H           6.0721    2.9490  -18.5169 H         1 GMF1385     0.0000 
@<TRIPOS>BOND
     1    6    1 ar   
     2   45    1 1    
     3   19    2 1    
     4   23    2 1    
     5    4    3 1    
     6    6    3 ar   
     7   26    3 1    
     8    8    4 1    
     9   13    4 1    
    10   27    4 1    
    11    6    5 ar   
    12   28    5 1    
    13   29    5 1    
    14   10    7 ar   
    15   11    7 ar   
    16    9    8 ar   
    17   12    8 ar   
    18   10    9 ar   
    19   30    9 1    
    20   31   10 1    
    21   12   11 ar   
    22   32   11 1    
    23   33   12 1    
    24   14   13 ar   
    25   18   13 ar   
    26   15   14 ar   
    27   34   14 1    
    28   16   15 ar   
    29   35   15 1    
    30   17   16 ar   
    31   36   16 1    
    32   18   17 ar   
    33   20   17 1    
    34   37   18 1    
    35   24   19 ar   
    36   25   19 ar   
    37   21   20 ar   
    38   25   20 ar   
    39   22   21 ar   
    40   38   21 1    
    41   24   22 ar   
    42   39   22 1    
    43   42   23 1    
    44   43   23 1    
    45   44   23 1    
    46   40   24 1    
    47   41   25 1    
@<TRIPOS>SUBSTRUCTURE
     1 GMF1385     1 GROUP   
@<TRIPOS>SET

