#    Name: 4f74_SER_GLN_ASN_TYR_1_INTS_M
#    Modification time : Mon Mar 24 19:00:53 2014

@<TRIPOS>MOLECULE
4f74_SER_GLN_ASN_TYR_1_INTS_M
   61     0    12     0     0
SMALL
NO_CHARGES


@<TRIPOS>ATOM
      1 OD1        26.4510    5.7810   21.9745 O.co2     3 ASC3        0.0000 
      2 OD1        25.6200    5.4400   22.8170 O.co2    11 ASL3        0.0000 
      3 OD1        27.2820    6.1220   21.1320 O.co2     7 ASP3        0.0000 
      4 CA         26.0385    3.7560   24.0545 C.3       4 GLC5        0.0000 
      5 CA         24.5900    5.3450   23.9020 C.3      12 GLL5        0.0000 
      6 CA         27.4870    2.1670   24.2070 C.3       8 GLP5        0.0000 
      7 N          23.2200    2.1365   24.4385 N.am      2 SEC2        0.0000 
      8 N          23.1910    3.4280   23.9850 N.am     10 SEL2        0.0000 
      9 N          23.2490    0.8450   24.8920 N.am      6 SEP2        0.0000 
     10 O          22.6450    6.2225   21.5840 O.2       1 ALC1        0.0000 
     11 O          22.7340    4.9030   22.3480 O.2       9 ALL1        0.0000 
     12 O          22.5560    7.5420   20.8200 O.2       5 ALP1        0.0000 
     13 N          22.8765    5.0080   18.3915 N.am      2 SEC2        0.0000 
     14 N          22.0770    4.4120   19.4520 N.am     10 SEL2        0.0000 
     15 N          23.6760    5.6040   17.3310 N.am      6 SEP2        0.0000 
     16 O          21.9915    1.4095   21.2605 O.2       1 ALC1        0.0000 
     17 O          21.9050    2.2780   20.1530 O.2       9 ALL1        0.0000 
     18 O          22.0780    0.5410   22.3680 O.2       5 ALP1        0.0000 
     19 CA         22.7070    2.7365   17.3620 C.3       4 GLC5        0.0000 
     20 CA         22.3630    1.6660   18.9040 C.3      12 GLL5        0.0000 
     21 CA         23.0510    3.8070   15.8200 C.3       8 GLP5        0.0000 
     22 CA         23.9705    1.9730   17.3105 C.3       4 GLC5        0.0000 
     23 CA         23.7910    1.1760   19.1030 C.3      12 GLL5        0.0000 
     24 CA         24.1500    2.7700   15.5180 C.3       8 GLP5        0.0000 
     25 CA         24.8025    0.3455   17.4240 C.3       4 GLC5        0.0000 
     26 CA         25.8140   -0.4850   15.7450 C.3       8 GLP5        0.0000 
     27 CA         24.4735   -0.5820   19.1605 C.3       4 GLC5        0.0000 
     28 CA         25.1560   -2.3400   19.2180 C.3       8 GLP5        0.0000 
     29 N          25.7720    4.2705   18.3150 N.am      2 SEC2        0.0000 
     30 N          25.1870    3.0710   18.8300 N.am     10 SEL2        0.0000 
     31 N          26.3570    5.4700   17.8000 N.am      6 SEP2        0.0000 
     32 O          20.4435    2.2260   16.7605 O.2       1 ALC1        0.0000 
     33 O          20.5880    0.9300   17.4370 O.2       9 ALL1        0.0000 
     34 O          20.2990    3.5220   16.0840 O.2       5 ALP1        0.0000 
     35 N          22.0635    0.1535   14.1330 N.am      2 SEC2        0.0000 
     36 N          21.0520    0.2430   14.9420 N.am     10 SEL2        0.0000 
     37 N          23.0750    0.0640   13.3240 N.am      6 SEP2        0.0000 
     38 O          18.4390   -0.2510   14.1115 O.2       1 ALC1        0.0000 
     39 O          19.3160   -1.0010   14.6730 O.2       9 ALL1        0.0000 
     40 O          17.5620    0.4990   13.5500 O.2       5 ALP1        0.0000 
     41 CA         17.3702    2.8247   16.6670 C.3       4 GLC5        0.0000 
     42 CA         18.2230    0.6730   16.8250 C.3      12 GLL5        0.0000 
     43 CA         16.6900    4.7370   15.8230 C.3       8 GLP5        0.0000 
     44 CA         15.9803    1.6923   18.8472 C.3       4 GLC5        0.0000 
     45 CA         17.8780    1.1520   18.1970 C.3      12 GLL5        0.0000 
     46 CA         14.2270    2.6900   18.9960 C.3       8 GLP5        0.0000 
     47 CA         18.9630   -0.5992   20.8230 C.3       4 GLC5        0.0000 
     48 CA         17.5890    0.2370   19.2000 C.3      12 GLL5        0.0000 
     49 CA         20.4730   -1.6450   21.8040 C.3       8 GLP5        0.0000 
     50 CA         17.3105   -1.4242   20.4060 C.3       4 GLC5        0.0000 
     51 CA         17.3170    0.6560   20.4840 C.3      12 GLL5        0.0000 
     52 CA         17.1680   -3.2950   20.9700 C.3       8 GLP5        0.0000 
     53 CA         16.1554   -0.0051   17.4453 C.3       4 GLC5        0.0000 
     54 CA         14.4910   -0.5850   16.5350 C.3       8 GLP5        0.0000 
     55 CA         17.2438    3.7275   17.4960 C.3       4 GLC5        0.0000 
     56 CA         17.9300    2.5020   18.5210 C.3      12 GLL5        0.0000 
     57 CA         16.0122    2.7040   19.0825 C.3       4 GLC5        0.0000 
     58 CA         16.1157    0.8033   21.7600 C.3       4 GLC5        0.0000 
     59 CA         17.3580    2.0030   20.7920 C.3      12 GLL5        0.0000 
     60 CA         14.8940    0.2770   22.8820 C.3       8 GLP5        0.0000 
     61 CA         15.7823    2.0097   19.8170 C.3       4 GLC5        0.0000 
@<TRIPOS>BOND
@<TRIPOS>SUBSTRUCTURE
     1 ALC1       10 GROUP        1 X    ALC  0     ROOT ALC X 1
     2 SEC2        7 GROUP        1 X    SEC  0     **** SEC X 2
     3 ASC3        1 GROUP        1 X    ASC  0     **** ASC X 3
     4 GLC5        4 GROUP        1 X    GLC  0     **** GLC X 6
     5 ALP1       12 GROUP        1 Y    ALP  0     ROOT ALP Y 8
     6 SEP2        9 GROUP        1 Y    SEP  0     **** SEP Y 9
     7 ASP3        3 GROUP        1 Y    ASP  0     **** ASP Y 10
     8 GLP5        6 GROUP        1 Y    GLP  0     **** GLP Y 13
     9 ALL1       11 GROUP        1 Z    ALL  0     ROOT ALL Z 15
    10 SEL2        8 GROUP        1 Z    SEL  0     **** SEL Z 16
    11 ASL3        2 GROUP        1 Z    ASL  0     **** ASL Z 17
    12 GLL5        5 GROUP        1 Z    GLL  0     **** GLL Z 20
@<TRIPOS>SET

