#    Name: 4f74_SER_GLN_ASN_TYR_1_ligand
#    Modification time : Mon Mar 24 19:00:53 2014

@<TRIPOS>MOLECULE
4f74_SER_GLN_ASN_TYR_1_ligand
   67    67     4     0     0
SMALL
NO_CHARGES


@<TRIPOS>ATOM
      1 N          25.6200    5.4400   22.8170 N.4       1 SER2        0.0000
      2 CA         24.5900    5.3450   23.9020 C.3       1 SER2        0.0000
      3 C          23.4360    4.4880   23.4030 C.2       1 SER2        0.0000
      4 O          23.1910    3.4280   23.9850 O.2       1 SER2        0.0000
      5 CB         24.0860    6.7100   24.3750 C.3       1 SER2        0.0000
      6 OG         23.1200    6.6150   25.4160 O.3       1 SER2        0.0000
      7 HA         25.0321    4.8276   24.7586 H         1 SER2        0.0000
      8 HB2        23.6774    7.2363   23.4871 H         1 SER2        0.0000
      9 HB3        24.9728    7.2962   24.6947 H         1 SER2        0.0000
     10 HNCA       26.4036    5.9949   23.0964 H         1 SER2        0.0000
     11 H          25.9741    4.5404   22.5613 H         1 SER2        0.0000
     12 H          25.2478    5.8553   21.9869 H         1 SER2        0.0000
     13 HG         23.6280    6.2830   26.2108 H         1 SER2        0.0000
     14 N          22.7340    4.9030   22.3480 N.am      2 GLN3        0.0000
     15 CA         21.6500    4.0570   21.7890 C.3       2 GLN3        0.0000
     16 C          21.9180    3.5940   20.3540 C.2       2 GLN3        0.0000
     17 O          22.0770    4.4120   19.4520 O.2       2 GLN3        0.0000
     18 CB         20.2770    4.7420   21.8530 C.3       2 GLN3        0.0000
     19 CG         19.8530    5.1580   23.2560 C.3       2 GLN3        0.0000
     20 CD         18.4400    5.7340   23.2960 C.2       2 GLN3        0.0000
     21 OE1        18.2080    6.8030   23.8880 O.2       2 GLN3        0.0000
     22 NE2        17.4920    5.0360   22.6590 N.am      2 GLN3        0.0000
     23 HNCA       22.8924    5.7996   21.8733 H         2 GLN3        0.0000
     24 HA         21.5633    3.1351   22.4058 H         2 GLN3        0.0000
     25 HB2        19.5210    4.0562   21.4356 H         2 GLN3        0.0000
     26 HB3        20.2965    5.6323   21.2026 H         2 GLN3        0.0000
     27 HG2        20.5564    5.9089   23.6368 H         2 GLN3        0.0000
     28 HG3        19.9030    4.2864   23.9204 H         2 GLN3        0.0000
     29 HE21       16.5724    5.4287   22.6726 H         2 GLN3        0.0000
     30 HE22       17.7883    4.1844   22.2266 H         2 GLN3        0.0000
     31 N          21.9050    2.2780   20.1530 N.am      3 ASN4        0.0000
     32 CA         22.3630    1.6660   18.9040 C.3       3 ASN4        0.0000
     33 C          21.4460    0.5580   18.3820 C.2       3 ASN4        0.0000
     34 O          21.5140   -0.5880   18.8220 O.2       3 ASN4        0.0000
     35 CB         23.7910    1.1760   19.1030 C.3       3 ASN4        0.0000
     36 CG         24.6850    2.2800   19.6160 C.2       3 ASN4        0.0000
     37 OD1        25.1870    3.0710   18.8300 O.2       3 ASN4        0.0000
     38 ND2        24.8220    2.3910   20.9360 N.am      3 ASN4        0.0000
     39 HNCA       21.5650    1.6082   20.8809 H         3 ASN4        0.0000
     40 HA         22.4110    2.4528   18.1240 H         3 ASN4        0.0000
     41 HB2        24.1774    0.8058   18.1494 H         3 ASN4        0.0000
     42 HB3        23.7877    0.3469   19.8160 H         3 ASN4        0.0000
     43 HD21       25.4018    3.1399   21.2568 H         3 ASN4        0.0000
     44 HD22       24.3327    1.7154   21.4875 H         3 ASN4        0.0000
     45 N          20.5880    0.9300   17.4370 N.am      4 TYR5        0.0000
     46 CA         19.6110    0.0270   16.8180 C.3       4 TYR5        0.0000
     47 C          20.0240   -0.2770   15.3870 C.2       4 TYR5        0.0000
     48 O          21.0520    0.2430   14.9420 O.2       4 TYR5        0.0000
     49 CB         18.2230    0.6730   16.8250 C.3       4 TYR5        0.0000
     50 CG         17.8780    1.1520   18.1970 C.ar      4 TYR5        0.0000
     51 CD1        17.5890    0.2370   19.2000 C.ar      4 TYR5        0.0000
     52 CD2        17.9300    2.5020   18.5210 C.ar      4 TYR5        0.0000
     53 CE1        17.3170    0.6560   20.4840 C.ar      4 TYR5        0.0000
     54 CE2        17.6650    2.9340   19.8170 C.ar      4 TYR5        0.0000
     55 CZ         17.3580    2.0030   20.7920 C.ar      4 TYR5        0.0000
     56 OH         17.0890    2.3940   22.0830 O.3       4 TYR5        0.0000
     57 OXT        19.3160   -1.0010   14.6730 O.3       4 TYR5        0.0000
     58 HNCA       20.5639    1.9199   17.0730 H         4 TYR5        0.0000
     59 HA         19.5562   -0.8989   17.3641 H         4 TYR5        0.0000
     60 HB2        17.4929   -0.0643   16.4894 H         4 TYR5        0.0000
     61 HB3        18.2230    1.5083   16.1239 H         4 TYR5        0.0000
     62 HD1        17.5788   -0.7756   18.9751 H         4 TYR5        0.0000
     63 HD2        18.1683    3.1946   17.7914 H         4 TYR5        0.0000
     64 HE1        17.0831   -0.0321   21.2152 H         4 TYR5        0.0000
     65 HE2        17.6981    3.9332   20.0424 H         4 TYR5        0.0000
     66 HH         16.2796    2.1538   22.6191 H         4 TYR5        0.0000
     67 H          18.4274   -0.5434   14.6413 H         4 TYR5        0.0000
@<TRIPOS>BOND
     1    2    1 1
     2   10    1 1
     3   11    1 1
     4   12    1 1
     5    3    2 1
     6    5    2 1
     7    7    2 1
     8    4    3 2
     9    6    5 1
    10    8    5 1
    11    9    5 1
    12   13    6 1
    13   15   14 1
    14   23   14 1
    15   16   15 1
    16   18   15 1
    17   24   15 1
    18   17   16 2
    19   19   18 1
    20   25   18 1
    21   26   18 1
    22   20   19 1
    23   27   19 1
    24   28   19 1
    25   21   20 2
    26   22   20 am
    27   29   22 1
    28   30   22 1
    29   32   31 1
    30   39   31 1
    31   33   32 1
    32   35   32 1
    33   40   32 1
    34   34   33 2
    35   36   35 1
    36   41   35 1
    37   42   35 1
    38   37   36 2
    39   38   36 am
    40   43   38 1
    41   44   38 1
    42   46   45 1
    43   58   45 1
    44   47   46 1
    45   49   46 1
    46   59   46 1
    47   48   47 2
    48   57   47 1
    49   50   49 1
    50   60   49 1
    51   61   49 1
    52   51   50 ar
    53   52   50 ar
    54   53   51 ar
    55   62   51 1
    56   54   52 ar
    57   63   52 1
    58   55   53 ar
    59   64   53 1
    60   55   54 ar
    61   65   54 1
    62   56   55 1
    63   66   56 1
    64   67   57 1
    65   14    3 am
    66   31   16 am
    67   45   33 am
@<TRIPOS>SUBSTRUCTURE
     1 SER2        1 RESIDUE
     2 GLN3       14 RESIDUE
     3 ASN4       31 RESIDUE
     4 TYR5       45 RESIDUE
@<TRIPOS>SET

