#    Name: 1nqv_LMZ_2_INTS_M
#    Modification time : Mon Mar 24 18:41:03 2014

@<TRIPOS>MOLECULE
1nqv_LMZ_2_INTS_M
   54     0     9     0     0
SMALL
NO_CHARGES


@<TRIPOS>ATOM
      1 O         138.5185   -4.4725  149.0535 O.2       1 ALC1        0.0000 
      2 O         138.9660   -5.6160  148.3960 O.2       7 ALL1        0.0000 
      3 O         138.0710   -3.3290  149.7110 O.2       4 ALP1        0.0000 
      4 CA        139.2510   -8.1655  149.8330 C.3       3 GLC5        0.0000 
      5 CA        140.2190   -7.5590  148.5270 C.3       9 GLL5        0.0000 
      6 CA        138.2830   -8.7720  151.1390 C.3       6 GLP5        0.0000 
      7 CA        138.0665   -8.9280  148.2260 C.3       3 GLC5        0.0000 
      8 CA        139.3620   -8.1200  147.4210 C.3       9 GLL5        0.0000 
      9 CA        136.7710   -9.7360  149.0310 C.3       6 GLP5        0.0000 
     10 CA        140.9935   -8.2475  145.9980 C.3       3 GLC5        0.0000 
     11 CA        142.6250   -8.3750  144.5750 C.3       6 GLP5        0.0000 
     12 CA        137.6685   -9.8185  147.4880 C.3       3 GLC5        0.0000 
     13 CA        138.5660   -9.9010  145.9450 C.3       9 GLL5        0.0000 
     14 CA        140.7525   -8.9550  144.5375 C.3       3 GLC5        0.0000 
     15 CA        138.8800   -9.5350  144.5000 C.3       9 GLL5        0.0000 
     16 N         138.3095   -7.1395  143.0580 N.am      2 SEC2        0.0000 
     17 N         138.5250   -8.1640  144.2220 N.am      8 SEL2        0.0000 
     18 N         138.0940   -6.1150  141.8940 N.am      5 SEP2        0.0000 
     19 O         136.0680   -9.8255  142.7930 O.2       1 ALC1        0.0000 
     20 O         136.7370  -10.4400  143.8190 O.2       7 ALL1        0.0000 
     21 O         135.3990   -9.2110  141.7670 O.2       4 ALP1        0.0000 
     22 O         140.5915  -12.9905  142.5105 O.2       1 ALC1        0.0000 
     23 O         140.0570  -11.8760  143.2530 O.2       7 ALL1        0.0000 
     24 O         141.1260  -14.1050  141.7680 O.2       4 ALP1        0.0000 
     25 CA        137.3570  -13.4730  140.4855 C.3       3 GLC5        0.0000 
     26 CA        137.9620  -12.8050  142.4450 C.3       9 GLL5        0.0000 
     27 CA        136.7520  -14.1410  138.5260 C.3       6 GLP5        0.0000 
     28 CA        139.5130  -13.1970  140.9480 C.3       3 GLC5        0.0000 
     29 CA        141.0640  -13.5890  139.4510 C.3       6 GLP5        0.0000 
     30 CA        137.5790  -14.7985  142.2300 C.3       3 GLC5        0.0000 
     31 CA        137.1960  -16.7920  142.0150 C.3       6 GLP5        0.0000 
     32 CA        136.0275  -13.2380  142.1225 C.3       3 GLC5        0.0000 
     33 CA        134.0930  -13.6710  141.8000 C.3       6 GLP5        0.0000 
     34 N         138.8635  -12.8950  140.1350 N.am      2 SEC2        0.0000 
     35 N         138.0760  -12.2500  141.1330 N.am      8 SEL2        0.0000 
     36 N         139.6510  -13.5400  139.1370 N.am      5 SEP2        0.0000 
     37 O         137.0755  -11.5295  140.7505 O.2       1 ALC1        0.0000 
     38 O         138.0760  -12.2500  141.1330 O.2       7 ALL1        0.0000 
     39 O         136.0750  -10.8090  140.3680 O.2       4 ALP1        0.0000 
     40 N         141.2255   -4.6070  150.6470 N.am      2 SEC2        0.0000 
     41 N         140.5340   -5.8860  149.9760 N.am      8 SEL2        0.0000 
     42 N         141.9170   -3.3280  151.3180 N.am      5 SEP2        0.0000 
     43 N         136.9900   -5.4205  145.5130 N.am      2 SEC2        0.0000 
     44 N         137.3810   -5.2650  146.8780 N.am      8 SEL2        0.0000 
     45 N         136.5990   -5.5760  144.1480 N.am      5 SEP2        0.0000 
     46 N         137.5490   -4.1200  146.0510 N.am      2 SEC2        0.0000 
     47 N         137.7170   -2.9750  145.2240 N.am      5 SEP2        0.0000 
     48 CA        140.7152   -6.1203  147.3415 C.3       3 GLC5        0.0000 
     49 CA        141.6400   -4.4010  146.7090 C.3       6 GLP5        0.0000 
     50 CA        138.7308   -9.0488  142.3870 C.3       3 GLC5        0.0000 
     51 CA        138.9560   -8.0980  140.7760 C.3       6 GLP5        0.0000 
     52 CA        136.7810   -8.7575  144.4526 C.3       3 GLC5        0.0000 
     53 CA        138.1310  -10.4640  143.4960 C.3       9 GLL5        0.0000 
     54 CA        135.1350   -7.4240  144.5460 C.3       6 GLP5        0.0000 
@<TRIPOS>BOND
@<TRIPOS>SUBSTRUCTURE
     1 ALC1        1 GROUP        1 X    ALC  0     ROOT ALC X 1
     2 SEC2       16 GROUP        1 X    SEC  0     **** SEC X 2
     3 GLC5        4 GROUP        1 X    GLC  0     **** GLC X 6
     4 ALP1        3 GROUP        1 Y    ALP  0     ROOT ALP Y 8
     5 SEP2       18 GROUP        1 Y    SEP  0     **** SEP Y 9
     6 GLP5        6 GROUP        1 Y    GLP  0     **** GLP Y 13
     7 ALL1        2 GROUP        1 Z    ALL  0     ROOT ALL Z 15
     8 SEL2       17 GROUP        1 Z    SEL  0     **** SEL Z 16
     9 GLL5        5 GROUP        1 Z    GLL  0     **** GLL Z 20
@<TRIPOS>SET

