#    Name: 1nqv_LMZ_2_ligand
#    Modification time : Mon Mar 24 18:41:03 2014

@<TRIPOS>MOLECULE
1nqv_LMZ_2_ligand
   34    34     1     0     0
SMALL
NO_CHARGES


@<TRIPOS>ATOM
      1 N1        138.4790   -7.2270  146.8220 N.am      1 LMZ2201     0.0000 
      2 C2        138.2490   -6.0190  147.3380 C.2       1 LMZ2201     0.0000 
      3 N3        138.9660   -5.6160  148.3960 N.am      1 LMZ2201     0.0000 
      4 C4        139.9180   -6.3420  149.0040 C.2       1 LMZ2201     0.0000 
      5 C5        140.2190   -7.5590  148.5270 C.2       1 LMZ2201     0.0000 
      6 C6        139.3620   -8.1200  147.4210 C.2       1 LMZ2201     0.0000 
      7 N7        139.7020   -9.3220  146.7170 N.pl3     1 LMZ2201     0.0000 
      8 C8        138.5660   -9.9010  145.9450 C.3       1 LMZ2201     0.0000 
      9 C9        138.8800   -9.5350  144.5000 C.3       1 LMZ2201     0.0000 
     10 O9        138.5250   -8.1640  144.2220 O.3       1 LMZ2201     0.0000 
     11 C10       138.1310  -10.4640  143.4960 C.3       1 LMZ2201     0.0000 
     12 O10       136.7370  -10.4400  143.8190 O.3       1 LMZ2201     0.0000 
     13 C11       138.6490  -11.9130  143.5130 C.3       1 LMZ2201     0.0000 
     14 O11       140.0570  -11.8760  143.2530 O.3       1 LMZ2201     0.0000 
     15 C12       137.9620  -12.8050  142.4450 C.3       1 LMZ2201     0.0000 
     16 O12       138.0760  -12.2500  141.1330 O.3       1 LMZ2201     0.0000 
     17 N5        141.1540   -8.3420  149.1230 N.2       1 LMZ2201     0.0000 
     18 O52       141.4830   -9.4170  148.5720 O.2       1 LMZ2201     0.0000 
     19 O4        140.5340   -5.8860  149.9760 O.2       1 LMZ2201     0.0000 
     20 O2        137.3810   -5.2650  146.8780 O.2       1 LMZ2201     0.0000 
     21 H         137.9947   -7.5351  145.9438 H         1 LMZ2201     0.0000 
     22 H         138.7634   -4.6322  148.7907 H         1 LMZ2201     0.0000 
     23 H         140.5661   -9.7352  146.7238 H         1 LMZ2201     0.0000 
     24 H         137.6456   -9.4470  146.2320 H         1 LMZ2201     0.0000 
     25 H         138.5455  -10.9619  146.0439 H         1 LMZ2201     0.0000 
     26 H         139.9464   -9.6874  144.3313 H         1 LMZ2201     0.0000 
     27 H         138.2933  -10.0567  142.5008 H         1 LMZ2201     0.0000 
     28 H         138.4509  -12.3333  144.4831 H         1 LMZ2201     0.0000 
     29 H         136.9091  -12.9215  142.7517 H         1 LMZ2201     0.0000 
     30 H         138.4275  -13.8026  142.5109 H         1 LMZ2201     0.0000 
     31 H         139.3635   -7.6425  144.3799 H         1 LMZ2201     0.0000 
     32 H         136.2945  -10.0242  143.0245 H         1 LMZ2201     0.0000 
     33 H         140.2492  -12.7179  142.7488 H         1 LMZ2201     0.0000 
     34 H         137.1344  -12.1515  140.8110 H         1 LMZ2201     0.0000 
@<TRIPOS>BOND
     1    2    1 1    
     2    6    1 1    
     3   21    1 1    
     4    3    2 1    
     5   20    2 2    
     6    4    3 1    
     7   22    3 1    
     8    5    4 1    
     9   19    4 2    
    10    6    5 2    
    11   17    5 1    
    12    7    6 1    
    13    8    7 1    
    14   23    7 1    
    15    9    8 1    
    16   24    8 1    
    17   25    8 1    
    18   10    9 1    
    19   11    9 1    
    20   26    9 1    
    21   31   10 1    
    22   12   11 1    
    23   13   11 1    
    24   27   11 1    
    25   32   12 1    
    26   14   13 1    
    27   15   13 1    
    28   28   13 1    
    29   33   14 1    
    30   16   15 1    
    31   29   15 1    
    32   30   15 1    
    33   34   16 1    
    34   18   17 2    
@<TRIPOS>SUBSTRUCTURE
     1 LMZ2201     1 GROUP   
@<TRIPOS>SET

