#    Name: 1wg8_SAM_2_INTS_M
#    Modification time : Tue Mar 25 09:03:54 2014

@<TRIPOS>MOLECULE
1wg8_SAM_2_INTS_M
   70     0    12     0     0
SMALL
NO_CHARGES


@<TRIPOS>ATOM
      1 OD1        37.0645   29.8405   15.2445 O.co2     3 ASC3        0.0000 
      2 OD1        35.7540   30.5140   16.0600 O.co2    11 ASL3        0.0000 
      3 OD1        38.3750   29.1670   14.4290 O.co2     7 ASP3        0.0000 
      4 O          36.6220   30.3715   17.1250 O.2       1 ALC1        0.0000 
      5 O          35.7540   30.5140   16.0600 O.2       9 ALL1        0.0000 
      6 O          37.4900   30.2290   18.1900 O.2       5 ALP1        0.0000 
      7 O          37.0645   29.8405   15.2445 O.2       1 ALC1        0.0000 
      8 O          38.3750   29.1670   14.4290 O.2       5 ALP1        0.0000 
      9 N          34.6870   29.4755   19.1655 N.am      2 SEC2        0.0000 
     10 N          34.5820   28.8800   17.8580 N.am     10 SEL2        0.0000 
     11 N          34.7920   30.0710   20.4730 N.am      6 SEP2        0.0000 
     12 N          31.5355   29.0425   15.9095 N.am      2 SEC2        0.0000 
     13 N          32.7370   28.5270   16.6080 N.am     10 SEL2        0.0000 
     14 N          30.3340   29.5580   15.2110 N.am      6 SEP2        0.0000 
     15 N          32.4415   28.9000   18.0560 N.am      2 SEC2        0.0000 
     16 N          32.1460   29.2730   19.5040 N.am      6 SEP2        0.0000 
     17 CA         33.6595   28.6495   10.5190 C.3       4 GLC5        0.0000 
     18 CA         34.8510   29.8810   11.5770 C.3      12 GLL5        0.0000 
     19 CA         32.4680   27.4180    9.4610 C.3       8 GLP5        0.0000 
     20 CA         37.7885   30.3000   12.9505 C.3       4 GLC5        0.0000 
     21 CA         36.5120   29.1660   11.5670 C.3      12 GLL5        0.0000 
     22 CA         39.0650   31.4340   14.3340 C.3       8 GLP5        0.0000 
     23 CA         32.4425   31.7870   12.1065 C.3       4 GLC5        0.0000 
     24 CA         33.8620   32.3240   10.5930 C.3      12 GLL5        0.0000 
     25 CA         31.0230   31.2500   13.6200 C.3       8 GLP5        0.0000 
     26 CA         33.8555   30.3490    8.1180 C.3       4 GLC5        0.0000 
     27 CA         32.9730   31.8220    9.4440 C.3      12 GLL5        0.0000 
     28 CA         34.7380   28.8760    6.7920 C.3       8 GLP5        0.0000 
     29 CA         32.1995   30.0360    9.8240 C.3       4 GLC5        0.0000 
     30 CA         31.4260   28.2500   10.2040 C.3       8 GLP5        0.0000 
     31 O          30.7055   33.0015    9.9095 O.2       1 ALC1        0.0000 
     32 O          31.6800   31.5920   10.0680 O.2       9 ALL1        0.0000 
     33 O          29.7310   34.4110    9.7510 O.2       5 ALP1        0.0000 
     34 O          31.2015   32.7365   10.8490 O.2       1 ALC1        0.0000 
     35 O          30.7230   33.8810   11.6300 O.2       5 ALP1        0.0000 
     36 O          30.6365   33.8545    8.8230 O.2       1 ALC1        0.0000 
     37 O          31.5420   33.2980    7.8950 O.2       9 ALL1        0.0000 
     38 CA         35.1880   34.7570   10.3710 C.3       4 GLC5        0.0000 
     39 CA         33.5280   34.1340    9.1980 C.3      12 GLL5        0.0000 
     40 CA         36.8480   35.3800   11.5440 C.3       8 GLP5        0.0000 
     41 CA         33.7145   39.9920    7.1915 C.3       4 GLC5        0.0000 
     42 CA         34.9800   38.2740    7.1460 C.3      12 GLL5        0.0000 
     43 CA         32.4490   41.7100    7.2370 C.3       8 GLP5        0.0000 
     44 CA         35.6885   39.7320    8.6765 C.3       4 GLC5        0.0000 
     45 CA         36.3970   41.1900   10.2070 C.3       8 GLP5        0.0000 
     46 O          35.6010   38.5190    4.7350 O.2       1 ALC1        0.0000 
     47 O          35.8200   38.8700    6.2630 O.2       9 ALL1        0.0000 
     48 O          35.3820   38.1680    3.2070 O.2       5 ALP1        0.0000 
     49 N          34.2930   40.3135    8.2190 N.am      2 SEC2        0.0000 
     50 N          34.0930   39.0590    7.8410 N.am     10 SEL2        0.0000 
     51 N          34.4930   41.5680    8.5970 N.am      6 SEP2        0.0000 
     52 CA         31.6440   37.8070    9.8960 C.3       4 GLC5        0.0000 
     53 CA         33.2500   38.4570    8.7230 C.3      12 GLL5        0.0000 
     54 CA         30.0380   37.1570   11.0690 C.3       8 GLP5        0.0000 
     55 CA         31.7300   38.2150    7.5295 C.3       4 GLC5        0.0000 
     56 CA         30.2100   37.9730    6.3360 C.3       8 GLP5        0.0000 
     57 CA         32.8495   40.0835    7.9800 C.3       4 GLC5        0.0000 
     58 CA         34.8235   39.8235    9.4650 C.3       4 GLC5        0.0000 
     59 N          31.4730   37.2185    8.8405 N.am      2 SEC2        0.0000 
     60 N          33.1630   37.1390    9.0180 N.am     10 SEL2        0.0000 
     61 N          29.7830   37.2980    8.6630 N.am      6 SEP2        0.0000 
     62 CA         35.4610   35.8830    9.9230 C.3       4 GLC5        0.0000 
     63 CA         34.0740   36.3860    8.3020 C.3      12 GLL5        0.0000 
     64 CA         32.7990   30.6052   13.9028 C.3       4 GLC5        0.0000 
     65 CA         34.4980   29.2500   14.3610 C.3      12 GLL5        0.0000 
     66 CA         35.2867   33.2690   11.6683 C.3       4 GLC5        0.0000 
     67 CA         36.1030   34.6580   12.6320 C.3       8 GLP5        0.0000 
     68 CA         32.7725   36.8666    6.8238 C.3       4 GLC5        0.0000 
     69 CA         34.9880   36.8590    7.3800 C.3      12 GLL5        0.0000 
     70 CA         31.0160   36.7570    5.8650 C.3       8 GLP5        0.0000 
@<TRIPOS>BOND
@<TRIPOS>SUBSTRUCTURE
     1 ALC1        4 GROUP        1 X    ALC  0     ROOT ALC X 1
     2 SEC2        9 GROUP        1 X    SEC  0     **** SEC X 2
     3 ASC3        1 GROUP        1 X    ASC  0     **** ASC X 3
     4 GLC5       17 GROUP        1 X    GLC  0     **** GLC X 6
     5 ALP1        6 GROUP        1 Y    ALP  0     ROOT ALP Y 8
     6 SEP2       11 GROUP        1 Y    SEP  0     **** SEP Y 9
     7 ASP3        3 GROUP        1 Y    ASP  0     **** ASP Y 10
     8 GLP5       19 GROUP        1 Y    GLP  0     **** GLP Y 13
     9 ALL1        5 GROUP        1 Z    ALL  0     ROOT ALL Z 15
    10 SEL2       10 GROUP        1 Z    SEL  0     **** SEL Z 16
    11 ASL3        2 GROUP        1 Z    ASL  0     **** ASL Z 17
    12 GLL5       18 GROUP        1 Z    GLL  0     **** GLL Z 20
@<TRIPOS>SET

