#    Name: 1wg8_SAM_2_ligand
#    Modification time : Tue Mar 25 09:03:54 2014

@<TRIPOS>MOLECULE
1wg8_SAM_2_ligand
   50    52     1     0     0
SMALL
NO_CHARGES


@<TRIPOS>ATOM
      1 N          35.7540   30.5140   16.0600 N.4       1 SAM3141     0.0000 
      2 CA         34.4120   29.9580   15.7190 C.3       1 SAM3141     0.0000 
      3 C          33.8840   29.0470   16.8290 C.2       1 SAM3141     0.0000 
      4 O          34.5820   28.8800   17.8580 O.co2     1 SAM3141     0.0000 
      5 OXT        32.7370   28.5270   16.6080 O.co2     1 SAM3141     0.0000 
      6 CB         34.4980   29.2500   14.3610 C.3       1 SAM3141     0.0000 
      7 CG         34.6950   30.3170   13.3310 C.3       1 SAM3141     0.0000 
      8 SD         34.8510   29.8810   11.5770 S.3       1 SAM3141     0.0000 
      9 CE         36.5120   29.1660   11.5670 C.3       1 SAM3141     0.0000 
     10 C5'        35.0790   31.4360   10.8160 C.3       1 SAM3141     0.0000 
     11 C4'        33.8620   32.3240   10.5930 C.3       1 SAM3141     0.0000 
     12 O4'        34.4270   33.5360   10.0540 O.3       1 SAM3141     0.0000 
     13 C3'        32.9730   31.8220    9.4440 C.3       1 SAM3141     0.0000 
     14 O3'        31.6800   31.5920   10.0680 O.3       1 SAM3141     0.0000 
     15 C2'        32.8050   32.9810    8.4630 C.3       1 SAM3141     0.0000 
     16 O2'        31.5420   33.2980    7.8950 O.3       1 SAM3141     0.0000 
     17 C1'        33.5280   34.1340    9.1980 C.3       1 SAM3141     0.0000 
     18 N9         34.2740   35.0290    8.3470 N.pl3     1 SAM3141     0.0000 
     19 C8         35.2840   34.7580    7.4680 C.2       1 SAM3141     0.0000 
     20 N7         35.7460   35.8160    6.8610 N.2       1 SAM3141     0.0000 
     21 C5         34.9880   36.8590    7.3800 C.ar      1 SAM3141     0.0000 
     22 C6         34.9800   38.2740    7.1460 C.ar      1 SAM3141     0.0000 
     23 N6         35.8200   38.8700    6.2630 N.pl3     1 SAM3141     0.0000 
     24 N1         34.0930   39.0590    7.8410 N.ar      1 SAM3141     0.0000 
     25 C2         33.2500   38.4570    8.7230 C.ar      1 SAM3141     0.0000 
     26 N3         33.1630   37.1390    9.0180 N.ar      1 SAM3141     0.0000 
     27 C4         34.0740   36.3860    8.3020 C.ar      1 SAM3141     0.0000 
     28 H          33.7130   30.7966   15.6054 H         1 SAM3141     0.0000 
     29 H          33.5794   28.7209   14.1840 H         1 SAM3141     0.0000 
     30 H          35.3356   28.5766   14.3705 H         1 SAM3141     0.0000 
     31 H          35.6196   30.9166   13.4893 H         1 SAM3141     0.0000 
     32 H          33.8634   31.0565   13.2984 H         1 SAM3141     0.0000 
     33 H          35.5853   31.1841    9.8665 H         1 SAM3141     0.0000 
     34 H          35.8350   31.9256   11.4564 H         1 SAM3141     0.0000 
     35 H          33.3309   32.4829   11.4440 H         1 SAM3141     0.0000 
     36 H          33.3737   31.0005    9.0050 H         1 SAM3141     0.0000 
     37 H          33.5619   32.7297    7.6269 H         1 SAM3141     0.0000 
     38 H          32.7746   34.6755    9.7593 H         1 SAM3141     0.0000 
     39 H          35.6167   33.8206    7.3255 H         1 SAM3141     0.0000 
     40 H          36.4391   39.5585    6.6407 H         1 SAM3141     0.0000 
     41 H          35.7458   38.5681    5.3125 H         1 SAM3141     0.0000 
     42 H          32.5619   39.1190    9.2556 H         1 SAM3141     0.0000 
     43 H          35.7443   31.5134   16.0936 H         1 SAM3141     0.0000 
     44 H          36.0729   30.1938   16.9520 H         1 SAM3141     0.0000 
     45 H          36.4468   30.2500   15.3889 H         1 SAM3141     0.0000 
     46 H          37.2172   29.8631   11.6964 H         1 SAM3141     0.0000 
     47 H          36.6301   28.4909   12.2952 H         1 SAM3141     0.0000 
     48 H          36.7120   28.7035   10.7033 H         1 SAM3141     0.0000 
     49 H          31.4683   32.4443   10.5463 H         1 SAM3141     0.0000 
     50 H          31.0000   33.6582    8.6543 H         1 SAM3141     0.0000 
@<TRIPOS>BOND
     1    2    1 1    
     2   43    1 1    
     3   44    1 1    
     4   45    1 1    
     5    3    2 1    
     6    6    2 1    
     7   28    2 1    
     8    4    3 ar   
     9    5    3 ar   
    10    7    6 1    
    11   29    6 1    
    12   30    6 1    
    13    8    7 1    
    14   31    7 1    
    15   32    7 1    
    16    9    8 1    
    17   10    8 1    
    18   46    9 1    
    19   47    9 1    
    20   48    9 1    
    21   11   10 1    
    22   33   10 1    
    23   34   10 1    
    24   12   11 1    
    25   13   11 1    
    26   35   11 1    
    27   17   12 1    
    28   14   13 1    
    29   15   13 1    
    30   36   13 1    
    31   49   14 1    
    32   16   15 1    
    33   17   15 1    
    34   37   15 1    
    35   50   16 1    
    36   18   17 1    
    37   38   17 1    
    38   19   18 1    
    39   27   18 1    
    40   20   19 2    
    41   39   19 1    
    42   21   20 1    
    43   22   21 ar   
    44   27   21 ar   
    45   23   22 1    
    46   24   22 ar   
    47   40   23 1    
    48   41   23 1    
    49   25   24 ar   
    50   26   25 ar   
    51   42   25 1    
    52   27   26 ar   
@<TRIPOS>SUBSTRUCTURE
     1 SAM3141     1 GROUP   
@<TRIPOS>SET

