#    Name: 1kmq_GNP_1_INTS_M
#    Modification time : Mon Apr  7 13:35:43 2014

@<TRIPOS>MOLECULE
1kmq_GNP_1_INTS_M
   73     0    15     0     0
SMALL
NO_CHARGES


@<TRIPOS>ATOM
      1 NZ          8.5880    9.3915   -0.0230 N.4       3 LYC4        0.0000 
      2 NZ          8.0450    8.3960   -0.7270 N.4      13 LYL4        0.0000 
      3 NZ          9.1310   10.3870    0.6810 N.4       8 LYP4        0.0000 
      4 N           8.5880    9.3915   -0.0230 N.am      2 SEC2        0.0000 
      5 N           8.0450    8.3960   -0.7270 N.am     12 SEL2        0.0000 
      6 N           9.1310   10.3870    0.6810 N.am      7 SEP2        0.0000 
      7 N           6.9150    8.5520    0.1010 N.am      2 SEC2        0.0000 
      8 N           5.7850    8.7080    0.9290 N.am      7 SEP2        0.0000 
      9 N           7.8270    7.0410   -3.9935 N.am      2 SEC2        0.0000 
     10 N           7.7390    6.9380   -2.6850 N.am     12 SEL2        0.0000 
     11 N           7.9150    7.1440   -5.3020 N.am      7 SEP2        0.0000 
     12 Zn          9.9485    5.8630   -0.3185 Zn        4 ZIC7        0.0000 
     13 Zn          9.0860    6.1160   -0.7040 Zn       14 ZIL7        0.0000 
     14 Zn         10.8110    5.6100    0.0670 Zn        9 ZIP7        0.0000 
     15 N           8.5005    4.7735   -0.8835 N.am      2 SEC2        0.0000 
     16 N           9.0860    6.1160   -0.7040 N.am     12 SEL2        0.0000 
     17 N           7.9150    3.4310   -1.0630 N.am      7 SEP2        0.0000 
     18 NZ         10.2015   10.0545   -0.2005 N.4       3 LYC4        0.0000 
     19 NZ         11.2720    9.7220   -1.0820 N.4      13 LYL4        0.0000 
     20 N          12.4430   10.5455   -1.6640 N.am      2 SEC2        0.0000 
     21 N          11.2720    9.7220   -1.0820 N.am     12 SEL2        0.0000 
     22 N          13.6140   11.3690   -2.2460 N.am      7 SEP2        0.0000 
     23 N          12.5815    9.8970   -0.4235 N.am      2 SEC2        0.0000 
     24 N          13.8910   10.0720    0.2350 N.am      7 SEP2        0.0000 
     25 N          10.2015   10.0545   -0.2005 N.am      2 SEC2        0.0000 
     26 Zn         11.2870    6.4400   -0.2790 Zn        4 ZIC7        0.0000 
     27 Zn         11.7630    7.2700   -0.6250 Zn       14 ZIL7        0.0000 
     28 N          12.9585    7.2855    0.2585 N.am      2 SEC2        0.0000 
     29 N          11.7630    7.2700   -0.6250 N.am     12 SEL2        0.0000 
     30 N          14.1540    7.3010    1.1420 N.am      7 SEP2        0.0000 
     31 N          13.0165    9.8480   -2.4990 N.am      2 SEC2        0.0000 
     32 N          12.4190    8.3270   -2.7520 N.am     12 SEL2        0.0000 
     33 N          15.5935    6.9920   -1.1015 N.am      2 SEC2        0.0000 
     34 N          14.6390    7.4940   -2.0370 N.am     12 SEL2        0.0000 
     35 N          16.5480    6.4900   -0.1660 N.am      7 SEP2        0.0000 
     36 CA         11.7850    9.2380   -5.1395 C.3       5 GLC5        0.0000 
     37 CA         13.3340    8.2470   -5.5410 C.3      15 GLL5        0.0000 
     38 CA         10.2360   10.2290   -4.7380 C.3      10 GLP5        0.0000 
     39 CA         12.1860    6.7725   -5.6940 C.3       5 GLC5        0.0000 
     40 CA         11.0380    5.2980   -5.8470 C.3      10 GLP5        0.0000 
     41 CA         12.6660    6.7500   -7.0195 C.3       5 GLC5        0.0000 
     42 CA         14.1600    8.3150   -6.8110 C.3      15 GLL5        0.0000 
     43 CA         11.1720    5.1850   -7.2280 C.3      10 GLP5        0.0000 
     44 N          14.7205   10.8295   -6.7385 N.am      2 SEC2        0.0000 
     45 N          15.1170    9.4000   -6.7210 N.am     12 SEL2        0.0000 
     46 N          14.3240   12.2590   -6.7560 N.am      7 SEP2        0.0000 
     47 CA         13.6520    5.7605   -7.4885 C.3       5 GLC5        0.0000 
     48 CA         14.9460    7.0450   -7.0790 C.3      15 GLL5        0.0000 
     49 CA         12.3580    4.4760   -7.8980 C.3      10 GLP5        0.0000 
     50 CA         16.9170    6.7695   -4.9500 C.3       5 GLC5        0.0000 
     51 CA         16.3380    7.4620   -6.6130 C.3      15 GLL5        0.0000 
     52 CA         17.4960    6.0770   -3.2870 C.3      10 GLP5        0.0000 
     53 CA         18.4900    7.4670   -6.1440 C.3       5 GLC5        0.0000 
     54 CA         20.6420    7.4720   -5.6750 C.3      10 GLP5        0.0000 
     55 CA         15.8335   10.8320   -6.2565 C.3       5 GLC5        0.0000 
     56 CA         16.4420    8.9650   -6.8880 C.3      15 GLL5        0.0000 
     57 CA         15.2250   12.6990   -5.6250 C.3      10 GLP5        0.0000 
     58 CA         18.0595   12.4750   -5.0205 C.3       5 GLC5        0.0000 
     59 CA         18.8830   10.8300   -5.0330 C.3      15 GLL5        0.0000 
     60 CA         17.2360   14.1200   -5.0080 C.3      10 GLP5        0.0000 
     61 N          21.9270   11.2160   -3.8360 N.am      2 SEC2        0.0000 
     62 N          20.6100   12.1230   -4.0080 N.am     12 SEL2        0.0000 
     63 N          23.2440   10.3090   -3.6640 N.am      7 SEP2        0.0000 
     64 O          21.2515   13.2060   -6.2255 O.2       1 ALC1        0.0000 
     65 O          20.2800   12.1790   -6.2760 O.2      11 ALL1        0.0000 
     66 O          22.2230   14.2330   -6.1750 O.2       6 ALP1        0.0000 
     67 O          21.3450   13.0780   -7.3065 O.2       1 ALC1        0.0000 
     68 O          22.4100   13.9770   -8.3370 O.2       6 ALP1        0.0000 
     69 O          21.2595   13.1530   -8.4775 O.2       1 ALC1        0.0000 
     70 O          20.1090   12.3290   -8.6180 O.2      11 ALL1        0.0000 
     71 CA         17.3055   12.0790   -6.1835 C.3       5 GLC5        0.0000 
     72 CA         18.3190   10.4910   -6.2450 C.3      15 GLL5        0.0000 
     73 CA         16.2920   13.6670   -6.1220 C.3      10 GLP5        0.0000 
@<TRIPOS>BOND
@<TRIPOS>SUBSTRUCTURE
     1 ALC1       64 GROUP        1 X    ALC  0     ROOT ALC X 1
     2 SEC2        4 GROUP        1 X    SEC  0     **** SEC X 2
     3 LYC4        1 GROUP        1 X    LYC  0     **** LYC X 4
     4 ZIC7       12 GROUP        1 X    ZIC  0     **** ZIC X 5
     5 GLC5       36 GROUP        1 X    GLC  0     **** GLC X 6
     6 ALP1       66 GROUP        1 Y    ALP  0     ROOT ALP Y 8
     7 SEP2        6 GROUP        1 Y    SEP  0     **** SEP Y 9
     8 LYP4        3 GROUP        1 Y    LYP  0     **** LYP Y 11
     9 ZIP7       14 GROUP        1 Y    ZIP  0     **** ZIP Y 12
    10 GLP5       38 GROUP        1 Y    GLP  0     **** GLP Y 13
    11 ALL1       65 GROUP        1 Z    ALL  0     ROOT ALL Z 15
    12 SEL2        5 GROUP        1 Z    SEL  0     **** SEL Z 16
    13 LYL4        2 GROUP        1 Z    LYL  0     **** LYL Z 18
    14 ZIL7       13 GROUP        1 Z    ZIL  0     **** ZIL Z 19
    15 GLL5       37 GROUP        1 Z    GLL  0     **** GLL Z 20
@<TRIPOS>SET

