#    Name: 1kmq_GNP_1_ligand
#    Modification time : Mon Apr  7 13:35:43 2014

@<TRIPOS>MOLECULE
1kmq_GNP_1_ligand
   44    46     1     0     0
SMALL
NO_CHARGES


@<TRIPOS>ATOM
      1 PG          8.6160    7.2950   -1.5330 P.3       1 GNP300      0.0000 
      2 O1G         8.0450    8.3960   -0.7270 O.co2     1 GNP300      0.0000 
      3 O2G         7.7390    6.9380   -2.6850 O.co2     1 GNP300      0.0000 
      4 O3G         9.0860    6.1160   -0.7040 O.co2     1 GNP300      0.0000 
      5 N3B         9.9520    7.8930   -2.2140 N.4       1 GNP300      0.0000 
      6 PB         11.3710    8.3320   -1.5920 P.3       1 GNP300      0.0000 
      7 O1B        11.2720    9.7220   -1.0820 O.co2     1 GNP300      0.0000 
      8 O2B        11.7630    7.2700   -0.6250 O.co2     1 GNP300      0.0000 
      9 O3A        12.4190    8.3270   -2.7520 O.3       1 GNP300      0.0000 
     10 PA         13.6150    7.3760   -3.0900 P.3       1 GNP300      0.0000 
     11 O1A        14.6390    7.4940   -2.0370 O.co2     1 GNP300      0.0000 
     12 O2A        13.1050    6.0150   -3.3610 O.co2     1 GNP300      0.0000 
     13 O5'        14.1810    8.0320   -4.4140 O.3       1 GNP300      0.0000 
     14 C5'        13.3340    8.2470   -5.5410 C.3       1 GNP300      0.0000 
     15 C4'        14.1600    8.3150   -6.8110 C.3       1 GNP300      0.0000 
     16 O4'        15.1170    9.4000   -6.7210 O.3       1 GNP300      0.0000 
     17 C3'        14.9460    7.0450   -7.0790 C.3       1 GNP300      0.0000 
     18 O3'        14.9120    6.8590   -8.4970 O.3       1 GNP300      0.0000 
     19 C2'        16.3380    7.4620   -6.6130 C.3       1 GNP300      0.0000 
     20 O2'        17.3720    6.8120   -7.3410 O.3       1 GNP300      0.0000 
     21 C1'        16.4420    8.9650   -6.8880 C.3       1 GNP300      0.0000 
     22 N9         17.3230    9.6010   -5.9160 N.pl3     1 GNP300      0.0000 
     23 C8         17.3220    9.4290   -4.5520 C.2       1 GNP300      0.0000 
     24 N7         18.2530   10.1640   -3.9970 N.2       1 GNP300      0.0000 
     25 C5         18.8830   10.8300   -5.0330 C.2       1 GNP300      0.0000 
     26 C6         19.9690   11.7300   -4.9940 C.2       1 GNP300      0.0000 
     27 O6         20.6100   12.1230   -4.0080 O.2       1 GNP300      0.0000 
     28 N1         20.2800   12.1790   -6.2760 N.am      1 GNP300      0.0000 
     29 C2         19.6640   11.8220   -7.4510 C.2       1 GNP300      0.0000 
     30 N2         20.1090   12.3290   -8.6180 N.pl3     1 GNP300      0.0000 
     31 N3         18.6440   10.9740   -7.4670 N.2       1 GNP300      0.0000 
     32 C4         18.3190   10.4910   -6.2450 C.2       1 GNP300      0.0000 
     33 H          12.7723    9.1877   -5.4514 H         1 GNP300      0.0000 
     34 H          12.6009    7.4360   -5.6567 H         1 GNP300      0.0000 
     35 H          13.4980    8.4869   -7.6526 H         1 GNP300      0.0000 
     36 H          14.5813    6.2836   -6.5136 H         1 GNP300      0.0000 
     37 H          16.4105    7.3191   -5.5625 H         1 GNP300      0.0000 
     38 H          16.7787    9.0891   -7.8813 H         1 GNP300      0.0000 
     39 H          16.6949    8.8293   -4.0920 H         1 GNP300      0.0000 
     40 H          21.0957   12.8847   -6.3458 H         1 GNP300      0.0000 
     41 H          19.6128   12.0455   -9.4386 H         1 GNP300      0.0000 
     42 H          20.8958   12.9435   -8.5593 H         1 GNP300      0.0000 
     43 H          14.6153    5.9129   -8.6268 H         1 GNP300      0.0000 
     44 H          16.9655    6.5930   -8.2281 H         1 GNP300      0.0000 
@<TRIPOS>BOND
     1    2    1 ar   
     2    3    1 ar   
     3    4    1 ar   
     4    5    1 1    
     5    6    5 1    
     6    7    6 ar   
     7    8    6 ar   
     8    9    6 1    
     9   10    9 1    
    10   11   10 ar   
    11   12   10 ar   
    12   13   10 1    
    13   14   13 1    
    14   15   14 1    
    15   33   14 1    
    16   34   14 1    
    17   16   15 1    
    18   17   15 1    
    19   35   15 1    
    20   21   16 1    
    21   18   17 1    
    22   19   17 1    
    23   36   17 1    
    24   43   18 1    
    25   20   19 1    
    26   21   19 1    
    27   37   19 1    
    28   44   20 1    
    29   22   21 1    
    30   38   21 1    
    31   23   22 1    
    32   32   22 1    
    33   24   23 2    
    34   39   23 1    
    35   25   24 1    
    36   26   25 1    
    37   32   25 2    
    38   27   26 2    
    39   28   26 am   
    40   29   28 1    
    41   40   28 1    
    42   30   29 1    
    43   31   29 2    
    44   41   30 1    
    45   42   30 1    
    46   32   31 1    
@<TRIPOS>SUBSTRUCTURE
     1 GNP300      1 GROUP   
@<TRIPOS>SET

