#    Name: 3b65_3B6_1_INTS_M
#    Modification time : Mon Mar 24 18:53:40 2014

@<TRIPOS>MOLECULE
3b65_3B6_1_INTS_M
   87     0     9     0     0
SMALL
NO_CHARGES


@<TRIPOS>ATOM
      1 CA         25.7640    2.1370    5.7165 C.3       3 GLC5        0.0000 
      2 CA         26.2140    3.3820    3.9210 C.3       9 GLL5        0.0000 
      3 CA         25.3140    0.8920    7.5120 C.3       6 GLP5        0.0000 
      4 CA         23.7730    5.1365    5.7670 C.3       3 GLC5        0.0000 
      5 CA         23.2180    3.8780    4.1630 C.3       9 GLL5        0.0000 
      6 CA         24.3280    6.3950    7.3710 C.3       6 GLP5        0.0000 
      7 CA         22.0495    3.1120    5.5020 C.3       3 GLC5        0.0000 
      8 CA         20.8810    2.3460    6.8410 C.3       6 GLP5        0.0000 
      9 CA         23.5285    3.9295    2.2255 C.3       3 GLC5        0.0000 
     10 CA         23.8390    3.9810    0.2880 C.3       6 GLP5        0.0000 
     11 CA         21.6125    2.8805    3.5220 C.3       3 GLC5        0.0000 
     12 CA         20.0070    1.8830    2.8810 C.3       6 GLP5        0.0000 
     13 CA         22.9120    1.8235    4.7205 C.3       3 GLC5        0.0000 
     14 CA         22.6060   -0.2310    5.2780 C.3       6 GLP5        0.0000 
     15 CA         24.4870    6.5675    5.4395 C.3       3 GLC5        0.0000 
     16 CA         24.6460    6.7400    3.5080 C.3       9 GLL5        0.0000 
     17 CA         22.6480    7.1310    3.2570 C.3       3 GLC5        0.0000 
     18 CA         20.6500    7.5220    3.0060 C.3       6 GLP5        0.0000 
     19 CA         24.4820    6.0165    1.8635 C.3       3 GLC5        0.0000 
     20 CA         24.3180    5.2930    0.2190 C.3       6 GLP5        0.0000 
     21 N          23.3785    8.9795    3.0625 N.am      2 SEC2        0.0000 
     22 N          23.8880    7.5820    3.4250 N.am      8 SEL2        0.0000 
     23 N          22.8690   10.3770    2.7000 N.am      5 SEP2        0.0000 
     24 CA         27.4995    7.1450    2.0540 C.3       3 GLC5        0.0000 
     25 CA         26.9540    6.0080    3.4220 C.3       9 GLL5        0.0000 
     26 CA         28.0450    8.2820    0.6860 C.3       6 GLP5        0.0000 
     27 CA         28.4970    6.8610    2.6050 C.3       3 GLC5        0.0000 
     28 CA         27.9250    5.0150    3.4860 C.3       9 GLL5        0.0000 
     29 CA         29.0690    8.7070    1.7240 C.3       6 GLP5        0.0000 
     30 O          29.8115    3.7265    3.0905 O.2       1 ALC1        0.0000 
     31 O          28.5410    2.7940    3.7680 O.2       7 ALL1        0.0000 
     32 O          31.0820    4.6590    2.4130 O.2       4 ALP1        0.0000 
     33 O          31.9825    1.0140    3.2520 O.2       1 ALC1        0.0000 
     34 O          30.7670    1.5730    3.5180 O.2       7 ALL1        0.0000 
     35 O          33.1980    0.4550    2.9860 O.2       4 ALP1        0.0000 
     36 CA         30.5045   -1.1990    1.4445 C.3       3 GLC5        0.0000 
     37 CA         29.5970   -0.4990    3.0240 C.3       9 GLL5        0.0000 
     38 CA         31.4120   -1.8990   -0.1350 C.3       6 GLP5        0.0000 
     39 CA         28.3055   -0.0770    6.4835 C.3       3 GLC5        0.0000 
     40 CA         30.0200    0.2180    5.3690 C.3       9 GLL5        0.0000 
     41 CA         26.5910   -0.3720    7.5980 C.3       6 GLP5        0.0000 
     42 CA         30.5100   -1.4500    5.9990 C.3       3 GLC5        0.0000 
     43 CA         31.0000   -3.1180    6.6290 C.3       6 GLP5        0.0000 
     44 CA         31.7885    0.7905    5.8830 C.3       3 GLC5        0.0000 
     45 CA         33.5570    1.3630    6.3970 C.3       6 GLP5        0.0000 
     46 CA         31.8945    0.6060    7.2675 C.3       3 GLC5        0.0000 
     47 CA         30.2320   -0.1510    8.1380 C.3       9 GLL5        0.0000 
     48 CA         30.0280   -1.7880   11.1255 C.3       3 GLC5        0.0000 
     49 CA         29.9980   -0.3860    9.4900 C.3       9 GLL5        0.0000 
     50 CA         30.0580   -3.1900   12.7610 C.3       6 GLP5        0.0000 
     51 CA         29.9190    1.9545   11.8315 C.3       3 GLC5        0.0000 
     52 CA         29.2150    0.3850   11.6760 C.3       9 GLL5        0.0000 
     53 CA         30.6230    3.5240   11.9870 C.3       6 GLP5        0.0000 
     54 CA         30.7640    0.4720   12.9645 C.3       3 GLC5        0.0000 
     55 CA         32.3130    0.5590   14.2530 C.3       6 GLP5        0.0000 
     56 CA         29.6365   -1.4025   12.2185 C.3       3 GLC5        0.0000 
     57 CA         28.3385    3.1300   11.3560 C.3       3 GLC5        0.0000 
     58 CA         29.0320    1.8110    9.6980 C.3       9 GLL5        0.0000 
     59 CA         27.6450    4.4490   13.0140 C.3       6 GLP5        0.0000 
     60 CA         26.3968    4.3262    5.6662 C.3       3 GLC5        0.0000 
     61 CA         27.0690    4.7750    7.4430 C.3       6 GLP5        0.0000 
     62 CA         26.6810    6.1903    5.3788 C.3       3 GLC5        0.0000 
     63 CA         25.6120    5.6870    3.6050 C.3       9 GLL5        0.0000 
     64 CA         27.0790    6.5330    7.2440 C.3       6 GLP5        0.0000 
     65 CA         27.7530    3.9280    1.4955 C.3       3 GLC5        0.0000 
     66 CA         27.7640    3.5010   -0.6200 C.3       6 GLP5        0.0000 
     67 CA         27.4055    4.5650    5.5270 C.3       3 GLC5        0.0000 
     68 CA         27.5590    3.6950    3.7360 C.3       9 GLL5        0.0000 
     69 CA         29.0746    5.4641    4.5715 C.3       3 GLC5        0.0000 
     70 CA         30.6500    6.3250    5.5480 C.3       6 GLP5        0.0000 
     71 CA         29.8250    1.3367    1.7740 C.3       3 GLC5        0.0000 
     72 CA         29.7190    0.7060    3.9600 C.3       9 GLL5        0.0000 
     73 CA         29.9920    2.5700    0.0560 C.3       6 GLP5        0.0000 
     74 CA         28.3212    0.0423    7.7235 C.3       3 GLC5        0.0000 
     75 CA         29.8710    1.0640    7.5600 C.3       9 GLL5        0.0000 
     76 CA         31.2380    2.2983    7.1785 C.3       3 GLC5        0.0000 
     77 CA         32.9070    3.0430    6.4040 C.3       6 GLP5        0.0000 
     78 CA         31.7165   -1.3417    9.2770 C.3       3 GLC5        0.0000 
     79 CA         33.3180   -2.4150    9.7400 C.3       6 GLP5        0.0000 
     80 CA         28.1453   -0.1333    8.7395 C.3       3 GLC5        0.0000 
     81 CA         30.5124   -1.5414    7.6493 C.3       3 GLC5        0.0000 
     82 CA         27.8525   -0.9950   11.1330 C.3       3 GLC5        0.0000 
     83 CA         29.4010    0.5970   10.2720 C.3       9 GLL5        0.0000 
     84 CA         26.3970   -2.4810   11.2920 C.3       6 GLP5        0.0000 
     85 CA         27.8703    0.7775    8.3100 C.3       3 GLC5        0.0000 
     86 CA         28.1092    3.3510    8.2325 C.3       3 GLC5        0.0000 
     87 CA         29.2670    2.0430    8.3460 C.3       9 GLL5        0.0000 
@<TRIPOS>BOND
@<TRIPOS>SUBSTRUCTURE
     1 ALC1       30 GROUP        1 X    ALC  0     ROOT ALC X 1
     2 SEC2       21 GROUP        1 X    SEC  0     **** SEC X 2
     3 GLC5        1 GROUP        1 X    GLC  0     **** GLC X 6
     4 ALP1       32 GROUP        1 Y    ALP  0     ROOT ALP Y 8
     5 SEP2       23 GROUP        1 Y    SEP  0     **** SEP Y 9
     6 GLP5        3 GROUP        1 Y    GLP  0     **** GLP Y 13
     7 ALL1       31 GROUP        1 Z    ALL  0     ROOT ALL Z 15
     8 SEL2       22 GROUP        1 Z    SEL  0     **** SEL Z 16
     9 GLL5        2 GROUP        1 Z    GLL  0     **** GLL Z 20
@<TRIPOS>SET

