#    Name: 3b65_3B6_1_ligand
#    Modification time : Mon Mar 24 18:53:40 2014

@<TRIPOS>MOLECULE
3b65_3B6_1_ligand
   39    40     1     0     0
SMALL
NO_CHARGES


@<TRIPOS>ATOM
      1 C5         26.2140    3.3820    3.9210 C.ar      1 3B61        0.0000 
      2 C4         25.2350    4.3730    3.8580 C.ar      1 3B61        0.0000 
      3 I7         23.2180    3.8780    4.1630 I         1 3B61        0.0000 
      4 C3         25.6120    5.6870    3.6050 C.ar      1 3B61        0.0000 
      5 C8         24.6460    6.7400    3.5080 C.1       1 3B61        0.0000 
      6 N8         23.8880    7.5820    3.4250 N.1       1 3B61        0.0000 
      7 C2         26.9540    6.0080    3.4220 C.ar      1 3B61        0.0000 
      8 C1         27.9250    5.0150    3.4860 C.ar      1 3B61        0.0000 
      9 C6         27.5590    3.6950    3.7360 C.ar      1 3B61        0.0000 
     10 N9         28.5410    2.7940    3.7680 N.am      1 3B61        0.0000 
     11 C10        28.4020    1.4870    3.9760 C.2       1 3B61        0.0000 
     12 O10        27.3320    0.9180    4.1860 O.2       1 3B61        0.0000 
     13 C11        29.7190    0.7060    3.9600 C.3       1 3B61        0.0000 
     14 O11        30.7670    1.5730    3.5180 O.3       1 3B61        0.0000 
     15 C12        29.5970   -0.4990    3.0240 C.3       1 3B61        0.0000 
     16 C13        30.0200    0.2180    5.3690 C.3       1 3B61        0.0000 
     17 O14        30.1290    1.3470    6.2520 O.3       1 3B61        0.0000 
     18 C16        29.8710    1.0640    7.5600 C.ar      1 3B61        0.0000 
     19 C17        30.2320   -0.1510    8.1380 C.ar      1 3B61        0.0000 
     20 C18        29.9980   -0.3860    9.4900 C.ar      1 3B61        0.0000 
     21 C19        29.4010    0.5970   10.2720 C.ar      1 3B61        0.0000 
     22 C22        29.2150    0.3850   11.6760 C.1       1 3B61        0.0000 
     23 N22        29.0720    0.2250   12.7930 N.1       1 3B61        0.0000 
     24 C20        29.0320    1.8110    9.6980 C.ar      1 3B61        0.0000 
     25 C21        29.2670    2.0430    8.3460 C.ar      1 3B61        0.0000 
     26 H          25.9382    2.4042    4.1071 H         1 3B61        0.0000 
     27 H          27.2275    6.9832    3.2389 H         1 3B61        0.0000 
     28 H          28.9160    5.2549    3.3485 H         1 3B61        0.0000 
     29 H          29.5539    3.1640    3.6085 H         1 3B61        0.0000 
     30 H          30.9499   -0.3578    5.3380 H         1 3B61        0.0000 
     31 H          29.2130   -0.4542    5.6757 H         1 3B61        0.0000 
     32 H          30.6753   -0.8806    7.5604 H         1 3B61        0.0000 
     33 H          30.2663   -1.2849    9.9092 H         1 3B61        0.0000 
     34 H          28.5855    2.5364   10.2739 H         1 3B61        0.0000 
     35 H          28.9936    2.9416    7.9243 H         1 3B61        0.0000 
     36 H          30.4432   -1.0308    2.9910 H         1 3B61        0.0000 
     37 H          28.8704   -1.1221    3.3135 H         1 3B61        0.0000 
     38 H          29.3886   -0.2212    2.0862 H         1 3B61        0.0000 
     39 H          31.5542    0.9738    3.3723 H         1 3B61        0.0000 
@<TRIPOS>BOND
     1    2    1 ar   
     2    9    1 ar   
     3   26    1 1    
     4    3    2 1    
     5    4    2 ar   
     6    5    4 1    
     7    7    4 ar   
     8    6    5 3    
     9    8    7 ar   
    10   27    7 1    
    11    9    8 ar   
    12   28    8 1    
    13   10    9 1    
    14   11   10 am   
    15   29   10 1    
    16   12   11 2    
    17   13   11 1    
    18   14   13 1    
    19   15   13 1    
    20   16   13 1    
    21   39   14 1    
    22   36   15 1    
    23   37   15 1    
    24   38   15 1    
    25   17   16 1    
    26   30   16 1    
    27   31   16 1    
    28   18   17 1    
    29   19   18 ar   
    30   25   18 ar   
    31   20   19 ar   
    32   32   19 1    
    33   21   20 ar   
    34   33   20 1    
    35   22   21 1    
    36   24   21 ar   
    37   23   22 3    
    38   25   24 ar   
    39   34   24 1    
    40   35   25 1    
@<TRIPOS>SUBSTRUCTURE
     1 3B61        1 GROUP   
@<TRIPOS>SET

