#    Name: 1c6z_ROC_1_INTS_M
#    Modification time : Mon Mar 24 20:20:28 2014

@<TRIPOS>MOLECULE
1c6z_ROC_1_INTS_M
   70     0     9     0     0
SMALL
NO_CHARGES


@<TRIPOS>ATOM
      1 CA         35.3960   27.9645   30.1170 C.3       3 GLC5        0.0000 
      2 CA         33.7580   26.4320   30.0780 C.3       9 GLL5        0.0000 
      3 CA         37.0340   29.4970   30.1560 C.3       6 GLP5        0.0000 
      4 CA         32.4075   27.7250   26.0640 C.3       3 GLC5        0.0000 
      5 CA         33.6820   27.7960   27.6520 C.3       9 GLL5        0.0000 
      6 CA         31.1330   27.6540   24.4760 C.3       6 GLP5        0.0000 
      7 O          34.4190   25.8320   24.4360 O.2       1 ALC1        0.0000 
      8 O          35.4540   24.8210   24.4230 O.2       7 ALL1        0.0000 
      9 O          33.3840   26.8430   24.4490 O.2       4 ALP1        0.0000 
     10 CA         37.1800   22.6075   22.7445 C.3       3 GLC5        0.0000 
     11 CA         35.9090   24.3080   23.1320 C.3       9 GLL5        0.0000 
     12 CA         38.4510   20.9070   22.3570 C.3       6 GLP5        0.0000 
     13 N          34.7865   19.9340   22.4150 N.am      2 SEC2        0.0000 
     14 N          34.6200   21.4340   22.3910 N.am      8 SEL2        0.0000 
     15 N          34.9530   18.4340   22.4390 N.am      5 SEP2        0.0000 
     16 O          40.4320   23.6600   20.0115 O.2       1 ALC1        0.0000 
     17 O          40.3020   24.2940   21.2700 O.2       7 ALL1        0.0000 
     18 O          40.5620   23.0260   18.7530 O.2       4 ALP1        0.0000 
     19 O          41.1225   23.1995   20.7090 O.2       1 ALC1        0.0000 
     20 O          41.9430   22.1050   20.1480 O.2       4 ALP1        0.0000 
     21 CA         38.3010   30.2970   23.6560 C.3       3 GLC5        0.0000 
     22 CA         38.6030   28.4730   24.2960 C.3       9 GLL5        0.0000 
     23 CA         37.9990   32.1210   23.0160 C.3       6 GLP5        0.0000 
     24 CA         40.8505   25.1985   25.8900 C.3       3 GLC5        0.0000 
     25 CA         39.1250   26.2620   25.3430 C.3       9 GLL5        0.0000 
     26 CA         42.5760   24.1350   26.4370 C.3       6 GLP5        0.0000 
     27 CA         36.1255   28.8560   24.1750 C.3       3 GLC5        0.0000 
     28 CA         37.9200   28.8390   25.4840 C.3       9 GLL5        0.0000 
     29 CA         34.3310   28.8730   22.8660 C.3       6 GLP5        0.0000 
     30 CA         38.3370   30.6585   24.8695 C.3       3 GLC5        0.0000 
     31 CA         38.7540   32.4780   24.2550 C.3       6 GLP5        0.0000 
     32 CA         42.8705   27.9040   18.7520 C.3       3 GLC5        0.0000 
     33 CA         40.6720   28.1460   18.5910 C.3       9 GLL5        0.0000 
     34 CA         45.0690   27.6620   18.9130 C.3       6 GLP5        0.0000 
     35 CA         35.7560   28.8760   16.6245 C.3       3 GLC5        0.0000 
     36 CA         37.2690   28.0300   15.3520 C.3       9 GLL5        0.0000 
     37 CA         34.2430   29.7220   17.8970 C.3       6 GLP5        0.0000 
     38 CA         35.9000   27.8265   17.5755 C.3       3 GLC5        0.0000 
     39 CA         37.7330   27.3430   16.6430 C.3       9 GLL5        0.0000 
     40 CA         34.0670   28.3100   18.5080 C.3       6 GLP5        0.0000 
     41 CA         45.6545   32.3560   19.8630 C.3       3 GLC5        0.0000 
     42 CA         43.8200   31.3210   20.0130 C.3       9 GLL5        0.0000 
     43 CA         47.4890   33.3910   19.7130 C.3       6 GLP5        0.0000 
     44 CA         41.9495   33.9360   20.8420 C.3       3 GLC5        0.0000 
     45 CA         41.4750   32.0810   20.3430 C.3       9 GLL5        0.0000 
     46 CA         42.4240   35.7910   21.3410 C.3       6 GLP5        0.0000 
     47 CA         39.8685   32.6535   21.1610 C.3       3 GLC5        0.0000 
     48 CA         38.2620   33.2260   21.9790 C.3       6 GLP5        0.0000 
     49 CA         43.4270   31.8370   22.5955 C.3       3 GLC5        0.0000 
     50 CA         42.4150   30.4130   21.9300 C.3       9 GLL5        0.0000 
     51 CA         44.4390   33.2610   23.2610 C.3       6 GLP5        0.0000 
     52 CA         42.3845   29.9405   23.8255 C.3       3 GLC5        0.0000 
     53 CA         42.3540   29.4680   25.7210 C.3       6 GLP5        0.0000 
     54 CA         41.3260   31.4800   22.9885 C.3       3 GLC5        0.0000 
     55 CA         40.2370   32.5470   24.0470 C.3       6 GLP5        0.0000 
     56 CA         34.7490   29.1392   29.2010 C.3       3 GLC5        0.0000 
     57 CA         33.0860   28.3600   28.7750 C.3       9 GLL5        0.0000 
     58 CA         36.3670   30.2490   29.0230 C.3       6 GLP5        0.0000 
     59 CA         35.1850   28.7108   28.3607 C.3       3 GLC5        0.0000 
     60 CA         37.7080   29.7293   27.2645 C.3       3 GLC5        0.0000 
     61 CA         37.5330   31.0580   28.4980 C.3       6 GLP5        0.0000 
     62 CA         40.3813   28.8994   25.2984 C.3       3 GLC5        0.0000 
     63 CA         36.7602   28.9947   13.6342 C.3       3 GLC5        0.0000 
     64 CA         35.7660   29.4010   12.1030 C.3       6 GLP5        0.0000 
     65 CA         37.9428   25.1122   16.9041 C.3       3 GLC5        0.0000 
     66 CA         36.8460   23.6530   16.6400 C.3       6 GLP5        0.0000 
     67 CA         43.3680   32.4278   21.7759 C.3       3 GLC5        0.0000 
     68 CA         43.8775   29.3768   20.7406 C.3       3 GLC5        0.0000 
     69 CA         42.4180   30.8950   20.4640 C.3       9 GLL5        0.0000 
     70 CA         44.9880   27.9930   20.3970 C.3       6 GLP5        0.0000 
@<TRIPOS>BOND
@<TRIPOS>SUBSTRUCTURE
     1 ALC1        7 GROUP        1 X    ALC  0     ROOT ALC X 1
     2 SEC2       13 GROUP        1 X    SEC  0     **** SEC X 2
     3 GLC5        1 GROUP        1 X    GLC  0     **** GLC X 6
     4 ALP1        9 GROUP        1 Y    ALP  0     ROOT ALP Y 8
     5 SEP2       15 GROUP        1 Y    SEP  0     **** SEP Y 9
     6 GLP5        3 GROUP        1 Y    GLP  0     **** GLP Y 13
     7 ALL1        8 GROUP        1 Z    ALL  0     ROOT ALL Z 15
     8 SEL2       14 GROUP        1 Z    SEL  0     **** SEL Z 16
     9 GLL5        2 GROUP        1 Z    GLL  0     **** GLL Z 20
@<TRIPOS>SET

