#    Name: 1c6z_ROC_1_ligand
#    Modification time : Mon Mar 24 20:20:28 2014

@<TRIPOS>MOLECULE
1c6z_ROC_1_ligand
  100   104     1     0     0
SMALL
NO_CHARGES


@<TRIPOS>ATOM
      1 C          35.8390   24.1210   25.4780 C.2       1 ROC505      0.0000 
      2 O          36.4700   23.0730   25.3770 O.2       1 ROC505      0.0000 
      3 N1         34.9440   25.9870   26.6900 N.ar      1 ROC505      0.0000 
      4 C2         35.4210   24.7400   26.7190 C.ar      1 ROC505      0.0000 
      5 C3         35.5160   24.0160   27.8980 C.ar      1 ROC505      0.0000 
      6 C4         34.9600   24.6010   29.0270 C.ar      1 ROC505      0.0000 
      7 C5         33.7580   26.4320   30.0780 C.ar      1 ROC505      0.0000 
      8 C6         33.1760   27.6990   29.9830 C.ar      1 ROC505      0.0000 
      9 C7         33.0860   28.3600   28.7750 C.ar      1 ROC505      0.0000 
     10 C8         33.6820   27.7960   27.6520 C.ar      1 ROC505      0.0000 
     11 C4A        34.3460   25.8480   28.9570 C.ar      1 ROC505      0.0000 
     12 C8A        34.3240   26.5490   27.7450 C.ar      1 ROC505      0.0000 
     13 N          35.4540   24.8210   24.4230 N.am      1 ROC505      0.0000 
     14 CA         35.9090   24.3080   23.1320 C.3       1 ROC505      0.0000 
     15 C1         36.6660   25.3360   22.3550 C.2       1 ROC505      0.0000 
     16 O1         36.0870   26.1200   21.6010 O.2       1 ROC505      0.0000 
     17 CB         34.7750   23.8130   22.2570 C.3       1 ROC505      0.0000 
     18 CG         34.1720   22.5210   22.7510 C.2       1 ROC505      0.0000 
     19 OD1        34.6200   21.4340   22.3910 O.2       1 ROC505      0.0000 
     20 ND2        33.1090   22.5410   23.5920 N.am      1 ROC505      0.0000 
     21 C9         39.7040   25.3570   20.8500 C.3       1 ROC505      0.0000 
     22 O2         40.3020   24.2940   21.2700 O.3       1 ROC505      0.0000 
     23 CA1        38.9420   26.1750   21.9200 C.3       1 ROC505      0.0000 
     24 N2         37.9980   25.2720   22.5840 N.am      1 ROC505      0.0000 
     25 CB1        39.9180   26.7020   22.9820 C.3       1 ROC505      0.0000 
     26 CG1        39.1910   27.1720   24.2390 C.ar      1 ROC505      0.0000 
     27 CD1        38.6030   28.4730   24.2960 C.ar      1 ROC505      0.0000 
     28 CD2        39.1250   26.2620   25.3430 C.ar      1 ROC505      0.0000 
     29 CE1        37.9200   28.8390   25.4840 C.ar      1 ROC505      0.0000 
     30 CE2        38.4380   26.6790   26.5110 C.ar      1 ROC505      0.0000 
     31 CZ         37.8460   27.9620   26.5780 C.ar      1 ROC505      0.0000 
     32 N11        39.7550   27.0450   18.9190 N.4       1 ROC505      0.0000 
     33 CM         40.5110   26.2440   19.8860 C.3       1 ROC505      0.0000 
     34 C21        40.6720   28.1460   18.5910 C.3       1 ROC505      0.0000 
     35 CC         40.8000   29.2010   19.6390 C.2       1 ROC505      0.0000 
     36 O3         39.8740   29.4270   20.4100 O.2       1 ROC505      0.0000 
     37 C31        40.2620   28.8470   17.2930 C.3       1 ROC505      0.0000 
     38 C3A        40.1280   27.8870   16.1160 C.3       1 ROC505      0.0000 
     39 C41        39.6540   28.5720   14.8550 C.3       1 ROC505      0.0000 
     40 C51        38.2400   29.1470   14.9790 C.3       1 ROC505      0.0000 
     41 C61        37.2690   28.0300   15.3520 C.3       1 ROC505      0.0000 
     42 C71        37.7330   27.3430   16.6430 C.3       1 ROC505      0.0000 
     43 C7A        39.1590   26.7690   16.4860 C.3       1 ROC505      0.0000 
     44 C81        39.6330   26.0870   17.7720 C.3       1 ROC505      0.0000 
     45 N3         42.0030   29.8230   19.5710 N.am      1 ROC505      0.0000 
     46 CD         42.4180   30.8950   20.4640 C.3       1 ROC505      0.0000 
     47 C11        43.8200   31.3210   20.0130 C.3       1 ROC505      0.0000 
     48 C22        41.4750   32.0810   20.3430 C.3       1 ROC505      0.0000 
     49 C32        42.4150   30.4130   21.9300 C.3       1 ROC505      0.0000 
     50 H          35.9627   23.1173   27.9334 H         1 ROC505      0.0000 
     51 H          35.0016   24.1046   29.9341 H         1 ROC505      0.0000 
     52 H          33.7517   25.9320   30.9749 H         1 ROC505      0.0000 
     53 H          32.8056   28.1462   30.8442 H         1 ROC505      0.0000 
     54 H          32.5896   29.2514   28.7014 H         1 ROC505      0.0000 
     55 H          33.6566   28.2863   26.7503 H         1 ROC505      0.0000 
     56 H          34.8947   25.6466   24.4352 H         1 ROC505      0.0000 
     57 H          36.5872   23.4537   23.2901 H         1 ROC505      0.0000 
     58 H          35.1490   23.6708   21.2310 H         1 ROC505      0.0000 
     59 H          33.9920   24.5861   22.2127 H         1 ROC505      0.0000 
     60 H          32.7640   21.6498   23.8863 H         1 ROC505      0.0000 
     61 H          32.7640   23.4452   23.8436 H         1 ROC505      0.0000 
     62 H          38.7986   25.0174   20.1417 H         1 ROC505      0.0000 
     63 H          38.4460   26.9802   21.4583 H         1 ROC505      0.0000 
     64 H          38.4094   24.5817   23.2390 H         1 ROC505      0.0000 
     65 H          40.4856   27.5348   22.5601 H         1 ROC505      0.0000 
     66 H          40.6186   25.9063   23.2459 H         1 ROC505      0.0000 
     67 H          38.6735   29.1023   23.5199 H         1 ROC505      0.0000 
     68 H          39.5545   25.3575   25.2850 H         1 ROC505      0.0000 
     69 H          37.4730   29.7646   25.5390 H         1 ROC505      0.0000 
     70 H          38.3705   26.0451   27.3121 H         1 ROC505      0.0000 
     71 H          37.3601   28.2494   27.4342 H         1 ROC505      0.0000 
     72 H          38.8613   27.3347   19.2856 H         1 ROC505      0.0000 
     73 H          41.2375   25.5767   19.3492 H         1 ROC505      0.0000 
     74 H          41.1619   26.9106   20.5132 H         1 ROC505      0.0000 
     75 H          41.6845   27.7388   18.4008 H         1 ROC505      0.0000 
     76 H          41.0105   29.6125   17.0502 H         1 ROC505      0.0000 
     77 H          39.3035   29.3581   17.4521 H         1 ROC505      0.0000 
     78 H          41.0979   27.4335   15.9291 H         1 ROC505      0.0000 
     79 H          39.6709   27.8558   14.0203 H         1 ROC505      0.0000 
     80 H          40.3450   29.3888   14.5996 H         1 ROC505      0.0000 
     81 H          37.9457   29.5800   14.0315 H         1 ROC505      0.0000 
     82 H          38.2294   29.9071   15.7497 H         1 ROC505      0.0000 
     83 H          37.2344   27.2986   14.5521 H         1 ROC505      0.0000 
     84 H          36.2799   28.4469   15.5062 H         1 ROC505      0.0000 
     85 H          37.0509   26.5315   16.8847 H         1 ROC505      0.0000 
     86 H          37.7310   28.0648   17.4562 H         1 ROC505      0.0000 
     87 H          39.1504   26.0434   15.6888 H         1 ROC505      0.0000 
     88 H          38.9217   25.2892   18.0273 H         1 ROC505      0.0000 
     89 H          40.6051   25.6125   17.5783 H         1 ROC505      0.0000 
     90 H          42.7085   29.5424   18.8413 H         1 ROC505      0.0000 
     91 H          44.1822   32.0630   20.5772 H         1 ROC505      0.0000 
     92 H          44.4732   30.5657   20.0675 H         1 ROC505      0.0000 
     93 H          43.8236   31.6439   19.0666 H         1 ROC505      0.0000 
     94 H          41.7410   32.8303   20.9494 H         1 ROC505      0.0000 
     95 H          41.4578   32.4485   19.4131 H         1 ROC505      0.0000 
     96 H          40.5350   31.8335   20.5777 H         1 ROC505      0.0000 
     97 H          43.0403   29.6453   22.0698 H         1 ROC505      0.0000 
     98 H          42.6950   31.1376   22.5597 H         1 ROC505      0.0000 
     99 H          41.5075   30.1082   22.2189 H         1 ROC505      0.0000 
    100 H          40.4219   23.7259   20.4558 H         1 ROC505      0.0000 
@<TRIPOS>BOND
     1    2    1 2    
     2    4    1 1    
     3   13    1 am   
     4    4    3 ar   
     5   12    3 ar   
     6    5    4 ar   
     7    6    5 ar   
     8   50    5 1    
     9   11    6 ar   
    10   51    6 1    
    11    8    7 ar   
    12   11    7 ar   
    13   52    7 1    
    14    9    8 ar   
    15   53    8 1    
    16   10    9 ar   
    17   54    9 1    
    18   12   10 ar   
    19   55   10 1    
    20   12   11 ar   
    21   14   13 1    
    22   56   13 1    
    23   15   14 1    
    24   17   14 1    
    25   57   14 1    
    26   16   15 2    
    27   24   15 am   
    28   18   17 1    
    29   58   17 1    
    30   59   17 1    
    31   19   18 2    
    32   20   18 am   
    33   60   20 1    
    34   61   20 1    
    35   22   21 1    
    36   23   21 1    
    37   33   21 1    
    38   62   21 1    
    39  100   22 1    
    40   24   23 1    
    41   25   23 1    
    42   63   23 1    
    43   64   24 1    
    44   26   25 1    
    45   65   25 1    
    46   66   25 1    
    47   27   26 ar   
    48   28   26 ar   
    49   29   27 ar   
    50   67   27 1    
    51   30   28 ar   
    52   68   28 1    
    53   31   29 ar   
    54   69   29 1    
    55   31   30 ar   
    56   70   30 1    
    57   71   31 1    
    58   33   32 1    
    59   34   32 1    
    60   44   32 1    
    61   72   32 1    
    62   73   33 1    
    63   74   33 1    
    64   35   34 1    
    65   37   34 1    
    66   75   34 1    
    67   36   35 2    
    68   45   35 am   
    69   38   37 1    
    70   76   37 1    
    71   77   37 1    
    72   39   38 1    
    73   43   38 1    
    74   78   38 1    
    75   40   39 1    
    76   79   39 1    
    77   80   39 1    
    78   41   40 1    
    79   81   40 1    
    80   82   40 1    
    81   42   41 1    
    82   83   41 1    
    83   84   41 1    
    84   43   42 1    
    85   85   42 1    
    86   86   42 1    
    87   44   43 1    
    88   87   43 1    
    89   88   44 1    
    90   89   44 1    
    91   46   45 1    
    92   90   45 1    
    93   47   46 1    
    94   48   46 1    
    95   49   46 1    
    96   91   47 1    
    97   92   47 1    
    98   93   47 1    
    99   94   48 1    
   100   95   48 1    
   101   96   48 1    
   102   97   49 1    
   103   98   49 1    
   104   99   49 1    
@<TRIPOS>SUBSTRUCTURE
     1 ROC505      1 GROUP   
@<TRIPOS>SET

