#    Name: 3unk_0BY_1_INTS_M
#    Modification time : Mon Mar 24 23:06:50 2014

@<TRIPOS>MOLECULE
3unk_0BY_1_INTS_M
   78     0    12     0     0
SMALL
NO_CHARGES


@<TRIPOS>ATOM
      1 O          -9.0265   11.3435   14.4645 O.2       1 ALC1        0.0000 
      2 O          -9.9360   10.7710   13.6520 O.2       9 ALL1        0.0000 
      3 O          -8.1170   11.9160   15.2770 O.2       5 ALP1        0.0000 
      4 N         -10.5365   10.6805   16.3320 N.am      2 SEC2        0.0000 
      5 N         -11.3720   10.0300   15.3750 N.am     10 SEL2        0.0000 
      6 N          -9.7010   11.3310   17.2890 N.am      6 SEP2        0.0000 
      7 CA        -10.9145    9.9835    9.7000 C.3       4 GLC5        0.0000 
      8 CA         -8.9770    9.7750   10.1460 C.3      12 GLL5        0.0000 
      9 CA        -12.8520   10.1920    9.2540 C.3       8 GLP5        0.0000 
     10 CA        -11.8335   11.0340   12.6890 C.3       4 GLC5        0.0000 
     11 CA        -11.0590    9.9940   14.0800 C.3      12 GLL5        0.0000 
     12 CA        -12.6080   12.0740   11.2980 C.3       8 GLP5        0.0000 
     13 CA        -13.0215   10.7770   14.5180 C.3       4 GLC5        0.0000 
     14 CA        -14.9840   11.5600   14.9560 C.3       8 GLP5        0.0000 
     15 CA         -9.6930   10.4275   15.7405 C.3       4 GLC5        0.0000 
     16 CA         -8.3270   10.8610   17.4010 C.3       8 GLP5        0.0000 
     17 CA        -10.2320    8.3155   13.8715 C.3       4 GLC5        0.0000 
     18 CA         -9.4050    6.6370   13.6630 C.3       8 GLP5        0.0000 
     19 CA        -12.7160   10.3050   12.4515 C.3       4 GLC5        0.0000 
     20 CA        -12.8240    8.5360   13.6050 C.3      12 GLL5        0.0000 
     21 CA        -14.4965    9.2760   12.3940 C.3       4 GLC5        0.0000 
     22 CA        -16.1690   10.0160   11.1830 C.3       8 GLP5        0.0000 
     23 CA        -11.1145    7.5865   13.6340 C.3       4 GLC5        0.0000 
     24 CA        -12.9425    8.2645   17.5700 C.3       4 GLC5        0.0000 
     25 CA        -12.4120    9.3290   15.8500 C.3      12 GLL5        0.0000 
     26 CA        -13.4730    7.2000   19.2900 C.3       8 GLP5        0.0000 
     27 CA        -11.9970   11.0195   16.8525 C.3       4 GLC5        0.0000 
     28 CA        -11.5820   12.7100   17.8550 C.3       8 GLP5        0.0000 
     29 CA        -10.3380    9.3370   16.7160 C.3       4 GLC5        0.0000 
     30 CA         -8.2640    9.3450   17.5820 C.3       8 GLP5        0.0000 
     31 CA        -15.4100    9.6355   14.3025 C.3       4 GLC5        0.0000 
     32 CA        -15.8360    7.7110   13.6490 C.3      12 GLL5        0.0000 
     33 CA        -18.6595    7.6405   13.2665 C.3       4 GLC5        0.0000 
     34 CA        -16.9740    6.9980   13.9890 C.3      12 GLL5        0.0000 
     35 CA        -20.3450    8.2830   12.5440 C.3       8 GLP5        0.0000 
     36 NZ         -6.3865   11.0040    6.7870 N.4       3 LYC4        0.0000 
     37 NZ         -7.7940   10.2950    7.5320 N.4      11 LYL4        0.0000 
     38 NZ         -4.9790   11.7130    6.0420 N.4       7 LYP4        0.0000 
     39 N          -6.3865   11.0040    6.7870 N.am      2 SEC2        0.0000 
     40 N          -7.7940   10.2950    7.5320 N.am     10 SEL2        0.0000 
     41 N          -4.9790   11.7130    6.0420 N.am      6 SEP2        0.0000 
     42 NZ         -5.7500   11.7855    7.2135 N.4       3 LYC4        0.0000 
     43 NZ         -6.5210   11.8580    8.3850 N.4      11 LYL4        0.0000 
     44 N          -5.7500   11.7855    7.2135 N.am      2 SEC2        0.0000 
     45 N          -6.5210   11.8580    8.3850 N.am     10 SEL2        0.0000 
     46 CA        -12.6935    3.3115   12.1575 C.3       4 GLC5        0.0000 
     47 CA        -13.5800    4.8660   12.0000 C.3      12 GLL5        0.0000 
     48 CA        -11.8070    1.7570   12.3150 C.3       8 GLP5        0.0000 
     49 CA        -12.1985    4.9490   13.4690 C.3       4 GLC5        0.0000 
     50 CA        -10.8170    5.0320   14.9380 C.3       8 GLP5        0.0000 
     51 CA        -13.7165    4.3540   14.0230 C.3       4 GLC5        0.0000 
     52 CA        -13.8530    3.8420   16.0460 C.3       8 GLP5        0.0000 
     53 CA         -6.8742    9.8087   11.1968 C.3       4 GLC5        0.0000 
     54 CA         -5.1820    9.2960   12.4070 C.3       8 GLP5        0.0000 
     55 CA         -8.5990    7.6903   10.6630 C.3       4 GLC5        0.0000 
     56 CA         -7.9090    5.6360   10.5540 C.3       8 GLP5        0.0000 
     57 CA         -6.9964   10.2901   12.1311 C.3       4 GLC5        0.0000 
     58 CA         -9.3760   10.7370   12.3310 C.3      12 GLL5        0.0000 
     59 CA         -9.4467    8.4312   12.7637 C.3       4 GLC5        0.0000 
     60 CA        -10.9446   11.2824   11.5397 C.3       4 GLC5        0.0000 
     61 CA         -9.6010    9.7140   11.3980 C.3      12 GLL5        0.0000 
     62 CA        -11.3463    7.5960   15.2270 C.3       4 GLC5        0.0000 
     63 CA        -13.1590    8.5650   14.9540 C.3      12 GLL5        0.0000 
     64 CA         -9.9070    6.2450   15.0520 C.3       8 GLP5        0.0000 
     65 CA        -13.8429   10.2499   15.0104 C.3       4 GLC5        0.0000 
     66 CA        -15.7365    8.6973   12.2645 C.3       4 GLC5        0.0000 
     67 CA        -14.3410    5.1037   14.4755 C.3       4 GLC5        0.0000 
     68 CA        -14.7720    7.0460   13.0430 C.3      12 GLL5        0.0000 
     69 CA        -17.0035    7.1310   11.9395 C.3       4 GLC5        0.0000 
     70 CA        -17.0820    5.6380   13.7130 C.3      12 GLL5        0.0000 
     71 CA        -16.9790    7.9440   10.0280 C.3       8 GLP5        0.0000 
     72 CA        -18.0895    5.2823   12.3502 C.3       4 GLC5        0.0000 
     73 CA        -19.6210    5.2580   11.2950 C.3       8 GLP5        0.0000 
     74 CA        -15.2055    4.5743   14.7257 C.3       4 GLC5        0.0000 
     75 CA        -17.0185    3.4857   13.9217 C.3       4 GLC5        0.0000 
     76 CA        -16.0340    4.9750   13.0980 C.3      12 GLL5        0.0000 
     77 CA        -17.4790    1.6650   14.4380 C.3       8 GLP5        0.0000 
     78 CA        -16.2195    6.6370   11.4803 C.3       4 GLC5        0.0000 
@<TRIPOS>BOND
@<TRIPOS>SUBSTRUCTURE
     1 ALC1        1 GROUP        1 X    ALC  0     ROOT ALC X 1
     2 SEC2        4 GROUP        1 X    SEC  0     **** SEC X 2
     3 LYC4       36 GROUP        1 X    LYC  0     **** LYC X 4
     4 GLC5        7 GROUP        1 X    GLC  0     **** GLC X 6
     5 ALP1        3 GROUP        1 Y    ALP  0     ROOT ALP Y 8
     6 SEP2        6 GROUP        1 Y    SEP  0     **** SEP Y 9
     7 LYP4       38 GROUP        1 Y    LYP  0     **** LYP Y 11
     8 GLP5        9 GROUP        1 Y    GLP  0     **** GLP Y 13
     9 ALL1        2 GROUP        1 Z    ALL  0     ROOT ALL Z 15
    10 SEL2        5 GROUP        1 Z    SEL  0     **** SEL Z 16
    11 LYL4       37 GROUP        1 Z    LYL  0     **** LYL Z 18
    12 GLL5        8 GROUP        1 Z    GLL  0     **** GLL Z 20
@<TRIPOS>SET

