#    Name: 3unk_0BY_1_ligand
#    Modification time : Mon Mar 24 23:06:50 2014

@<TRIPOS>MOLECULE
3unk_0BY_1_ligand
   36    38     1     0     0
SMALL
NO_CHARGES


@<TRIPOS>ATOM
      1 N01        -9.9360   10.7710   13.6520 N.pl3     1 0BY299      0.0000 
      2 N02       -11.7600    9.2680   13.2060 N.ar      1 0BY299      0.0000 
      3 N03       -11.3720   10.0300   15.3750 N.ar      1 0BY299      0.0000 
      4 N04       -13.5760    7.7590   12.6680 N.pl3     1 0BY299      0.0000 
      5 C05        -8.9770    9.7750   10.1460 C.ar      1 0BY299      0.0000 
      6 C06        -8.1560   10.8680    9.8270 C.ar      1 0BY299      0.0000 
      7 C07        -7.9440   11.8650   10.7600 C.ar      1 0BY299      0.0000 
      8 C08        -8.5470   11.7980   11.9990 C.ar      1 0BY299      0.0000 
      9 C09        -9.3760   10.7370   12.3310 C.ar      1 0BY299      0.0000 
     10 C10        -9.6010    9.7140   11.3980 C.ar      1 0BY299      0.0000 
     11 C11        -7.4600   11.0160    8.5090 C.2       1 0BY299      0.0000 
     12 C12       -11.0590    9.9940   14.0800 C.ar      1 0BY299      0.0000 
     13 C13       -12.8240    8.5360   13.6050 C.ar      1 0BY299      0.0000 
     14 C14       -13.1590    8.5650   14.9540 C.ar      1 0BY299      0.0000 
     15 C15       -12.4120    9.3290   15.8500 C.ar      1 0BY299      0.0000 
     16 C16       -14.7720    7.0460   13.0430 C.ar      1 0BY299      0.0000 
     17 C17       -15.8360    7.7110   13.6490 C.ar      1 0BY299      0.0000 
     18 C18       -16.9740    6.9980   13.9890 C.ar      1 0BY299      0.0000 
     19 C19       -17.0820    5.6380   13.7130 C.ar      1 0BY299      0.0000 
     20 C20       -16.0340    4.9750   13.0980 C.ar      1 0BY299      0.0000 
     21 C21       -14.8860    5.6850   12.7670 C.ar      1 0BY299      0.0000 
     22 O25        -7.7940   10.2950    7.5320 O.co2     1 0BY299      0.0000 
     23 O26        -6.5210   11.8580    8.3850 O.co2     1 0BY299      0.0000 
     24 CL2       -13.5800    4.8660   12.0000 Cl        1 0BY299      0.0000 
     25 H          -9.4896   11.4109   14.3518 H         1 0BY299      0.0000 
     26 H         -13.2559    7.7041   11.6909 H         1 0BY299      0.0000 
     27 H          -9.1182    9.0252    9.4639 H         1 0BY299      0.0000 
     28 H          -7.3309   12.6639   10.5277 H         1 0BY299      0.0000 
     29 H          -8.3801   12.5496   12.6937 H         1 0BY299      0.0000 
     30 H         -10.2146    8.9323   11.6309 H         1 0BY299      0.0000 
     31 H         -13.9636    8.0194   15.2956 H         1 0BY299      0.0000 
     32 H         -12.6712    9.3380   16.8412 H         1 0BY299      0.0000 
     33 H         -15.7739    8.7146   13.8392 H         1 0BY299      0.0000 
     34 H         -17.7615    7.4838   14.4579 H         1 0BY299      0.0000 
     35 H         -17.9391    5.1304   13.9665 H         1 0BY299      0.0000 
     36 H         -16.1011    3.9756   12.8888 H         1 0BY299      0.0000 
@<TRIPOS>BOND
     1    9    1 1    
     2   12    1 1    
     3   25    1 1    
     4   12    2 ar   
     5   13    2 ar   
     6   12    3 ar   
     7   15    3 ar   
     8   13    4 1    
     9   16    4 1    
    10   26    4 1    
    11    6    5 ar   
    12   10    5 ar   
    13   27    5 1    
    14    7    6 ar   
    15   11    6 1    
    16    8    7 ar   
    17   28    7 1    
    18    9    8 ar   
    19   29    8 1    
    20   10    9 ar   
    21   30   10 1    
    22   22   11 ar   
    23   23   11 ar   
    24   14   13 ar   
    25   15   14 ar   
    26   31   14 1    
    27   32   15 1    
    28   17   16 ar   
    29   21   16 ar   
    30   18   17 ar   
    31   33   17 1    
    32   19   18 ar   
    33   34   18 1    
    34   20   19 ar   
    35   35   19 1    
    36   21   20 ar   
    37   36   20 1    
    38   24   21 1    
@<TRIPOS>SUBSTRUCTURE
     1 0BY299      1 GROUP   
@<TRIPOS>SET

