#    Name: 3iah_NAP_1_INTS_M
#    Modification time : Tue Mar 25 16:07:47 2014

@<TRIPOS>MOLECULE
3iah_NAP_1_INTS_M
  108     0    12     0     0
SMALL
NO_CHARGES


@<TRIPOS>ATOM
      1 CA         11.5880   12.0710   12.1395 C.3       4 GLC5        0.0000 
      2 CA          9.6160   12.0790   11.1390 C.3      12 GLL5        0.0000 
      3 CA         13.5600   12.0630   13.1400 C.3       8 GLP5        0.0000 
      4 CA          7.5120   12.4265    8.6605 C.3       4 GLC5        0.0000 
      5 CA          9.0300   11.4190    9.8970 C.3      12 GLL5        0.0000 
      6 CA          5.9940   13.4340    7.4240 C.3       8 GLP5        0.0000 
      7 O           9.5870   11.2925    7.2965 O.2       1 ALC1        0.0000 
      8 O           9.6770   11.8050    8.7050 O.2       9 ALL1        0.0000 
      9 O           9.4970   10.7800    5.8880 O.2       5 ALP1        0.0000 
     10 CA         12.4710   10.5040   11.6785 C.3       4 GLC5        0.0000 
     11 CA         10.6630   10.0760   10.8990 C.3      12 GLL5        0.0000 
     12 CA         14.2790   10.9320   12.4580 C.3       8 GLP5        0.0000 
     13 CA         12.7270    6.9325   13.8465 C.3       4 GLC5        0.0000 
     14 CA         11.6310    6.7680   11.8910 C.3      12 GLL5        0.0000 
     15 CA         13.8230    7.0970   15.8020 C.3       8 GLP5        0.0000 
     16 CA         14.4070    5.6540   12.3575 C.3       4 GLC5        0.0000 
     17 CA         12.4860    5.7010   11.6740 C.3      12 GLL5        0.0000 
     18 CA         16.3280    5.6070   13.0410 C.3       8 GLP5        0.0000 
     19 O          12.9035    3.3590   11.6860 O.2       1 ALC1        0.0000 
     20 O          12.3550    4.5830   12.3920 O.2       9 ALL1        0.0000 
     21 O          13.4520    2.1350   10.9800 O.2       5 ALP1        0.0000 
     22 N          14.6725    4.9305   10.9565 N.am      2 SEC2        0.0000 
     23 N          13.4800    5.8090   10.7110 N.am     10 SEL2        0.0000 
     24 N          15.8650    4.0520   11.2020 N.am      6 SEP2        0.0000 
     25 CA         12.7995    5.8375    8.5850 C.3       4 GLC5        0.0000 
     26 CA         13.6110    6.9590    9.9550 C.3      12 GLL5        0.0000 
     27 CA         11.9880    4.7160    7.2150 C.3       8 GLP5        0.0000 
     28 CA         14.4600    5.0065    9.5130 C.3       4 GLC5        0.0000 
     29 CA         15.3090    3.0540    9.0710 C.3       8 GLP5        0.0000 
     30 CA         14.9335    7.5335   11.2715 C.3       4 GLC5        0.0000 
     31 CA         16.2560    8.1080   12.5880 C.3       8 GLP5        0.0000 
     32 CA         13.0285    9.4180   11.7905 C.3       4 GLC5        0.0000 
     33 CA         11.7780    7.9040   11.1230 C.3      12 GLL5        0.0000 
     34 N           7.6910   17.4850   11.5740 N.am      2 SEC2        0.0000 
     35 N           7.5490   16.4790   12.6250 N.am     10 SEL2        0.0000 
     36 N           7.8330   18.4910   10.5230 N.am      6 SEP2        0.0000 
     37 N           5.0475   16.6385   14.7240 N.am      2 SEC2        0.0000 
     38 N           6.3060   16.4850   14.9090 N.am     10 SEL2        0.0000 
     39 N           3.7890   16.7920   14.5390 N.am      6 SEP2        0.0000 
     40 CA          9.5995   17.8405   13.2220 C.3       4 GLC5        0.0000 
     41 CA          9.8290   16.0590   14.3220 C.3      12 GLL5        0.0000 
     42 CA          9.3700   19.6220   12.1220 C.3       8 GLP5        0.0000 
     43 CA         11.3165   12.8530   16.3310 C.3       4 GLC5        0.0000 
     44 CA         10.7810   14.9090   16.4240 C.3      12 GLL5        0.0000 
     45 CA         11.8520   10.7970   16.2380 C.3       8 GLP5        0.0000 
     46 CA          9.2380   13.4855   16.5970 C.3       4 GLC5        0.0000 
     47 CA          7.6950   12.0620   16.7700 C.3       8 GLP5        0.0000 
     48 N          12.5530   14.5215   18.3060 N.am      2 SEC2        0.0000 
     49 N          12.1290   14.6920   16.8570 N.am     10 SEL2        0.0000 
     50 N          12.9770   14.3510   19.7550 N.am      6 SEP2        0.0000 
     51 O          12.5250   14.6335   15.5385 O.2       1 ALC1        0.0000 
     52 O          12.1290   14.6920   16.8570 O.2       9 ALL1        0.0000 
     53 O          12.9210   14.5750   14.2200 O.2       5 ALP1        0.0000 
     54 CA         11.1200   14.6550   19.3345 C.3       4 GLC5        0.0000 
     55 CA          9.8910   15.2650   17.6040 C.3      12 GLL5        0.0000 
     56 CA         12.3490   14.0450   21.0650 C.3       8 GLP5        0.0000 
     57 CA          8.4285   14.2385   17.8755 C.3       4 GLC5        0.0000 
     58 CA          6.9660   13.2120   18.1470 C.3       8 GLP5        0.0000 
     59 N           9.5315   14.7595   19.9220 N.am      2 SEC2        0.0000 
     60 N          10.2450   14.5890   18.7750 N.am     10 SEL2        0.0000 
     61 N           8.8180   14.9300   21.0690 N.am      6 SEP2        0.0000 
     62 N          11.6110   14.4700   19.2650 N.am      2 SEC2        0.0000 
     63 CA         11.7070   17.5095   17.5780 C.3       4 GLC5        0.0000 
     64 CA         10.1260   16.7260   17.7140 C.3      12 GLL5        0.0000 
     65 CA         13.2880   18.2930   17.4420 C.3       8 GLP5        0.0000 
     66 CA         10.1255   18.7930   17.7180 C.3       4 GLC5        0.0000 
     67 CA         10.1250   20.8600   17.7220 C.3       8 GLP5        0.0000 
     68 CA          8.1790   18.9490   16.1370 C.3       4 GLC5        0.0000 
     69 CA          7.8920   17.7540   17.7840 C.3      12 GLL5        0.0000 
     70 CA          8.4660   20.1440   14.4900 C.3       8 GLP5        0.0000 
     71 N           4.2085   20.7460   18.0730 N.am      2 SEC2        0.0000 
     72 N           4.7110   19.5330   18.5280 N.am     10 SEL2        0.0000 
     73 N           3.7060   21.9590   17.6180 N.am      6 SEP2        0.0000 
     74 O           3.9855   19.2305   16.1980 O.2       1 ALC1        0.0000 
     75 O           5.3070   18.3370   16.5410 O.2       9 ALL1        0.0000 
     76 O           2.6640   20.1240   15.8550 O.2       5 ALP1        0.0000 
     77 CA         11.3390   18.1780   18.5375 C.3       4 GLC5        0.0000 
     78 CA          9.3900   18.0630   19.6330 C.3      12 GLL5        0.0000 
     79 NZ          8.5880    6.4580    8.4440 N.4       3 LYC4        0.0000 
     80 NZ          8.1890    7.4540    7.5020 N.4      11 LYL4        0.0000 
     81 NZ          8.3150    5.2440   10.5130 N.4       7 LYP4        0.0000 
     82 N           8.5880    6.4580    8.4440 N.am      2 SEC2        0.0000 
     83 N           8.1890    7.4540    7.5020 N.am     10 SEL2        0.0000 
     84 N           8.9870    5.4620    9.3860 N.am      6 SEP2        0.0000 
     85 NZ          7.0425    7.2035   10.0300 N.4       3 LYC4        0.0000 
     86 NZ          6.7900    8.3760    9.2370 N.4      11 LYL4        0.0000 
     87 NZ          5.8650    9.0130    7.8610 N.4       3 LYC4        0.0000 
     88 NZ          4.9400    9.6500    6.4850 N.4       7 LYP4        0.0000 
     89 N           7.0425    7.2035   10.0300 N.am      2 SEC2        0.0000 
     90 N           6.7900    8.3760    9.2370 N.am     10 SEL2        0.0000 
     91 N           7.2950    6.0310   10.8230 N.am      6 SEP2        0.0000 
     92 NZ          6.1980    9.6905    6.8860 N.4       3 LYC4        0.0000 
     93 NZ          7.4560    9.7310    7.2870 N.4      11 LYL4        0.0000 
     94 N           8.4765   10.2555    6.5875 N.am      2 SEC2        0.0000 
     95 N           7.4560    9.7310    7.2870 N.am     10 SEL2        0.0000 
     96 N           9.4970   10.7800    5.8880 N.am      6 SEP2        0.0000 
     97 N           6.1980    9.6905    6.8860 N.am      2 SEC2        0.0000 
     98 N           4.9400    9.6500    6.4850 N.am      6 SEP2        0.0000 
     99 CA         11.0261    5.8741   10.1914 C.3       4 GLC5        0.0000 
    100 CA         10.1340    4.6790    8.9300 C.3       8 GLP5        0.0000 
    101 CA         12.0180   16.9130   16.7130 C.3       4 GLC5        0.0000 
    102 CA          8.7683   19.4985   17.9138 C.3       4 GLC5        0.0000 
    103 CA          9.6088   17.9380   21.7510 C.3       4 GLC5        0.0000 
    104 CA          8.4630   18.8330   20.3010 C.3      12 GLL5        0.0000 
    105 CA         10.2910   17.4280   23.5350 C.3       8 GLP5        0.0000 
    106 CA          9.3700   19.6825   18.7676 C.3       4 GLC5        0.0000 
    107 CA         11.2031   11.7494    9.8302 C.3       4 GLC5        0.0000 
    108 CA         12.7550   12.6120    9.1280 C.3       8 GLP5        0.0000 
@<TRIPOS>BOND
@<TRIPOS>SUBSTRUCTURE
     1 ALC1        7 GROUP        1 X    ALC  0     ROOT ALC X 1
     2 SEC2       22 GROUP        1 X    SEC  0     **** SEC X 2
     3 LYC4       79 GROUP        1 X    LYC  0     **** LYC X 4
     4 GLC5        1 GROUP        1 X    GLC  0     **** GLC X 6
     5 ALP1        9 GROUP        1 Y    ALP  0     ROOT ALP Y 8
     6 SEP2       24 GROUP        1 Y    SEP  0     **** SEP Y 9
     7 LYP4       81 GROUP        1 Y    LYP  0     **** LYP Y 11
     8 GLP5        3 GROUP        1 Y    GLP  0     **** GLP Y 13
     9 ALL1        8 GROUP        1 Z    ALL  0     ROOT ALL Z 15
    10 SEL2       23 GROUP        1 Z    SEL  0     **** SEL Z 16
    11 LYL4       80 GROUP        1 Z    LYL  0     **** LYL Z 18
    12 GLL5        2 GROUP        1 Z    GLL  0     **** GLL Z 20
@<TRIPOS>SET

