#    Name: 3iah_NAP_1_ligand
#    Modification time : Tue Mar 25 16:07:47 2014

@<TRIPOS>MOLECULE
3iah_NAP_1_ligand
   73    77     1     0     0
SMALL
NO_CHARGES


@<TRIPOS>ATOM
      1 PA          6.3150   13.5750   12.4550 P.3       1 NAP254      0.0000 
      2 O1A         5.3680   14.3280   11.6320 O.co2     1 NAP254      0.0000 
      3 O2A         5.8320   12.2680   12.9330 O.co2     1 NAP254      0.0000 
      4 O5B         7.6560   13.2420   11.6890 O.3       1 NAP254      0.0000 
      5 C5B         8.5820   12.3400   12.2250 C.3       1 NAP254      0.0000 
      6 C4B         9.6160   12.0790   11.1390 C.3       1 NAP254      0.0000 
      7 O4B        10.5390   11.1850   11.7240 O.3       1 NAP254      0.0000 
      8 C3B         9.0300   11.4190    9.8970 C.3       1 NAP254      0.0000 
      9 O3B         9.6770   11.8050    8.7050 O.3       1 NAP254      0.0000 
     10 C2B         9.2960    9.9730   10.1950 C.3       1 NAP254      0.0000 
     11 O2B         9.2660    9.1330    9.0610 O.3       1 NAP254      0.0000 
     12 C1B        10.6630   10.0760   10.8990 C.3       1 NAP254      0.0000 
     13 N9A        10.8300    8.7800   11.5330 N.pl3     1 NAP254      0.0000 
     14 C8A        10.0900    8.1980   12.5210 C.2       1 NAP254      0.0000 
     15 N7A        10.5970    6.9650   12.7380 N.2       1 NAP254      0.0000 
     16 C5A        11.6310    6.7680   11.8910 C.ar      1 NAP254      0.0000 
     17 C6A        12.4860    5.7010   11.6740 C.ar      1 NAP254      0.0000 
     18 N6A        12.3550    4.5830   12.3920 N.pl3     1 NAP254      0.0000 
     19 N1A        13.4800    5.8090   10.7110 N.ar      1 NAP254      0.0000 
     20 C2A        13.6110    6.9590    9.9550 C.ar      1 NAP254      0.0000 
     21 N3A        12.7530    8.0210   10.1700 N.ar      1 NAP254      0.0000 
     22 C4A        11.7780    7.9040   11.1230 C.ar      1 NAP254      0.0000 
     23 O3          6.7960   14.3810   13.7340 O.3       1 NAP254      0.0000 
     24 PN          7.2350   15.8680   13.9470 P.3       1 NAP254      0.0000 
     25 O1N         7.5490   16.4790   12.6250 O.co2     1 NAP254      0.0000 
     26 O2N         6.3060   16.4850   14.9090 O.co2     1 NAP254      0.0000 
     27 O5D         8.5800   15.5980   14.7620 O.3       1 NAP254      0.0000 
     28 C5D         9.8290   16.0590   14.3220 C.3       1 NAP254      0.0000 
     29 C4D        10.7150   16.1570   15.5440 C.3       1 NAP254      0.0000 
     30 O4D        10.1920   17.1760   16.3490 O.3       1 NAP254      0.0000 
     31 C3D        10.7810   14.9090   16.4240 C.3       1 NAP254      0.0000 
     32 O3D        12.1290   14.6920   16.8570 O.3       1 NAP254      0.0000 
     33 C2D         9.8910   15.2650   17.6040 C.3       1 NAP254      0.0000 
     34 O2D        10.2450   14.5890   18.7750 O.3       1 NAP254      0.0000 
     35 C1D        10.1260   16.7260   17.7140 C.3       1 NAP254      0.0000 
     36 N1N         9.1050   17.5430   18.3990 N.pl3     1 NAP254      0.0000 
     37 C2N         7.8920   17.7540   17.7840 C.ar      1 NAP254      0.0000 
     38 C3N         6.9310   18.5200   18.4270 C.ar      1 NAP254      0.0000 
     39 C7N         5.5860   18.7880   17.7680 C.2       1 NAP254      0.0000 
     40 O7N         4.7110   19.5330   18.5280 O.2       1 NAP254      0.0000 
     41 N7N         5.3070   18.3370   16.5410 N.am      1 NAP254      0.0000 
     42 C4N         7.2170   19.0610   19.6860 C.ar      1 NAP254      0.0000 
     43 C5N         8.4630   18.8330   20.3010 C.ar      1 NAP254      0.0000 
     44 C6N         9.3900   18.0630   19.6330 C.ar      1 NAP254      0.0000 
     45 P2B         7.8960    8.6870    8.2690 P.3       1 NAP254      0.0000 
     46 O1X         8.1890    7.4540    7.5020 O.co2     1 NAP254      0.0000 
     47 O2X         6.7900    8.3760    9.2370 O.co2     1 NAP254      0.0000 
     48 O3X         7.4560    9.7310    7.2870 O.co2     1 NAP254      0.0000 
     49 H           8.1332   11.3852   12.4911 H         1 NAP254      0.0000 
     50 H           9.1053   12.7398   13.0912 H         1 NAP254      0.0000 
     51 H          10.0824   12.9984   10.8754 H         1 NAP254      0.0000 
     52 H           7.9826   11.5709    9.9066 H         1 NAP254      0.0000 
     53 H           8.5880    9.6820   10.9725 H         1 NAP254      0.0000 
     54 H          11.3737   10.2113   10.1061 H         1 NAP254      0.0000 
     55 H           9.3474    8.5982   12.9733 H         1 NAP254      0.0000 
     56 H          12.6055    3.7318   11.9307 H         1 NAP254      0.0000 
     57 H          12.0182    4.6972   13.3266 H         1 NAP254      0.0000 
     58 H          14.3438    7.0239    9.2357 H         1 NAP254      0.0000 
     59 H           9.7720   17.0474   13.8679 H         1 NAP254      0.0000 
     60 H          10.3014   15.3749   13.6182 H         1 NAP254      0.0000 
     61 H          11.7204   16.4091   15.2333 H         1 NAP254      0.0000 
     62 H          10.3596   14.1046   15.9023 H         1 NAP254      0.0000 
     63 H           8.8778   15.1134   17.2937 H         1 NAP254      0.0000 
     64 H          11.1035   16.8942   18.1642 H         1 NAP254      0.0000 
     65 H           7.6962   17.3516   16.8609 H         1 NAP254      0.0000 
     66 H           6.0137   17.7790   16.1061 H         1 NAP254      0.0000 
     67 H           4.4166   18.5981   16.1681 H         1 NAP254      0.0000 
     68 H           6.5113   19.6321   20.1704 H         1 NAP254      0.0000 
     69 H           8.6599   19.2321   21.2140 H         1 NAP254      0.0000 
     70 H          10.3120   17.8777   20.0728 H         1 NAP254      0.0000 
     71 H           9.3409   11.1688    8.0105 H         1 NAP254      0.0000 
     72 H          12.6986   15.1051   16.1465 H         1 NAP254      0.0000 
     73 H           9.8145   13.6900   18.6950 H         1 NAP254      0.0000 
@<TRIPOS>BOND
     1    2    1 ar   
     2    3    1 ar   
     3    4    1 1    
     4   23    1 1    
     5    5    4 1    
     6    6    5 1    
     7   49    5 1    
     8   50    5 1    
     9    7    6 1    
    10    8    6 1    
    11   51    6 1    
    12   12    7 1    
    13    9    8 1    
    14   10    8 1    
    15   52    8 1    
    16   71    9 1    
    17   11   10 1    
    18   12   10 1    
    19   53   10 1    
    20   45   11 1    
    21   13   12 1    
    22   54   12 1    
    23   14   13 1    
    24   22   13 1    
    25   15   14 2    
    26   55   14 1    
    27   16   15 1    
    28   17   16 ar   
    29   22   16 ar   
    30   18   17 1    
    31   19   17 ar   
    32   56   18 1    
    33   57   18 1    
    34   20   19 ar   
    35   21   20 ar   
    36   58   20 1    
    37   22   21 ar   
    38   24   23 1    
    39   25   24 ar   
    40   26   24 ar   
    41   27   24 1    
    42   28   27 1    
    43   29   28 1    
    44   59   28 1    
    45   60   28 1    
    46   30   29 1    
    47   31   29 1    
    48   61   29 1    
    49   35   30 1    
    50   32   31 1    
    51   33   31 1    
    52   62   31 1    
    53   72   32 1    
    54   34   33 1    
    55   35   33 1    
    56   63   33 1    
    57   73   34 1    
    58   36   35 1    
    59   64   35 1    
    60   37   36 ar   
    61   44   36 ar   
    62   38   37 ar   
    63   65   37 1    
    64   39   38 1    
    65   42   38 ar   
    66   40   39 2    
    67   41   39 am   
    68   66   41 1    
    69   67   41 1    
    70   43   42 ar   
    71   68   42 1    
    72   44   43 ar   
    73   69   43 1    
    74   70   44 1    
    75   46   45 ar   
    76   47   45 ar   
    77   48   45 ar   
@<TRIPOS>SUBSTRUCTURE
     1 NAP254      1 GROUP   
@<TRIPOS>SET

