#    Name: 1jus_RHQ_1_INTS_M
#    Modification time : Mon Apr  7 13:07:25 2014

@<TRIPOS>MOLECULE
1jus_RHQ_1_INTS_M
   53     0     3     0     0
SMALL
NO_CHARGES


@<TRIPOS>ATOM
      1 CA        -62.7470  -45.6295   -1.2775 C.3       1 GLC5        0.0000 
      2 CA        -62.4690  -45.9560    0.4860 C.3       3 GLL5        0.0000 
      3 CA        -63.0250  -45.3030   -3.0410 C.3       2 GLP5        0.0000 
      4 CA        -63.2265  -47.9055    3.9620 C.3       1 GLC5        0.0000 
      5 CA        -64.4060  -46.4370    4.2020 C.3       3 GLL5        0.0000 
      6 CA        -62.0470  -49.3740    3.7220 C.3       2 GLP5        0.0000 
      7 CA        -62.9555  -49.1815    8.9920 C.3       1 GLC5        0.0000 
      8 CA        -63.3070  -48.1110    7.8830 C.3       3 GLL5        0.0000 
      9 CA        -62.6040  -50.2520   10.1010 C.3       2 GLP5        0.0000 
     10 CA        -63.8235  -49.5355    7.0635 C.3       1 GLC5        0.0000 
     11 CA        -64.3400  -50.9600    6.2440 C.3       2 GLP5        0.0000 
     12 CA        -63.3030  -48.1475    9.9310 C.3       1 GLC5        0.0000 
     13 CA        -63.1970  -46.9440    8.8560 C.3       3 GLL5        0.0000 
     14 CA        -63.4090  -49.3510   11.0060 C.3       2 GLP5        0.0000 
     15 CA        -60.1065  -43.1105    3.5730 C.3       1 GLC5        0.0000 
     16 CA        -59.4340  -44.6980    2.8220 C.3       3 GLL5        0.0000 
     17 CA        -60.7790  -41.5230    4.3240 C.3       2 GLP5        0.0000 
     18 CA        -59.7805  -46.5990    2.6915 C.3       1 GLC5        0.0000 
     19 CA        -60.1270  -48.5000    2.5610 C.3       2 GLP5        0.0000 
     20 CA        -70.9620  -47.9000    0.0650 C.3       1 GLC5        0.0000 
     21 CA        -70.7710  -48.7230    1.6760 C.3       3 GLL5        0.0000 
     22 CA        -71.1530  -47.0770   -1.5460 C.3       2 GLP5        0.0000 
     23 CA        -60.9250  -43.0125   -0.7665 C.3       1 GLC5        0.0000 
     24 CA        -59.0920  -43.8510   -1.6730 C.3       3 GLL5        0.0000 
     25 CA        -62.7580  -42.1740    0.1400 C.3       2 GLP5        0.0000 
     26 CA        -60.7310  -43.9625   -2.6655 C.3       1 GLC5        0.0000 
     27 CA        -62.3700  -44.0740   -3.6580 C.3       2 GLP5        0.0000 
     28 CA        -63.5315  -42.1900    8.5040 C.3       1 GLC5        0.0000 
     29 CA        -65.2820  -41.8600    7.6040 C.3       3 GLL5        0.0000 
     30 CA        -61.7810  -42.5200    9.4040 C.3       2 GLP5        0.0000 
     31 CA        -66.6435  -41.0555    7.4255 C.3       1 GLC5        0.0000 
     32 CA        -68.0050  -40.2510    7.2470 C.3       2 GLP5        0.0000 
     33 CA        -63.8730  -40.5870    5.1780 C.3       1 GLC5        0.0000 
     34 CA        -64.9750  -41.2290    6.2340 C.3       3 GLL5        0.0000 
     35 CA        -62.7710  -39.9450    4.1220 C.3       2 GLP5        0.0000 
     36 CA        -66.3070  -40.7630    5.4725 C.3       1 GLC5        0.0000 
     37 CA        -67.6390  -40.2970    4.7110 C.3       2 GLP5        0.0000 
     38 CA        -62.7938  -47.9832    0.4935 C.3       1 GLC5        0.0000 
     39 CA        -63.5340  -46.2590    1.5380 C.3       3 GLL5        0.0000 
     40 CA        -62.5860  -49.8590   -0.0250 C.3       2 GLP5        0.0000 
     41 CA        -61.1090  -43.4530    3.6397 C.3       1 GLC5        0.0000 
     42 CA        -60.9100  -45.2290    2.4300 C.3       3 GLL5        0.0000 
     43 CA        -67.2756  -48.1863   -0.0024 C.3       1 GLC5        0.0000 
     44 CA        -65.8280  -47.1370    1.9240 C.3       3 GLL5        0.0000 
     45 CA        -67.2400  -48.6140   -1.9230 C.3       2 GLP5        0.0000 
     46 CA        -64.0978  -49.0823    6.1673 C.3       1 GLC5        0.0000 
     47 CA        -63.9990  -46.5330    5.8110 C.3       3 GLL5        0.0000 
     48 CA        -61.3038  -46.6851    7.9664 C.3       1 GLC5        0.0000 
     49 CA        -59.2470  -46.7990    7.5830 C.3       2 GLP5        0.0000 
     50 CA        -62.7178  -44.0198    8.5160 C.3       1 GLC5        0.0000 
     51 CA        -63.4690  -45.6150    8.3300 C.3       3 GLL5        0.0000 
     52 CA        -72.9518  -49.5910    1.4015 C.3       1 GLC5        0.0000 
     53 CA        -74.9560  -49.7710    0.7710 C.3       2 GLP5        0.0000 
@<TRIPOS>BOND
@<TRIPOS>SUBSTRUCTURE
     1 GLC5        1 GROUP        1 X    GLC  0     ROOT GLC X 6
     2 GLP5        3 GROUP        1 Y    GLP  0     ROOT GLP Y 13
     3 GLL5        2 GROUP        1 Z    GLL  0     ROOT GLL Z 20
@<TRIPOS>SET

