#    Name: 1jus_RHQ_1_ligand
#    Modification time : Mon Apr  7 13:07:25 2014

@<TRIPOS>MOLECULE
1jus_RHQ_1_ligand
   63    66     1     0     0
SMALL
NO_CHARGES


@<TRIPOS>ATOM
      1 C1        -63.5340  -46.2590    1.5380 C.2       1 RHQ201      0.0000 
      2 C2        -63.3040  -46.0690    3.0250 C.2       1 RHQ201      0.0000 
      3 C3        -61.9680  -45.5370    3.4810 C.2       1 RHQ201      0.0000 
      4 C4        -60.9100  -45.2290    2.4300 C.2       1 RHQ201      0.0000 
      5 C5        -61.1810  -45.4660    1.0250 C.2       1 RHQ201      0.0000 
      6 C6        -62.4690  -45.9560    0.4860 C.2       1 RHQ201      0.0000 
      7 O1        -64.7640  -46.7690    0.9170 O.3       1 RHQ201      0.0000 
      8 C7        -65.8280  -47.1370    1.9240 C.ar      1 RHQ201      0.0000 
      9 C8        -65.6510  -46.9800    3.4770 C.ar      1 RHQ201      0.0000 
     10 C9        -64.4060  -46.4370    4.2020 C.2       1 RHQ201      0.0000 
     11 C10       -67.0210  -47.6510    1.3550 C.ar      1 RHQ201      0.0000 
     12 C11       -68.1980  -48.1230    2.1970 C.ar      1 RHQ201      0.0000 
     13 C12       -68.0990  -47.9890    3.7470 C.ar      1 RHQ201      0.0000 
     14 C13       -66.8960  -47.4600    4.3530 C.ar      1 RHQ201      0.0000 
     15 N1        -69.2330  -48.6690    1.4100 N.pl3     1 RHQ201      0.0000 
     16 C14       -63.9990  -46.5330    5.8110 C.ar      1 RHQ201      0.0000 
     17 C15       -63.7120  -47.8760    6.3700 C.ar      1 RHQ201      0.0000 
     18 C16       -63.3070  -48.1110    7.8830 C.ar      1 RHQ201      0.0000 
     19 C17       -63.1970  -46.9440    8.8560 C.ar      1 RHQ201      0.0000 
     20 C18       -63.4690  -45.6150    8.3300 C.ar      1 RHQ201      0.0000 
     21 C19       -63.8400  -45.4240    6.9260 C.ar      1 RHQ201      0.0000 
     22 C20       -69.2310  -48.4410    4.7430 C.3       1 RHQ201      0.0000 
     23 C21       -59.4340  -44.6980    2.8220 C.3       1 RHQ201      0.0000 
     24 C22       -70.7710  -48.7230    1.6760 C.3       1 RHQ201      0.0000 
     25 C23       -71.1240  -50.0990    2.3880 C.3       1 RHQ201      0.0000 
     26 N2        -60.3560  -45.3170   -0.1790 N.2       1 RHQ201      0.0000 
     27 C24       -58.9730  -44.9150   -0.4870 C.3       1 RHQ201      0.0000 
     28 C25       -59.0920  -43.8510   -1.6730 C.3       1 RHQ201      0.0000 
     29 C26       -64.0340  -44.0380    6.6760 C.2       1 RHQ201      0.0000 
     30 O27       -63.4140  -43.5490    5.6030 O.2       1 RHQ201      0.0000 
     31 O2        -64.9080  -43.2990    7.6420 O.3       1 RHQ201      0.0000 
     32 C28       -65.2820  -41.8600    7.6040 C.3       1 RHQ201      0.0000 
     33 C29       -64.9750  -41.2290    6.2340 C.3       1 RHQ201      0.0000 
     34 H         -61.7798  -45.3913    4.4271 H         1 RHQ201      0.0000 
     35 H         -62.6435  -46.0808   -0.4426 H         1 RHQ201      0.0000 
     36 H         -67.1371  -47.7250    0.3411 H         1 RHQ201      0.0000 
     37 H         -66.7812  -47.3676    5.3434 H         1 RHQ201      0.0000 
     38 H         -68.9772  -49.1303    0.4744 H         1 RHQ201      0.0000 
     39 H         -63.7658  -48.6992    5.7965 H         1 RHQ201      0.0000 
     40 H         -63.1292  -49.0321    8.1736 H         1 RHQ201      0.0000 
     41 H         -62.9531  -47.1133    9.7838 H         1 RHQ201      0.0000 
     42 H         -63.4021  -44.8097    8.9385 H         1 RHQ201      0.0000 
     43 H         -71.2978  -48.6776    0.7451 H         1 RHQ201      0.0000 
     44 H         -71.0505  -47.9217    2.3286 H         1 RHQ201      0.0000 
     45 H         -58.3896  -45.7290   -0.8537 H         1 RHQ201      0.0000 
     46 H         -58.5061  -44.4187    0.3335 H         1 RHQ201      0.0000 
     47 H         -64.7304  -41.3031    8.3696 H         1 RHQ201      0.0000 
     48 H         -66.3524  -41.7395    7.8051 H         1 RHQ201      0.0000 
     49 H         -69.4273  -49.4183    4.6634 H         1 RHQ201      0.0000 
     50 H         -68.9782  -48.2695    5.6952 H         1 RHQ201      0.0000 
     51 H         -70.0888  -47.9552    4.5754 H         1 RHQ201      0.0000 
     52 H         -58.9474  -45.3495    3.4040 H         1 RHQ201      0.0000 
     53 H         -58.8664  -44.5473    2.0126 H         1 RHQ201      0.0000 
     54 H         -59.4711  -43.8313    3.3195 H         1 RHQ201      0.0000 
     55 H         -70.8707  -50.8848    1.8238 H         1 RHQ201      0.0000 
     56 H         -70.6463  -50.1988    3.2609 H         1 RHQ201      0.0000 
     57 H         -72.1025  -50.1782    2.5786 H         1 RHQ201      0.0000 
     58 H         -58.1961  -43.5087   -1.9562 H         1 RHQ201      0.0000 
     59 H         -59.5247  -44.2454   -2.4837 H         1 RHQ201      0.0000 
     60 H         -59.6382  -43.0570   -1.4062 H         1 RHQ201      0.0000 
     61 H         -64.0026  -41.2869    6.0079 H         1 RHQ201      0.0000 
     62 H         -65.4750  -41.6821    5.4960 H         1 RHQ201      0.0000 
     63 H         -65.2252  -40.2612    6.2064 H         1 RHQ201      0.0000 
@<TRIPOS>BOND
     1    2    1 1    
     2    6    1 2    
     3    7    1 1    
     4    3    2 1    
     5   10    2 2    
     6    4    3 2    
     7   34    3 1    
     8    5    4 1    
     9   23    4 1    
    10    6    5 1    
    11   26    5 2    
    12   35    6 1    
    13    8    7 1    
    14    9    8 ar   
    15   11    8 ar   
    16   10    9 1    
    17   14    9 ar   
    18   16   10 1    
    19   12   11 ar   
    20   36   11 1    
    21   13   12 ar   
    22   15   12 1    
    23   14   13 ar   
    24   22   13 1    
    25   37   14 1    
    26   24   15 1    
    27   38   15 1    
    28   17   16 ar   
    29   21   16 ar   
    30   18   17 ar   
    31   39   17 1    
    32   19   18 ar   
    33   40   18 1    
    34   20   19 ar   
    35   41   19 1    
    36   21   20 ar   
    37   42   20 1    
    38   29   21 1    
    39   49   22 1    
    40   50   22 1    
    41   51   22 1    
    42   52   23 1    
    43   53   23 1    
    44   54   23 1    
    45   25   24 1    
    46   43   24 1    
    47   44   24 1    
    48   55   25 1    
    49   56   25 1    
    50   57   25 1    
    51   27   26 1    
    52   28   27 1    
    53   45   27 1    
    54   46   27 1    
    55   58   28 1    
    56   59   28 1    
    57   60   28 1    
    58   30   29 2    
    59   31   29 1    
    60   32   31 1    
    61   33   32 1    
    62   47   32 1    
    63   48   32 1    
    64   61   33 1    
    65   62   33 1    
    66   63   33 1    
@<TRIPOS>SUBSTRUCTURE
     1 RHQ201      1 GROUP   
@<TRIPOS>SET

