#    Name: 3nw6_LGW_1_INTS_M
#    Modification time : Tue Mar 25 02:46:49 2014

@<TRIPOS>MOLECULE
3nw6_LGW_1_INTS_M
   77     0     9     0     0
SMALL
NO_CHARGES


@<TRIPOS>ATOM
      1 CA        -15.8930    5.6615   12.7295 C.3       3 GLC5        0.0000 
      2 CA        -17.1080    6.9940   11.5160 C.3       9 GLL5        0.0000 
      3 CA        -14.6780    4.3290   13.9430 C.3       6 GLP5        0.0000 
      4 CA        -18.5170    8.7760   14.0170 C.3       3 GLC5        0.0000 
      5 CA        -17.5720    8.0950   12.3100 C.3       9 GLL5        0.0000 
      6 CA        -19.4620    9.4570   15.7240 C.3       6 GLP5        0.0000 
      7 O         -17.9285    6.1100   13.8690 O.2       1 ALC1        0.0000 
      8 O         -17.8660    5.1100   12.6590 O.2       7 ALL1        0.0000 
      9 O         -17.9910    7.1100   15.0790 O.2       4 ALP1        0.0000 
     10 CA        -19.2340    3.7640   11.3140 C.3       3 GLC5        0.0000 
     11 CA        -17.7980    2.4260   12.3000 C.3       9 GLL5        0.0000 
     12 CA        -20.6700    5.1020   10.3280 C.3       6 GLP5        0.0000 
     13 CA        -18.8620    1.9700   10.3855 C.3       3 GLC5        0.0000 
     14 CA        -19.9260    1.5140    8.4710 C.3       6 GLP5        0.0000 
     15 CA        -16.2380    3.3775   13.1215 C.3       3 GLC5        0.0000 
     16 O         -19.7245    1.7190   15.2660 O.2       1 ALC1        0.0000 
     17 O         -18.8580    2.0190   14.1990 O.2       7 ALL1        0.0000 
     18 O         -20.5910    1.4190   16.3330 O.2       4 ALP1        0.0000 
     19 N         -19.1965    4.2620   15.2890 N.am      2 SEC2        0.0000 
     20 N         -18.7310    3.3370   14.0810 N.am      8 SEL2        0.0000 
     21 N         -19.6620    5.1870   16.4970 N.am      5 SEP2        0.0000 
     22 CA        -13.4935    3.8230    7.8410 C.3       3 GLC5        0.0000 
     23 CA        -15.3620    4.3760    8.5960 C.3       9 GLL5        0.0000 
     24 CA        -11.6250    3.2700    7.0860 C.3       6 GLP5        0.0000 
     25 CA        -18.0100    4.7780    7.9135 C.3       3 GLC5        0.0000 
     26 CA        -16.3850    3.7410    7.6400 C.3       9 GLL5        0.0000 
     27 CA        -19.6350    5.8150    8.1870 C.3       6 GLP5        0.0000 
     28 CA        -16.8305    4.5640    5.9875 C.3       3 GLC5        0.0000 
     29 CA        -17.2760    5.3870    4.3350 C.3       6 GLP5        0.0000 
     30 CA        -17.9035    2.6200    7.3330 C.3       3 GLC5        0.0000 
     31 CA        -19.4220    1.4990    7.0260 C.3       6 GLP5        0.0000 
     32 CA        -10.9510    3.9710   11.8940 C.3       3 GLC5        0.0000 
     33 CA        -11.7120    2.3330   11.1170 C.3       9 GLL5        0.0000 
     34 CA        -10.1900    5.6090   12.6710 C.3       6 GLP5        0.0000 
     35 CA        -11.8960    0.2330   10.4375 C.3       3 GLC5        0.0000 
     36 CA        -12.0800   -1.8670    9.7580 C.3       6 GLP5        0.0000 
     37 CA         -9.7555    0.1390   14.0090 C.3       3 GLC5        0.0000 
     38 CA        -11.7040   -0.4390   13.4370 C.3       9 GLL5        0.0000 
     39 CA         -7.8070    0.7170   14.5810 C.3       6 GLP5        0.0000 
     40 CA        -12.9700   -2.0480   14.1465 C.3       3 GLC5        0.0000 
     41 CA        -14.2360   -3.6570   14.8560 C.3       6 GLP5        0.0000 
     42 CA        -19.9297    1.8710   12.7430 C.3       3 GLC5        0.0000 
     43 CA        -21.8030    1.8350   12.7600 C.3       6 GLP5        0.0000 
     44 CA        -20.2600    0.8110   12.5847 C.3       3 GLC5        0.0000 
     45 CA        -19.1040   -0.2790   11.7720 C.3       9 GLL5        0.0000 
     46 CA        -16.6212   -1.7665   13.1035 C.3       3 GLC5        0.0000 
     47 CA        -18.3300   -0.1470   13.0470 C.3       9 GLL5        0.0000 
     48 CA        -15.2830   -3.2740   13.7910 C.3       6 GLP5        0.0000 
     49 CA        -19.1363    0.5945   10.1248 C.3       3 GLC5        0.0000 
     50 CA        -17.5890   -0.3710   11.7850 C.3       9 GLL5        0.0000 
     51 CA        -18.5482   -1.9150   10.8422 C.3       3 GLC5        0.0000 
     52 CA        -18.7500   -3.5050    9.9060 C.3       6 GLP5        0.0000 
     53 CA        -18.6745   -1.9580   12.9021 C.3       3 GLC5        0.0000 
     54 CA        -19.1960   -3.6240   13.7070 C.3       6 GLP5        0.0000 
     55 CA        -16.9543    1.2120    7.4060 C.3       3 GLC5        0.0000 
     56 CA        -14.9350    1.9720    8.6100 C.3       9 GLL5        0.0000 
     57 CA        -18.5270    0.2860    6.8080 C.3       6 GLP5        0.0000 
     58 CA        -14.4788    0.6860    7.6090 C.3       3 GLC5        0.0000 
     59 CA        -15.8280    2.3040    7.3980 C.3       9 GLL5        0.0000 
     60 CA        -13.5760   -0.7660    7.2140 C.3       6 GLP5        0.0000 
     61 CA        -13.5033    2.7040    7.5450 C.3       3 GLC5        0.0000 
     62 CA        -12.0152    2.8440    9.0658 C.3       3 GLC5        0.0000 
     63 CA        -13.0990    2.5030   10.9740 C.3       9 GLL5        0.0000 
     64 CA        -13.5545   -0.1764   10.8660 C.3       3 GLC5        0.0000 
     65 CA        -13.4740    0.6660   12.5100 C.3       9 GLL5        0.0000 
     66 CA        -13.6050   -1.7240    9.8120 C.3       6 GLP5        0.0000 
     67 CA        -12.1703   -0.4093   14.9010 C.3       3 GLC5        0.0000 
     68 CA        -12.0890    0.5460   12.6130 C.3       9 GLL5        0.0000 
     69 CA        -12.4440   -0.8720   16.7770 C.3       6 GLP5        0.0000 
     70 CA        -11.9883   -0.9067   11.3915 C.3       3 GLC5        0.0000 
     71 CA        -12.8455    2.8919   12.7662 C.3       3 GLC5        0.0000 
     72 CA        -13.0680    3.5790   14.3090 C.3       6 GLP5        0.0000 
     73 CA        -12.6554    1.8313   13.6541 C.3       3 GLC5        0.0000 
     74 CA        -18.7420    7.9070   10.6738 C.3       3 GLC5        0.0000 
     75 CA        -20.4310    7.5290    9.8650 C.3       6 GLP5        0.0000 
     76 CA        -15.6910    8.1890   12.5222 C.3       3 GLC5        0.0000 
     77 CA        -14.3290    8.0930   13.5620 C.3       6 GLP5        0.0000 
@<TRIPOS>BOND
@<TRIPOS>SUBSTRUCTURE
     1 ALC1        7 GROUP        1 X    ALC  0     ROOT ALC X 1
     2 SEC2       19 GROUP        1 X    SEC  0     **** SEC X 2
     3 GLC5        1 GROUP        1 X    GLC  0     **** GLC X 6
     4 ALP1        9 GROUP        1 Y    ALP  0     ROOT ALP Y 8
     5 SEP2       21 GROUP        1 Y    SEP  0     **** SEP Y 9
     6 GLP5        3 GROUP        1 Y    GLP  0     **** GLP Y 13
     7 ALL1        8 GROUP        1 Z    ALL  0     ROOT ALL Z 15
     8 SEL2       20 GROUP        1 Z    SEL  0     **** SEL Z 16
     9 GLL5        2 GROUP        1 Z    GLL  0     **** GLL Z 20
@<TRIPOS>SET

