#    Name: 3nw6_LGW_1_ligand
#    Modification time : Tue Mar 25 02:46:49 2014

@<TRIPOS>MOLECULE
3nw6_LGW_1_ligand
   53    58     1     0     0
SMALL
NO_CHARGES


@<TRIPOS>ATOM
      1 N1        -16.4110    7.4650   10.4150 N.pl3     1 LGW1        0.0000 
      2 C2        -17.1080    6.9940   11.5160 C.2       1 LGW1        0.0000 
      3 C3        -17.5720    8.0950   12.3100 C.2       1 LGW1        0.0000 
      4 C4        -17.1170    9.2330   11.6250 C.2       1 LGW1        0.0000 
      5 C5        -16.4150    8.8180   10.4790 C.2       1 LGW1        0.0000 
      6 N6        -15.8680    6.5940    9.5050 N.2       1 LGW1        0.0000 
      7 C7        -15.9780    5.2610    9.6250 C.2       1 LGW1        0.0000 
      8 N8        -16.6480    4.7630   10.6830 N.2       1 LGW1        0.0000 
      9 C9        -17.1980    5.6150   11.6050 C.2       1 LGW1        0.0000 
     10 N10       -17.8660    5.1100   12.6590 N.pl3     1 LGW1        0.0000 
     11 C11       -18.0990    3.6890   12.9590 C.2       1 LGW1        0.0000 
     12 C12       -17.7980    2.4260   12.3000 C.2       1 LGW1        0.0000 
     13 C13       -18.3150    1.3880   13.1520 C.2       1 LGW1        0.0000 
     14 N14       -18.8580    2.0190   14.1990 N.pl3     1 LGW1        0.0000 
     15 N15       -18.7310    3.3370   14.0810 N.2       1 LGW1        0.0000 
     16 C16       -18.3300   -0.1470   13.0470 C.3       1 LGW1        0.0000 
     17 C17       -19.1040   -0.2790   11.7720 C.3       1 LGW1        0.0000 
     18 C18       -17.5890   -0.3710   11.7850 C.3       1 LGW1        0.0000 
     19 C19       -15.3620    4.3760    8.5960 C.3       1 LGW1        0.0000 
     20 N20       -14.5730    3.2790    9.1640 N.am      1 LGW1        0.0000 
     21 C21       -14.9350    1.9720    8.6100 C.3       1 LGW1        0.0000 
     22 C22       -15.8280    2.3040    7.3980 C.3       1 LGW1        0.0000 
     23 C23       -16.3850    3.7410    7.6400 C.3       1 LGW1        0.0000 
     24 C24       -13.6190    3.5410   10.1070 C.2       1 LGW1        0.0000 
     25 O25       -13.1690    4.6680   10.2530 O.2       1 LGW1        0.0000 
     26 C26       -13.0990    2.5030   10.9740 C.ar      1 LGW1        0.0000 
     27 C27       -13.9690    1.6500   11.6860 C.ar      1 LGW1        0.0000 
     28 C28       -13.4740    0.6660   12.5100 C.ar      1 LGW1        0.0000 
     29 C29       -12.0890    0.5460   12.6130 C.ar      1 LGW1        0.0000 
     30 N30       -11.2190    1.3540   11.9370 N.ar      1 LGW1        0.0000 
     31 C31       -11.7120    2.3330   11.1170 C.ar      1 LGW1        0.0000 
     32 F32       -11.7040   -0.4390   13.4370 F         1 LGW1        0.0000 
     33 H         -18.0529    8.0469   13.0827 H         1 LGW1        0.0000 
     34 H         -17.2583   10.1299   11.8890 H         1 LGW1        0.0000 
     35 H         -16.0100    9.4256    9.8538 H         1 LGW1        0.0000 
     36 H         -18.2917    5.7772   13.3844 H         1 LGW1        0.0000 
     37 H         -17.3649    2.3232   11.5014 H         1 LGW1        0.0000 
     38 H         -19.2953    1.5612   14.9584 H         1 LGW1        0.0000 
     39 H         -18.3888   -0.7332   13.5849 H         1 LGW1        0.0000 
     40 H         -19.3352    0.5895   11.4722 H         1 LGW1        0.0000 
     41 H         -19.4436   -1.1619   11.7193 H         1 LGW1        0.0000 
     42 H         -17.3563   -1.2909   11.7211 H         1 LGW1        0.0000 
     43 H         -17.2479    0.4604   11.4739 H         1 LGW1        0.0000 
     44 H         -14.6890    4.9825    7.9572 H         1 LGW1        0.0000 
     45 H         -15.5077    1.3957    9.3042 H         1 LGW1        0.0000 
     46 H         -14.0756    1.4410    8.2615 H         1 LGW1        0.0000 
     47 H         -16.6425    1.6185    7.3513 H         1 LGW1        0.0000 
     48 H         -15.2428    2.3032    6.5075 H         1 LGW1        0.0000 
     49 H         -16.3987    4.2657    6.7239 H         1 LGW1        0.0000 
     50 H         -17.3271    3.6721    8.1116 H         1 LGW1        0.0000 
     51 H         -14.9885    1.7788   11.5765 H         1 LGW1        0.0000 
     52 H         -14.0869    0.0462   13.0273 H         1 LGW1        0.0000 
     53 H         -11.0764    2.9557   10.5959 H         1 LGW1        0.0000 
@<TRIPOS>BOND
     1    2    1 1    
     2    5    1 1    
     3    6    1 1    
     4    3    2 2    
     5    9    2 1    
     6    4    3 1    
     7   33    3 1    
     8    5    4 2    
     9   34    4 1    
    10   35    5 1    
    11    7    6 2    
    12    8    7 1    
    13   19    7 1    
    14    9    8 2    
    15   10    9 1    
    16   11   10 1    
    17   36   10 1    
    18   12   11 1    
    19   15   11 2    
    20   13   12 2    
    21   37   12 1    
    22   14   13 1    
    23   16   13 1    
    24   15   14 1    
    25   38   14 1    
    26   17   16 1    
    27   18   16 1    
    28   39   16 1    
    29   18   17 1    
    30   40   17 1    
    31   41   17 1    
    32   42   18 1    
    33   43   18 1    
    34   20   19 1    
    35   23   19 1    
    36   44   19 1    
    37   21   20 1    
    38   24   20 am   
    39   22   21 1    
    40   45   21 1    
    41   46   21 1    
    42   23   22 1    
    43   47   22 1    
    44   48   22 1    
    45   49   23 1    
    46   50   23 1    
    47   25   24 2    
    48   26   24 1    
    49   27   26 ar   
    50   31   26 ar   
    51   28   27 ar   
    52   51   27 1    
    53   29   28 ar   
    54   52   28 1    
    55   30   29 ar   
    56   32   29 1    
    57   31   30 ar   
    58   53   31 1    
@<TRIPOS>SUBSTRUCTURE
     1 LGW1        1 GROUP   
@<TRIPOS>SET

