#    Name: 3g6g_G6G_1_INTS_M
#    Modification time : Tue Mar 25 07:13:32 2014

@<TRIPOS>MOLECULE
3g6g_G6G_1_INTS_M
  109     0     9     0     0
SMALL
NO_CHARGES


@<TRIPOS>ATOM
      1 CA         12.7475   35.8510    9.5725 C.3       3 GLC5        0.0000 
      2 CA         13.0540   35.8060    7.4560 C.3       9 GLL5        0.0000 
      3 CA         12.4410   35.8960   11.6890 C.3       6 GLP5        0.0000 
      4 CA         13.9195   34.2340    6.4840 C.3       3 GLC5        0.0000 
      5 CA         14.7850   32.6620    5.5120 C.3       6 GLP5        0.0000 
      6 CA         11.8315   34.6650    6.5150 C.3       3 GLC5        0.0000 
      7 CA         10.6090   33.5240    5.5740 C.3       6 GLP5        0.0000 
      8 CA         12.3195   34.9545   10.1645 C.3       3 GLC5        0.0000 
      9 CA         12.1980   34.0130    8.6400 C.3       9 GLL5        0.0000 
     10 CA         10.8630   32.2440    8.9980 C.3       3 GLC5        0.0000 
     11 CA          9.5280   30.4750    9.3560 C.3       6 GLP5        0.0000 
     12 CA         13.9690   33.5565    9.3875 C.3       3 GLC5        0.0000 
     13 CA         15.7400   33.1000   10.1350 C.3       6 GLP5        0.0000 
     14 CA         13.0470   32.7925    7.3870 C.3       3 GLC5        0.0000 
     15 CA         13.8960   31.5720    6.1340 C.3       6 GLP5        0.0000 
     16 CA         11.4035   33.7685    7.1070 C.3       3 GLC5        0.0000 
     17 CA          0.2345   30.6870    6.4980 C.3       3 GLC5        0.0000 
     18 CA         -1.1130   29.0840    6.8250 C.3       9 GLL5        0.0000 
     19 CA          1.5820   32.2900    6.1710 C.3       6 GLP5        0.0000 
     20 O          -3.5625   27.5755    6.0080 O.2       1 ALC1        0.0000 
     21 O          -3.4970   28.7220    6.8850 O.2       7 ALL1        0.0000 
     22 O          -3.6280   26.4290    5.1310 O.2       4 ALP1        0.0000 
     23 CA         -6.0425   29.6705    5.5425 C.3       3 GLC5        0.0000 
     24 CA         -4.8520   29.3030    6.7730 C.3       9 GLL5        0.0000 
     25 CA         -7.2330   30.0380    4.3120 C.3       6 GLP5        0.0000 
     26 CA         -1.7245   26.7230    9.9720 C.3       3 GLC5        0.0000 
     27 CA         -2.0120   27.0400    7.9010 C.3       9 GLL5        0.0000 
     28 CA         -1.4370   26.4060   12.0430 C.3       6 GLP5        0.0000 
     29 CA          4.7650   30.3025    6.4080 C.3       3 GLC5        0.0000 
     30 CA          3.5980   29.5380    7.8430 C.3       9 GLL5        0.0000 
     31 CA          5.9320   31.0670    4.9730 C.3       6 GLP5        0.0000 
     32 CA          1.7620   31.3715   11.4300 C.3       3 GLC5        0.0000 
     33 CA          2.3130   30.4440    9.6550 C.3       9 GLL5        0.0000 
     34 CA          1.2110   32.2990   13.2050 C.3       6 GLP5        0.0000 
     35 CA          3.8765   30.3555   10.8930 C.3       3 GLC5        0.0000 
     36 CA          3.4580   30.4650    8.8700 C.3       9 GLL5        0.0000 
     37 CA          4.2950   30.2460   12.9160 C.3       6 GLP5        0.0000 
     38 N           4.7500   31.9465    6.9885 N.am      2 SEC2        0.0000 
     39 N           5.4760   31.5530    8.2070 N.am      8 SEL2        0.0000 
     40 N           4.0240   32.3400    5.7700 N.am      5 SEP2        0.0000 
     41 O           3.4655   32.7265   10.7910 O.2       1 ALC1        0.0000 
     42 O           4.5620   32.1840   10.2270 O.2       7 ALL1        0.0000 
     43 O           2.3690   33.2690   11.3550 O.2       4 ALP1        0.0000 
     44 CA          8.0455   32.0145    9.6465 C.3       3 GLC5        0.0000 
     45 CA          6.5630   33.5540    9.9370 C.3       9 GLL5        0.0000 
     46 CA          3.2625   32.9000   12.6005 C.3       3 GLC5        0.0000 
     47 CA          5.3140   33.5010   11.9960 C.3       9 GLL5        0.0000 
     48 CA          5.2465   36.1270   12.9250 C.3       3 GLC5        0.0000 
     49 CA          6.2260   34.4080   12.5440 C.3       9 GLL5        0.0000 
     50 CA          4.2670   37.8460   13.3060 C.3       6 GLP5        0.0000 
     51 CA         10.3560   35.9005   12.0890 C.3       3 GLC5        0.0000 
     52 CA          8.2710   35.9050   12.4890 C.3       9 GLL5        0.0000 
     53 CA          7.4280   39.2415   10.1020 C.3       3 GLC5        0.0000 
     54 CA          7.3760   38.1630    8.7300 C.3       9 GLL5        0.0000 
     55 CA          7.4800   40.3200   11.4740 C.3       6 GLP5        0.0000 
     56 N          14.4585   33.9355    7.8435 N.am      2 SEC2        0.0000 
     57 N          13.2000   34.5610    7.9740 N.am      8 SEL2        0.0000 
     58 N          15.7170   33.3100    7.7130 N.am      5 SEP2        0.0000 
     59 O          15.1470   35.8095    6.1855 O.2       1 ALC1        0.0000 
     60 O          14.0740   36.3800    6.7820 O.2       7 ALL1        0.0000 
     61 O          16.2200   35.2390    5.5890 O.2       4 ALP1        0.0000 
     62 CA         14.8678   37.9688    3.6980 C.3       3 GLC5        0.0000 
     63 CA         15.4190   39.2840    4.9690 C.3       9 GLL5        0.0000 
     64 CA         14.3640   37.2540    2.0620 C.3       6 GLP5        0.0000 
     65 CA         14.9529   40.4284    6.6905 C.3       3 GLC5        0.0000 
     66 CA         15.3240   38.0830    5.6990 C.3       9 GLL5        0.0000 
     67 CA         15.0910   41.5320    8.4180 C.3       6 GLP5        0.0000 
     68 CA         14.0018   38.4735    3.4205 C.3       3 GLC5        0.0000 
     69 CA         14.2580   39.9660    4.5920 C.3       9 GLL5        0.0000 
     70 CA         13.4895   38.9177    7.6822 C.3       3 GLC5        0.0000 
     71 CA         12.9430   38.2270    5.7040 C.3       9 GLL5        0.0000 
     72 CA         13.4640   39.9500    9.4690 C.3       6 GLP5        0.0000 
     73 CA         13.9395   37.5697    3.9787 C.3       3 GLC5        0.0000 
     74 CA         12.5180   36.4657    4.8762 C.3       3 GLC5        0.0000 
     75 CA         11.5210   35.0460    3.8570 C.3       6 GLP5        0.0000 
     76 CA         11.3605   36.0872   10.0397 C.3       3 GLC5        0.0000 
     77 CA         10.8710   35.9070    8.3140 C.3       9 GLL5        0.0000 
     78 CA         10.4445   34.9013    6.9823 C.3       3 GLC5        0.0000 
     79 CA         -2.0373   28.5005    5.0055 C.3       3 GLC5        0.0000 
     80 CA         -2.2780   27.5740    3.0980 C.3       6 GLP5        0.0000 
     81 CA         -2.9977   25.4402    8.6315 C.3       3 GLC5        0.0000 
     82 CA         -3.2840   23.5220    9.3430 C.3       6 GLP5        0.0000 
     83 CA          1.2025   26.3015    9.2973 C.3       3 GLC5        0.0000 
     84 CA          0.4010   27.5160    8.0760 C.3       9 GLL5        0.0000 
     85 CA          1.4720   24.5630   10.3640 C.3       6 GLP5        0.0000 
     86 CA          1.8108   30.4327    7.0818 C.3       3 GLC5        0.0000 
     87 CA          1.4650   28.5640    8.3850 C.3       9 GLL5        0.0000 
     88 CA          3.9400   27.3687    6.8598 C.3       3 GLC5        0.0000 
     89 CA          2.6140   28.5870    7.6000 C.3       9 GLL5        0.0000 
     90 CA          4.7740   25.6750    5.9980 C.3       6 GLP5        0.0000 
     91 CA          2.5550   31.1457    7.2637 C.3       3 GLC5        0.0000 
     92 CA          2.5370   29.3675   11.1922 C.3       3 GLC5        0.0000 
     93 CA          3.2600   28.7680   12.8530 C.3       6 GLP5        0.0000 
     94 CA          1.6980   31.1285    7.8513 C.3       3 GLC5        0.0000 
     95 CA          4.8420   31.7650   12.1277 C.3       3 GLC5        0.0000 
     96 CA          5.4640   33.0670   10.6830 C.3       9 GLL5        0.0000 
     97 CA          5.7305   33.6987   14.2770 C.3       3 GLC5        0.0000 
     98 CA          5.6910   33.4430   16.2840 C.3       6 GLP5        0.0000 
     99 CA          7.2590   32.9502   12.7690 C.3       3 GLC5        0.0000 
    100 CA          8.7480   31.9460   13.2680 C.3       6 GLP5        0.0000 
    101 CA          7.0713   36.7905   13.3575 C.3       3 GLC5        0.0000 
    102 CA          7.3000   34.9070   11.8070 C.3       9 GLL5        0.0000 
    103 CA          6.3570   38.1750   14.5670 C.3       6 GLP5        0.0000 
    104 CA          8.2667   33.6760   12.7080 C.3       3 GLC5        0.0000 
    105 CA          7.7464   32.9231   11.8300 C.3       3 GLC5        0.0000 
    106 CA          7.4760   34.4900   10.4740 C.3       9 GLL5        0.0000 
    107 CA          9.6365   38.8087    9.5258 C.3       3 GLC5        0.0000 
    108 CA          9.6290   37.9170    7.8670 C.3       9 GLL5        0.0000 
    109 CA          9.9060   40.1410   10.8460 C.3       6 GLP5        0.0000 
@<TRIPOS>BOND
@<TRIPOS>SUBSTRUCTURE
     1 ALC1       20 GROUP        1 X    ALC  0     ROOT ALC X 1
     2 SEC2       38 GROUP        1 X    SEC  0     **** SEC X 2
     3 GLC5        1 GROUP        1 X    GLC  0     **** GLC X 6
     4 ALP1       22 GROUP        1 Y    ALP  0     ROOT ALP Y 8
     5 SEP2       40 GROUP        1 Y    SEP  0     **** SEP Y 9
     6 GLP5        3 GROUP        1 Y    GLP  0     **** GLP Y 13
     7 ALL1       21 GROUP        1 Z    ALL  0     ROOT ALL Z 15
     8 SEL2       39 GROUP        1 Z    SEL  0     **** SEL Z 16
     9 GLL5        2 GROUP        1 Z    GLL  0     **** GLL Z 20
@<TRIPOS>SET

