#    Name: 3g6g_G6G_1_ligand
#    Modification time : Tue Mar 25 07:13:32 2014

@<TRIPOS>MOLECULE
3g6g_G6G_1_ligand
   84    89     1     0     0
SMALL
NO_CHARGES


@<TRIPOS>ATOM
      1 C1         15.3240   38.0830    5.6990 C.ar      1 G6G1        0.0000 
      2 C2         15.4190   39.2840    4.9690 C.ar      1 G6G1        0.0000 
      3 C3         14.2580   39.9660    4.5920 C.ar      1 G6G1        0.0000 
      4 C4         13.0210   39.4200    4.9660 C.ar      1 G6G1        0.0000 
      5 C5         12.9430   38.2270    5.7040 C.ar      1 G6G1        0.0000 
      6 C6         14.0870   37.5440    6.0870 C.ar      1 G6G1        0.0000 
      7 C8         15.6520   41.4590    3.3330 C.3       1 G6G1        0.0000 
      8 C10        13.0540   35.8060    7.4560 C.ar      1 G6G1        0.0000 
      9 C12        10.8710   35.9070    8.3140 C.ar      1 G6G1        0.0000 
     10 C14        12.1980   34.0130    8.6400 C.ar      1 G6G1        0.0000 
     11 C41        -1.1130   29.0840    6.8250 C.3       1 G6G1        0.0000 
     12 C42        -2.4800   29.7700    7.0010 C.3       1 G6G1        0.0000 
     13 N43        -3.4970   28.7220    6.8850 N.4       1 G6G1        0.0000 
     14 C46        -4.8520   29.3030    6.7730 C.3       1 G6G1        0.0000 
     15 C44        -3.4110   27.6770    7.9390 C.3       1 G6G1        0.0000 
     16 C45        -2.0120   27.0400    7.9010 C.3       1 G6G1        0.0000 
     17 N40        -0.9600   28.0990    7.9270 N.3       1 G6G1        0.0000 
     18 C39         0.4010   27.5160    8.0760 C.3       1 G6G1        0.0000 
     19 C36         1.4650   28.5640    8.3850 C.ar      1 G6G1        0.0000 
     20 C37         2.6140   28.5870    7.6000 C.ar      1 G6G1        0.0000 
     21 C38         3.5980   29.5380    7.8430 C.ar      1 G6G1        0.0000 
     22 C35         1.3150   29.4900    9.4080 C.ar      1 G6G1        0.0000 
     23 C34         2.3130   30.4440    9.6550 C.ar      1 G6G1        0.0000 
     24 C32         3.4580   30.4650    8.8700 C.ar      1 G6G1        0.0000 
     25 C31         4.6010   31.4760    9.0740 C.2       1 G6G1        0.0000 
     26 O33         5.4760   31.5530    8.2070 O.2       1 G6G1        0.0000 
     27 N30         4.5620   32.1840   10.2270 N.am      1 G6G1        0.0000 
     28 C25         5.4640   33.0670   10.6830 C.ar      1 G6G1        0.0000 
     29 C24         6.5630   33.5540    9.9370 C.ar      1 G6G1        0.0000 
     30 C26         5.3140   33.5010   11.9960 C.ar      1 G6G1        0.0000 
     31 C27         6.2260   34.4080   12.5440 C.ar      1 G6G1        0.0000 
     32 C28         7.3000   34.9070   11.8070 C.ar      1 G6G1        0.0000 
     33 C29         8.2710   35.9050   12.4890 C.3       1 G6G1        0.0000 
     34 C23         7.4760   34.4900   10.4740 C.ar      1 G6G1        0.0000 
     35 N22         8.5240   34.9560    9.7370 N.pl3     1 G6G1        0.0000 
     36 C21         8.5540   36.1790    9.1750 C.ar      1 G6G1        0.0000 
     37 N20         7.4540   36.9420    9.2660 N.ar      1 G6G1        0.0000 
     38 C19         7.3760   38.1630    8.7300 C.ar      1 G6G1        0.0000 
     39 C18         8.4610   38.6890    8.0210 C.ar      1 G6G1        0.0000 
     40 C17         9.6290   37.9170    7.8670 C.ar      1 G6G1        0.0000 
     41 C16         9.6890   36.6500    8.4670 C.ar      1 G6G1        0.0000 
     42 N11        11.8930   36.4630    7.6490 N.ar      1 G6G1        0.0000 
     43 N13        11.0400   34.6610    8.8170 N.ar      1 G6G1        0.0000 
     44 N15        13.2000   34.5610    7.9740 N.ar      1 G6G1        0.0000 
     45 N9         14.0740   36.3800    6.7820 N.pl3     1 G6G1        0.0000 
     46 O7         14.3030   41.1520    3.8660 O.3       1 G6G1        0.0000 
     47 H          16.1956   37.5831    5.9568 H         1 G6G1        0.0000 
     48 H          16.3398   39.6536    4.7168 H         1 G6G1        0.0000 
     49 H          12.1499   39.9039    4.6939 H         1 G6G1        0.0000 
     50 H          12.0112   37.8582    5.9623 H         1 G6G1        0.0000 
     51 H          12.3065   33.0415    9.0447 H         1 G6G1        0.0000 
     52 H          -0.3415   29.8364    6.8745 H         1 G6G1        0.0000 
     53 H          -1.0965   28.5906    5.8658 H         1 G6G1        0.0000 
     54 H          -2.5897   30.5113    6.2257 H         1 G6G1        0.0000 
     55 H          -2.5036   30.2343    7.9738 H         1 G6G1        0.0000 
     56 H          -3.3047   28.1929    5.8961 H         1 G6G1        0.0000 
     57 H          -4.1485   26.9001    7.7670 H         1 G6G1        0.0000 
     58 H          -3.5654   28.1119    8.9209 H         1 G6G1        0.0000 
     59 H          -1.9273   26.4450    6.9923 H         1 G6G1        0.0000 
     60 H          -1.9078   26.3822    8.7631 H         1 G6G1        0.0000 
     61 H           0.6877   26.9897    7.1507 H         1 G6G1        0.0000 
     62 H           0.4027   26.7676    8.8855 H         1 G6G1        0.0000 
     63 H           2.7336   27.9029    6.8436 H         1 G6G1        0.0000 
     64 H           4.4470   29.5568    7.2514 H         1 G6G1        0.0000 
     65 H           0.4676   29.4818    9.9932 H         1 G6G1        0.0000 
     66 H           2.1914   31.1217   10.4150 H         1 G6G1        0.0000 
     67 H           3.6848   32.0122   10.8631 H         1 G6G1        0.0000 
     68 H           6.7021   33.2147    8.9697 H         1 G6G1        0.0000 
     69 H           4.5321   33.1560   12.5672 H         1 G6G1        0.0000 
     70 H           6.0991   34.7181   13.5277 H         1 G6G1        0.0000 
     71 H           9.3615   34.3120    9.6025 H         1 G6G1        0.0000 
     72 H           6.5221   38.7443    8.8239 H         1 G6G1        0.0000 
     73 H           8.4111   39.6246    7.6167 H         1 G6G1        0.0000 
     74 H          10.4137   38.2737    7.3300 H         1 G6G1        0.0000 
     75 H          15.0281   35.8274    6.7981 H         1 G6G1        0.0000 
     76 H          16.3278   41.5523    4.0641 H         1 G6G1        0.0000 
     77 H          15.9811   40.7412    2.7195 H         1 G6G1        0.0000 
     78 H          15.6608   42.3142    2.8148 H         1 G6G1        0.0000 
     79 H          -5.0861   29.8563    7.5724 H         1 G6G1        0.0000 
     80 H          -4.9371   29.8951    5.9717 H         1 G6G1        0.0000 
     81 H          -5.5538   28.5954    6.6905 H         1 G6G1        0.0000 
     82 H           8.7106   35.5048   13.2931 H         1 G6G1        0.0000 
     83 H           9.0008   36.1950   11.8699 H         1 G6G1        0.0000 
     84 H           7.7994   36.7324   12.7941 H         1 G6G1        0.0000 
@<TRIPOS>BOND
     1    2    1 ar   
     2    6    1 ar   
     3   47    1 1    
     4    3    2 ar   
     5   48    2 1    
     6    4    3 ar   
     7   46    3 1    
     8    5    4 ar   
     9   49    4 1    
    10    6    5 ar   
    11   50    5 1    
    12   45    6 1    
    13   46    7 1    
    14   76    7 1    
    15   77    7 1    
    16   78    7 1    
    17   42    8 ar   
    18   44    8 ar   
    19   45    8 1    
    20   41    9 1    
    21   42    9 ar   
    22   43    9 ar   
    23   43   10 ar   
    24   44   10 ar   
    25   51   10 1    
    26   12   11 1    
    27   17   11 1    
    28   52   11 1    
    29   53   11 1    
    30   13   12 1    
    31   54   12 1    
    32   55   12 1    
    33   14   13 1    
    34   15   13 1    
    35   56   13 1    
    36   79   14 1    
    37   80   14 1    
    38   81   14 1    
    39   16   15 1    
    40   57   15 1    
    41   58   15 1    
    42   17   16 1    
    43   59   16 1    
    44   60   16 1    
    45   18   17 1    
    46   19   18 1    
    47   61   18 1    
    48   62   18 1    
    49   20   19 ar   
    50   22   19 ar   
    51   21   20 ar   
    52   63   20 1    
    53   24   21 ar   
    54   64   21 1    
    55   23   22 ar   
    56   65   22 1    
    57   24   23 ar   
    58   66   23 1    
    59   25   24 1    
    60   26   25 2    
    61   27   25 am   
    62   28   27 1    
    63   67   27 1    
    64   29   28 ar   
    65   30   28 ar   
    66   34   29 ar   
    67   68   29 1    
    68   31   30 ar   
    69   69   30 1    
    70   32   31 ar   
    71   70   31 1    
    72   33   32 1    
    73   34   32 ar   
    74   82   33 1    
    75   83   33 1    
    76   84   33 1    
    77   35   34 1    
    78   36   35 1    
    79   71   35 1    
    80   37   36 ar   
    81   41   36 ar   
    82   38   37 ar   
    83   39   38 ar   
    84   72   38 1    
    85   40   39 ar   
    86   73   39 1    
    87   41   40 ar   
    88   74   40 1    
    89   75   45 1    
@<TRIPOS>SUBSTRUCTURE
     1 G6G1        1 GROUP   
@<TRIPOS>SET

