#    Name: 2wat_COA_5_INTS_M
#    Modification time : Tue Mar 25 03:51:28 2014

@<TRIPOS>MOLECULE
2wat_COA_5_INTS_M
   90     0    12     0     0
SMALL
NO_CHARGES


@<TRIPOS>ATOM
      1 N         -36.7195   23.7525   -7.5250 N.am      2 SEC2        0.0000 
      2 N         -36.5350   22.4100   -8.1120 N.am     10 SEL2        0.0000 
      3 N         -36.9040   25.0950   -6.9380 N.am      6 SEP2        0.0000 
      4 CA        -34.4885   23.8750   -8.3890 C.3       4 GLC5        0.0000 
      5 CA        -35.1600   22.2880   -7.9980 C.3      12 GLL5        0.0000 
      6 CA        -33.8170   25.4620   -8.7800 C.3       8 GLP5        0.0000 
      7 CA        -35.9655   20.9505   -6.9755 C.3       4 GLC5        0.0000 
      8 CA        -36.7710   19.6130   -5.9530 C.3       8 GLP5        0.0000 
      9 CA        -34.1935   20.3805   -7.3275 C.3       4 GLC5        0.0000 
     10 CA        -33.2270   18.4730   -6.6570 C.3       8 GLP5        0.0000 
     11 CA        -34.0690   22.2025  -10.0705 C.3       4 GLC5        0.0000 
     12 CA        -35.1810   20.4210   -9.4460 C.3      12 GLL5        0.0000 
     13 CA        -32.9570   23.9840  -10.6950 C.3       8 GLP5        0.0000 
     14 CA        -34.2040   19.4470   -8.0515 C.3       4 GLC5        0.0000 
     15 CA        -37.0135   20.5695   -7.4220 C.3       4 GLC5        0.0000 
     16 CA        -37.2560   21.5260   -8.8910 C.3      12 GLL5        0.0000 
     17 O         -39.2280   22.5110   -7.8110 O.2       1 ALC1        0.0000 
     18 O         -38.5680   21.3800   -8.6780 O.2       9 ALL1        0.0000 
     19 O         -39.8880   23.6420   -6.9440 O.2       5 ALP1        0.0000 
     20 NZ        -32.8105   14.4130   -9.4215 N.4       3 LYC4        0.0000 
     21 NZ        -32.0850   14.3300  -10.4120 N.4      11 LYL4        0.0000 
     22 NZ        -33.6380   13.5970   -7.4600 N.4       7 LYP4        0.0000 
     23 N         -32.8105   14.4130   -9.4215 N.am      2 SEC2        0.0000 
     24 N         -32.0850   14.3300  -10.4120 N.am     10 SEL2        0.0000 
     25 N         -33.5360   14.4960   -8.4310 N.am      6 SEP2        0.0000 
     26 N         -32.1240   11.9805  -12.6610 N.am      2 SEC2        0.0000 
     27 N         -32.2120   13.4510  -12.7270 N.am     10 SEL2        0.0000 
     28 N         -32.0360   10.5100  -12.5950 N.am      6 SEP2        0.0000 
     29 N         -35.1400   13.8815  -11.0675 N.am      2 SEC2        0.0000 
     30 N         -34.2250   14.3660  -11.6910 N.am     10 SEL2        0.0000 
     31 N         -36.0550   13.3970  -10.4440 N.am      6 SEP2        0.0000 
     32 N         -29.1010   18.5485  -16.2080 N.am      2 SEC2        0.0000 
     33 N         -30.6640   18.6370  -16.4200 N.am     10 SEL2        0.0000 
     34 N         -27.5380   18.4600  -15.9960 N.am      6 SEP2        0.0000 
     35 NZ        -30.6695   21.5510  -14.5245 N.4       3 LYC4        0.0000 
     36 NZ        -30.5980   21.0730  -15.9370 N.4      11 LYL4        0.0000 
     37 NZ        -30.7410   22.0290  -13.1120 N.4       7 LYP4        0.0000 
     38 N         -30.6695   21.5510  -14.5245 N.am      2 SEC2        0.0000 
     39 N         -30.5980   21.0730  -15.9370 N.am     10 SEL2        0.0000 
     40 N         -30.7410   22.0290  -13.1120 N.am      6 SEP2        0.0000 
     41 N         -29.2055   21.1765  -15.6885 N.am      2 SEC2        0.0000 
     42 N         -27.8130   21.2800  -15.4400 N.am      6 SEP2        0.0000 
     43 N         -31.3265   23.0560  -16.7705 N.am      2 SEC2        0.0000 
     44 N         -32.3660   22.4280  -17.5640 N.am     10 SEL2        0.0000 
     45 N         -30.2870   23.6840  -15.9770 N.am      6 SEP2        0.0000 
     46 CA        -33.5160   21.8820  -13.8425 C.3       4 GLC5        0.0000 
     47 CA        -35.0470   21.1130  -15.1170 C.3      12 GLL5        0.0000 
     48 CA        -31.9850   22.6510  -12.5680 C.3       8 GLP5        0.0000 
     49 CA        -37.4820   22.9440  -12.3315 C.3       4 GLC5        0.0000 
     50 CA        -37.0670   21.2200  -13.6730 C.3      12 GLL5        0.0000 
     51 CA        -37.8970   24.6680  -10.9900 C.3       8 GLP5        0.0000 
     52 CA        -39.0005   21.6500  -12.9290 C.3       4 GLC5        0.0000 
     53 CA        -40.9340   22.0800  -12.1850 C.3       8 GLP5        0.0000 
     54 CA        -36.2075   24.3750  -12.5150 C.3       4 GLC5        0.0000 
     55 CA        -35.4810   23.1330  -13.7620 C.3      12 GLL5        0.0000 
     56 CA        -36.9340   25.6170  -11.2680 C.3       8 GLP5        0.0000 
     57 CA        -33.7330   22.8920  -13.1650 C.3       4 GLC5        0.0000 
     58 N         -40.2050   22.5510  -14.3440 N.am      2 SEC2        0.0000 
     59 N         -39.2940   22.8340  -15.1110 N.am     10 SEL2        0.0000 
     60 N         -41.1160   22.2680  -13.5770 N.am      6 SEP2        0.0000 
     61 O         -36.4630   25.3845  -15.5135 O.2       1 ALC1        0.0000 
     62 O         -37.9000   24.7820  -15.2540 O.2       9 ALL1        0.0000 
     63 O         -35.0260   25.9870  -15.7730 O.2       5 ALP1        0.0000 
     64 CA        -38.3625   25.1225  -12.7250 C.3       4 GLC5        0.0000 
     65 CA        -38.8280   25.5770  -14.4600 C.3      12 GLL5        0.0000 
     66 CA        -41.9505   26.1020  -16.1445 C.3       4 GLC5        0.0000 
     67 CA        -40.2350   25.6170  -15.0610 C.3      12 GLL5        0.0000 
     68 CA        -43.6660   26.5870  -17.2280 C.3       8 GLP5        0.0000 
     69 N         -42.7215   25.0265  -13.1215 N.am      2 SEC2        0.0000 
     70 N         -41.8920   26.0810  -13.3810 N.am     10 SEL2        0.0000 
     71 N         -43.5510   23.9720  -12.8620 N.am      6 SEP2        0.0000 
     72 CA        -44.0030   28.3010  -13.6805 C.3       4 GLC5        0.0000 
     73 CA        -42.0600   28.7940  -14.0260 C.3      12 GLL5        0.0000 
     74 CA        -45.9460   27.8080  -13.3350 C.3       8 GLP5        0.0000 
     75 CA        -42.8630   27.6905  -15.6270 C.3       4 GLC5        0.0000 
     76 CA        -40.1580   28.7875  -11.2540 C.3       4 GLC5        0.0000 
     77 CA        -41.8040   30.2160  -11.6310 C.3      12 GLL5        0.0000 
     78 CA        -38.5120   27.3590  -10.8770 C.3       8 GLP5        0.0000 
     79 CA        -41.7930   31.8795  -10.5955 C.3       4 GLC5        0.0000 
     80 CA        -41.7820   33.5430   -9.5600 C.3       8 GLP5        0.0000 
     81 CA        -36.0195   19.4105   -8.0350 C.3       4 GLC5        0.0000 
     82 CA        -36.5650   20.5250   -9.5640 C.3      12 GLL5        0.0000 
     83 CA        -36.1660   18.3480   -6.5650 C.3       8 GLP5        0.0000 
     84 CA        -33.3240   18.3165   -8.6050 C.3       4 GLC5        0.0000 
     85 CA        -33.4200   18.9170  -10.5030 C.3      12 GLL5        0.0000 
     86 CA        -32.3710   20.5740  -12.9458 C.3       4 GLC5        0.0000 
     87 CA        -32.5990   18.3490  -12.5960 C.3      12 GLL5        0.0000 
     88 CA        -38.9423   27.3375  -15.3323 C.3       4 GLC5        0.0000 
     89 CA        -38.3530   29.0780  -15.9040 C.3       8 GLP5        0.0000 
     90 CA        -40.0185   29.2225  -14.7965 C.3       4 GLC5        0.0000 
@<TRIPOS>BOND
@<TRIPOS>SUBSTRUCTURE
     1 ALC1       17 GROUP        1 X    ALC  0     ROOT ALC X 1
     2 SEC2        1 GROUP        1 X    SEC  0     **** SEC X 2
     3 LYC4       20 GROUP        1 X    LYC  0     **** LYC X 4
     4 GLC5        4 GROUP        1 X    GLC  0     **** GLC X 6
     5 ALP1       19 GROUP        1 Y    ALP  0     ROOT ALP Y 8
     6 SEP2        3 GROUP        1 Y    SEP  0     **** SEP Y 9
     7 LYP4       22 GROUP        1 Y    LYP  0     **** LYP Y 11
     8 GLP5        6 GROUP        1 Y    GLP  0     **** GLP Y 13
     9 ALL1       18 GROUP        1 Z    ALL  0     ROOT ALL Z 15
    10 SEL2        2 GROUP        1 Z    SEL  0     **** SEL Z 16
    11 LYL4       21 GROUP        1 Z    LYL  0     **** LYL Z 18
    12 GLL5        5 GROUP        1 Z    GLL  0     **** GLL Z 20
@<TRIPOS>SET

