#    Name: 2wat_COA_5_ligand
#    Modification time : Tue Mar 25 03:51:28 2014

@<TRIPOS>MOLECULE
2wat_COA_5_ligand
   79    81     1     0     0
SMALL
NO_CHARGES


@<TRIPOS>ATOM
      1 N1A       -36.5350   22.4100   -8.1120 N.ar      1 COA2888     0.0000 
      2 C2A       -35.1600   22.2880   -7.9980 C.ar      1 COA2888     0.0000 
      3 N3A       -34.4870   21.2900   -8.6730 N.ar      1 COA2888     0.0000 
      4 C4A       -35.1810   20.4210   -9.4460 C.ar      1 COA2888     0.0000 
      5 C5A       -36.5650   20.5250   -9.5640 C.ar      1 COA2888     0.0000 
      6 C6A       -37.2560   21.5260   -8.8910 C.ar      1 COA2888     0.0000 
      7 N6A       -38.5680   21.3800   -8.6780 N.pl3     1 COA2888     0.0000 
      8 N7A       -36.9910   19.5400  -10.3820 N.2       1 COA2888     0.0000 
      9 C8A       -35.9200   18.8180  -10.7840 C.2       1 COA2888     0.0000 
     10 N9A       -34.7920   19.3500  -10.2110 N.pl3     1 COA2888     0.0000 
     11 C1B       -33.4200   18.9170  -10.5030 C.3       1 COA2888     0.0000 
     12 C2B       -33.4220   17.4030  -10.6030 C.3       1 COA2888     0.0000 
     13 O2B       -32.3120   16.9550   -9.8760 O.3       1 COA2888     0.0000 
     14 C3B       -33.2250   17.0770  -12.0730 C.3       1 COA2888     0.0000 
     15 O3B       -32.3350   16.0020  -12.2370 O.3       1 COA2888     0.0000 
     16 P3B       -32.7280   14.5090  -11.7710 P.3       1 COA2888     0.0000 
     17 O7A       -32.0850   14.3300  -10.4120 O.co2     1 COA2888     0.0000 
     18 O8A       -32.2120   13.4510  -12.7270 O.co2     1 COA2888     0.0000 
     19 O9A       -34.2250   14.3660  -11.6910 O.co2     1 COA2888     0.0000 
     20 C4B       -32.5990   18.3490  -12.5960 C.3       1 COA2888     0.0000 
     21 O4B       -33.0410   19.4100  -11.7710 O.3       1 COA2888     0.0000 
     22 C5B       -32.9150   18.6450  -14.0510 C.3       1 COA2888     0.0000 
     23 O5B       -31.8740   19.5200  -14.4030 O.3       1 COA2888     0.0000 
     24 P1A       -31.4370   19.8170  -15.9120 P.3       1 COA2888     0.0000 
     25 O1A       -30.6640   18.6370  -16.4200 O.co2     1 COA2888     0.0000 
     26 O2A       -30.5980   21.0730  -15.9370 O.co2     1 COA2888     0.0000 
     27 O3A       -32.7760   19.9710  -16.7990 O.3       1 COA2888     0.0000 
     28 P2A       -33.4140   21.4100  -17.1650 P.3       1 COA2888     0.0000 
     29 O4A       -32.3660   22.4280  -17.5640 O.co2     1 COA2888     0.0000 
     30 O5A       -34.4250   21.2060  -18.2610 O.co2     1 COA2888     0.0000 
     31 O6A       -34.1880   21.9410  -15.8610 O.3       1 COA2888     0.0000 
     32 CBP       -36.1370   22.0260  -14.5710 C.3       1 COA2888     0.0000 
     33 CCP       -35.0470   21.1130  -15.1170 C.3       1 COA2888     0.0000 
     34 CDP       -37.0670   21.2200  -13.6730 C.3       1 COA2888     0.0000 
     35 CEP       -35.4810   23.1330  -13.7620 C.3       1 COA2888     0.0000 
     36 CAP       -36.9040   22.6030  -15.7660 C.3       1 COA2888     0.0000 
     37 OAP       -37.4570   21.5230  -16.4770 O.3       1 COA2888     0.0000 
     38 C9P       -38.0610   23.4620  -15.3540 C.2       1 COA2888     0.0000 
     39 O9P       -39.2940   22.8340  -15.1110 O.2       1 COA2888     0.0000 
     40 N8P       -37.9000   24.7820  -15.2540 N.am      1 COA2888     0.0000 
     41 C7P       -38.8280   25.5770  -14.4600 C.3       1 COA2888     0.0000 
     42 C6P       -40.2350   25.6170  -15.0610 C.3       1 COA2888     0.0000 
     43 C5P       -41.1650   26.5340  -14.2840 C.2       1 COA2888     0.0000 
     44 O5P       -41.8920   26.0810  -13.3810 O.2       1 COA2888     0.0000 
     45 N4P       -41.1710   27.8200  -14.6380 N.am      1 COA2888     0.0000 
     46 C3P       -42.0600   28.7940  -14.0260 C.3       1 COA2888     0.0000 
     47 C2P       -41.3080   29.9400  -13.3520 C.3       1 COA2888     0.0000 
     48 S1P       -41.8040   30.2160  -11.6310 S.3       1 COA2888     0.0000 
     49 H         -34.6356   22.9511   -7.4018 H         1 COA2888     0.0000 
     50 H         -39.0410   22.1699   -8.2878 H         1 COA2888     0.0000 
     51 H         -38.9584   20.4939   -8.9279 H         1 COA2888     0.0000 
     52 H         -35.9346   18.0572  -11.3726 H         1 COA2888     0.0000 
     53 H         -32.7583   19.2076   -9.7368 H         1 COA2888     0.0000 
     54 H         -34.3364   17.0333  -10.2711 H         1 COA2888     0.0000 
     55 H         -34.1648   16.9532  -12.5217 H         1 COA2888     0.0000 
     56 H         -31.5094   18.2432  -12.5006 H         1 COA2888     0.0000 
     57 H         -33.8799   19.1047  -14.0975 H         1 COA2888     0.0000 
     58 H         -32.8870   17.7236  -14.5941 H         1 COA2888     0.0000 
     59 H         -34.5505   20.6467  -14.2736 H         1 COA2888     0.0000 
     60 H         -35.5239   20.3525  -15.7248 H         1 COA2888     0.0000 
     61 H         -36.2336   23.1659  -16.3725 H         1 COA2888     0.0000 
     62 H         -37.1353   25.2925  -15.7182 H         1 COA2888     0.0000 
     63 H         -38.4704   26.6179  -14.3654 H         1 COA2888     0.0000 
     64 H         -38.9092   25.1756  -13.4341 H         1 COA2888     0.0000 
     65 H         -40.6475   24.6025  -15.0674 H         1 COA2888     0.0000 
     66 H         -40.1685   25.9618  -16.0983 H         1 COA2888     0.0000 
     67 H         -40.5317   28.1913  -15.3781 H         1 COA2888     0.0000 
     68 H         -42.7019   28.3149  -13.2636 H         1 COA2888     0.0000 
     69 H         -42.7407   29.2319  -14.7794 H         1 COA2888     0.0000 
     70 H         -41.4970   30.8994  -13.8023 H         1 COA2888     0.0000 
     71 H         -40.2501   29.7627  -13.2606 H         1 COA2888     0.0000 
     72 H         -36.5775   20.8118  -12.9024 H         1 COA2888     0.0000 
     73 H         -37.7965   21.7866  -13.2899 H         1 COA2888     0.0000 
     74 H         -37.5071   20.4721  -14.1700 H         1 COA2888     0.0000 
     75 H         -34.9489   22.7690  -12.9976 H         1 COA2888     0.0000 
     76 H         -34.8567   23.6803  -14.3194 H         1 COA2888     0.0000 
     77 H         -36.1566   23.7612  -13.3760 H         1 COA2888     0.0000 
     78 H         -32.4895   15.9861   -9.7039 H         1 COA2888     0.0000 
     79 H         -38.3865   21.4276  -16.1208 H         1 COA2888     0.0000 
@<TRIPOS>BOND
     1    2    1 ar   
     2    6    1 ar   
     3    3    2 ar   
     4   49    2 1    
     5    4    3 ar   
     6    5    4 ar   
     7   10    4 1    
     8    6    5 ar   
     9    8    5 1    
    10    7    6 1    
    11   50    7 1    
    12   51    7 1    
    13    9    8 2    
    14   10    9 1    
    15   52    9 1    
    16   11   10 1    
    17   12   11 1    
    18   21   11 1    
    19   53   11 1    
    20   13   12 1    
    21   14   12 1    
    22   54   12 1    
    23   78   13 1    
    24   15   14 1    
    25   20   14 1    
    26   55   14 1    
    27   16   15 1    
    28   17   16 ar   
    29   18   16 ar   
    30   19   16 ar   
    31   21   20 1    
    32   22   20 1    
    33   56   20 1    
    34   23   22 1    
    35   57   22 1    
    36   58   22 1    
    37   24   23 1    
    38   25   24 ar   
    39   26   24 ar   
    40   27   24 1    
    41   28   27 1    
    42   29   28 ar   
    43   30   28 ar   
    44   31   28 1    
    45   33   31 1    
    46   33   32 1    
    47   34   32 1    
    48   35   32 1    
    49   36   32 1    
    50   59   33 1    
    51   60   33 1    
    52   72   34 1    
    53   73   34 1    
    54   74   34 1    
    55   75   35 1    
    56   76   35 1    
    57   77   35 1    
    58   37   36 1    
    59   38   36 1    
    60   61   36 1    
    61   79   37 1    
    62   39   38 2    
    63   40   38 am   
    64   41   40 1    
    65   62   40 1    
    66   42   41 1    
    67   63   41 1    
    68   64   41 1    
    69   43   42 1    
    70   65   42 1    
    71   66   42 1    
    72   44   43 2    
    73   45   43 am   
    74   46   45 1    
    75   67   45 1    
    76   47   46 1    
    77   68   46 1    
    78   69   46 1    
    79   48   47 1    
    80   70   47 1    
    81   71   47 1    
@<TRIPOS>SUBSTRUCTURE
     1 COA2888     1 GROUP   
@<TRIPOS>SET

