#    Name: 4E1B_1_CAVITY_N1_ALL.mol2
#    Modification time : Mon Mar 10 15:42:15 2014

@<TRIPOS>MOLECULE
4E1B_1_CAVITY_N1_ALL.mol2
  127     0     7     0     0
SMALL
NO_CHARGES


@<TRIPOS>ATOM
      1 N          -4.5195   22.2557   22.2772 N.2       2 ALA2        0.0000 
      2 N          -3.7410   21.1562   21.6177 N.2       2 ALA2        0.0000 
      3 DU         -5.3342   22.4273   21.0294 H         7 CUB7        0.0000 
      4 N          -4.5557   21.3277   20.3699 N.2       2 ALA2        0.0000 
      5 N          -2.7148   23.0900   23.0168 N.2       2 ALA2        0.0000 
      6 N          -4.3080   24.3610   22.4285 N.2       2 ALA2        0.0000 
      7 N          -3.5295   23.2615   21.7690 N.2       2 ALA2        0.0000 
      8 O          -2.7509   22.1619   21.1096 O.2       2 ALA2        0.0000 
      9 N          -1.9724   21.0624   20.4501 N.2       2 ALA2        0.0000 
     10 DU         -5.1226   24.5326   21.1807 H         7 CUB7        0.0000 
     11 CA         -4.3441   23.4330   20.5213 C.3       6 GLY6        0.0000 
     12 CA         -3.5656   22.3335   19.8618 C.3       6 GLY6        0.0000 
     13 CA         -2.7871   21.2339   19.2023 C.3       6 GLY6        0.0000 
     14 CA         -3.2457   27.2228   25.7348 C.3       6 GLY6        0.0000 
     15 O          -2.4671   26.1233   25.0753 O.2       2 ALA2        0.0000 
     16 O          -0.9101   23.9242   23.7564 O.2       2 ALA2        0.0000 
     17 O          -3.2818   26.2948   23.8276 O.2       2 ALA2        0.0000 
     18 O          -2.5033   25.1953   23.1681 O.2       2 ALA2        0.0000 
     19 O          -1.7247   24.0957   22.5086 O.2       2 ALA2        0.0000 
     20 O          -0.9462   22.9962   21.8492 O.2       2 ALA2        0.0000 
     21 O          -0.1677   21.8966   21.1897 O.2       2 ALA2        0.0000 
     22 DU         -4.0964   26.4664   22.5798 H         7 CUB7        0.0000 
     23 DU         -3.3179   25.3668   21.9203 H         7 CUB7        0.0000 
     24 O          -2.5394   24.2673   21.2609 O.2       2 ALA2        0.0000 
     25 O          -1.7609   23.1677   20.6014 O.2       2 ALA2        0.0000 
     26 O          -0.9823   22.0682   19.9420 O.2       2 ALA2        0.0000 
     27 CA         -0.2038   20.9686   19.2825 C.3       6 GLY6        0.0000 
     28 DU         -4.9111   26.6379   21.3321 H         7 CUB7        0.0000 
     29 O          -4.1326   25.5383   20.6726 O.2       2 ALA2        0.0000 
     30 O          -3.3541   24.4388   20.0131 O.2       2 ALA2        0.0000 
     31 O          -2.5755   23.3393   19.3537 O.2       2 ALA2        0.0000 
     32 CA         -1.7970   22.2397   18.6942 C.3       6 GLY6        0.0000 
     33 DU         -5.7258   26.8094   20.0843 H         7 CUB7        0.0000 
     34 OD1         0.9308   25.6864   26.4032 O.3       3 ASP3        0.0000 
     35 OD1        -0.6624   26.9575   25.8149 O.3       3 ASP3        0.0000 
     36 O           0.1161   25.8580   25.1555 O.2       2 ALA2        0.0000 
     37 CA         -2.2556   28.2286   25.2267 C.3       6 GLY6        0.0000 
     38 CA         -1.4771   27.1290   24.5672 C.3       6 GLY6        0.0000 
     39 OD1        -0.6985   26.0295   23.9077 O.3       3 ASP3        0.0000 
     40 OG         -2.2917   27.3006   23.3194 O.2       1 SER1        0.0000 
     41 OD1        -1.5132   26.2010   22.6600 O.3       3 ASP3        0.0000 
     42 OD1        -0.7347   25.1015   22.0005 O.3       3 ASP3        0.0000 
     43 OD1         0.8224   22.9024   20.6816 O.3       3 ASP3        0.0000 
     44 OG         -3.1064   27.4721   22.0717 O.2       1 SER1        0.0000 
     45 O          -2.3279   26.3726   21.4122 O.2       2 ALA2        0.0000 
     46 O          -1.5493   25.2730   20.7527 O.2       2 ALA2        0.0000 
     47 O          -0.7708   24.1735   20.0933 O.2       2 ALA2        0.0000 
     48 O           0.0077   23.0739   19.4338 O.2       2 ALA2        0.0000 
     49 O           0.7863   21.9744   18.7744 O.2       2 ALA2        0.0000 
     50 O           1.5648   20.8748   18.1149 O.2       2 ALA2        0.0000 
     51 N           2.3433   19.7753   17.4554 N.2       2 ALA2        0.0000 
     52 OD1        -3.9210   27.6437   20.8239 O.3       3 ASP3        0.0000 
     53 O          -3.1425   26.5441   20.1644 O.2       2 ALA2        0.0000 
     54 CA         -0.0284   22.1459   17.5266 C.3       6 GLY6        0.0000 
     55 CA          0.7501   21.0464   16.8671 C.3       6 GLY6        0.0000 
     56 N           1.5286   19.9468   16.2077 N.2       2 ALA2        0.0000 
     57 OD1        -5.5142   28.9148   20.2356 O.3       3 ASP3        0.0000 
     58 CA         -4.7357   27.8152   19.5762 C.3       6 GLY6        0.0000 
     59 OD1        -6.3289   29.0863   18.9879 O.3       3 ASP3        0.0000 
     60 OD1         1.1423   27.7917   26.5546 O.3       3 ASP3        0.0000 
     61 N           1.9208   26.6922   25.8951 N.2       2 ALA2        0.0000 
     62 CA          0.3277   27.9633   25.3068 C.3       6 GLY6        0.0000 
     63 OD1         1.1062   26.8637   24.6473 O.3       3 ASP3        0.0000 
     64 CZ         -0.4870   28.1348   24.0590 C.ar      5 PHE5        0.0000 
     65 OD1         0.2915   27.0353   23.3996 O.3       3 ASP3        0.0000 
     66 CZ         -1.3017   28.3064   22.8113 C.ar      5 PHE5        0.0000 
     67 OD1        -0.5231   27.2068   22.1518 O.3       3 ASP3        0.0000 
     68 OG         -2.1163   28.4779   21.5635 O.2       1 SER1        0.0000 
     69 O          -1.3378   27.3783   20.9041 O.2       2 ALA2        0.0000 
     70 O          -0.5593   26.2788   20.2446 O.2       2 ALA2        0.0000 
     71 O           0.2193   25.1793   19.5851 O.2       2 ALA2        0.0000 
     72 CA          0.9978   24.0797   18.9257 C.3       6 GLY6        0.0000 
     73 O           1.7763   22.9802   18.2662 O.2       2 ALA2        0.0000 
     74 O           2.5548   21.8806   17.6067 O.2       2 ALA2        0.0000 
     75 O           3.3334   20.7811   16.9473 O.2       2 ALA2        0.0000 
     76 N           4.1119   19.6815   16.2878 N.2       2 ALA2        0.0000 
     77 OD1        -2.9310   28.6494   20.3158 O.3       3 ASP3        0.0000 
     78 O          -2.1525   27.5499   19.6563 O.2       2 ALA2        0.0000 
     79 CA          0.9617   23.1517   17.0185 C.3       6 GLY6        0.0000 
     80 DU          1.7402   22.0522   16.3590 H         7 CUB7        0.0000 
     81 N           2.5187   20.9526   15.6995 N.2       2 ALA2        0.0000 
     82 N           3.2972   19.8531   15.0401 N.2       2 ALA2        0.0000 
     83 OD1        -3.7456   28.8210   19.0680 O.3       3 ASP3        0.0000 
     84 OG          0.9255   22.2237   15.1112 O.2       1 SER1        0.0000 
     85 O           1.7040   21.1241   14.4518 O.2       2 ALA2        0.0000 
     86 N           1.3539   29.8970   26.7059 N.2       2 ALA2        0.0000 
     87 N           2.1324   28.7975   26.0464 N.2       2 ALA2        0.0000 
     88 N           2.9109   27.6980   25.3870 N.2       2 ALA2        0.0000 
     89 CZ          0.5392   30.0686   25.4581 C.ar      5 PHE5        0.0000 
     90 CZ          1.3177   28.9690   24.7987 C.ar      5 PHE5        0.0000 
     91 OD1         2.0962   27.8695   24.1392 O.3       3 ASP3        0.0000 
     92 CZ          0.5031   29.1406   23.5509 C.ar      5 PHE5        0.0000 
     93 OD1         1.2816   28.0410   22.8914 O.3       3 ASP3        0.0000 
     94 CZ         -0.3116   29.3121   22.3032 C.ar      5 PHE5        0.0000 
     95 NZ          0.4669   28.2126   21.6437 N.2       4 LYS4        0.0000 
     96 NZ          1.2455   27.1130   20.9842 N.2       4 LYS4        0.0000 
     97 CZ         -1.1263   29.4837   21.0554 C.ar      5 PHE5        0.0000 
     98 NZ         -0.3477   28.3841   20.3959 N.2       4 LYS4        0.0000 
     99 CA          4.3234   21.7868   16.4391 C.3       6 GLY6        0.0000 
    100 OD1        -1.9409   29.6552   19.8076 O.3       3 ASP3        0.0000 
    101 CA         -1.1624   28.5557   19.1482 C.3       6 GLY6        0.0000 
    102 CA          2.7302   23.0579   15.8508 C.3       6 GLY6        0.0000 
    103 OG          3.5088   21.9584   15.1914 O.2       1 SER1        0.0000 
    104 CA          2.3439   30.9028   26.1978 C.3       6 GLY6        0.0000 
    105 N           3.1224   29.8033   25.5383 N.2       2 ALA2        0.0000 
    106 O           3.9010   28.7037   24.8788 O.2       2 ALA2        0.0000 
    107 CZ          2.3078   29.9748   24.2905 C.ar      5 PHE5        0.0000 
    108 O           3.0863   28.8753   23.6311 O.2       2 ALA2        0.0000 
    109 CZ          1.4931   30.1463   23.0428 C.ar      5 PHE5        0.0000 
    110 OG          2.2717   29.0468   22.3833 O.2       1 SER1        0.0000 
    111 CZ          0.6785   30.3179   21.7950 C.ar      5 PHE5        0.0000 
    112 NZ          1.4570   29.2183   21.1355 N.2       4 LYS4        0.0000 
    113 CZ         -0.1362   30.4894   20.5473 C.ar      5 PHE5        0.0000 
    114 N           4.1125   30.8090   25.0302 N.2       2 ALA2        0.0000 
    115 CZ          2.5193   32.0801   24.4419 C.ar      5 PHE5        0.0000 
    116 CZ          3.2978   30.9806   23.7824 C.ar      5 PHE5        0.0000 
    117 N           4.0764   29.8810   23.1229 N.2       2 ALA2        0.0000 
    118 CZ          2.4832   31.1521   22.5346 C.ar      5 PHE5        0.0000 
    119 OG          3.2617   30.0526   21.8752 O.2       1 SER1        0.0000 
    120 CZ          1.6685   31.3237   21.2869 C.ar      5 PHE5        0.0000 
    121 NZ          2.4471   30.2241   20.6274 N.2       4 LYS4        0.0000 
    122 CA          0.8539   31.4952   20.0391 C.3       6 GLY6        0.0000 
    123 CA          4.2879   31.9863   23.2743 C.3       6 GLY6        0.0000 
    124 N           2.6947   33.2574   22.6860 N.2       2 ALA2        0.0000 
    125 CZ          3.4732   32.1579   22.0265 C.ar      5 PHE5        0.0000 
    126 CZ          4.2518   31.0583   21.3670 C.ar      5 PHE5        0.0000 
    127 CZ          2.6586   32.3294   20.7787 C.ar      5 PHE5        0.0000 
@<TRIPOS>BOND
@<TRIPOS>SUBSTRUCTURE
     1 SER1       40 GROUP   
     2 ALA2        1 GROUP   
     3 ASP3       34 GROUP   
     4 LYS4       95 GROUP   
     5 PHE5       64 GROUP   
     6 GLY6       11 GROUP   
     7 CUB7        3 GROUP   
@<TRIPOS>SET

