#    Name: 4e1b_TXA_1_INTS_M
#    Modification time : Tue Mar 25 10:30:07 2014

@<TRIPOS>MOLECULE
4e1b_TXA_1_INTS_M
   78     0    15     0     0
SMALL
NO_CHARGES


@<TRIPOS>ATOM
      1 N          -0.7445   22.3590   14.2865 N.am      2 SEC2        0.0000 
      2 N           0.1580   22.1800   15.2730 N.am     12 SEL2        0.0000 
      3 N          -1.6470   22.5380   13.3000 N.am      7 SEP2        0.0000 
      4 N          -0.9520   23.1815   15.6420 N.am      2 SEC2        0.0000 
      5 N          -2.0620   24.1830   16.0110 N.am      7 SEP2        0.0000 
      6 N           0.8755   23.8970   13.5055 N.am      2 SEC2        0.0000 
      7 N           1.7470   22.8790   13.9800 N.am     12 SEL2        0.0000 
      8 N           0.0040   24.9150   13.0310 N.am      7 SEP2        0.0000 
      9 N           0.0500   22.7085   13.6400 N.am      2 SEC2        0.0000 
     10 CA          5.4170   19.5520   14.5645 C.3       5 GLC5        0.0000 
     11 CA          4.2330   20.1630   16.2640 C.3      15 GLL5        0.0000 
     12 CA          6.6010   18.9410   12.8650 C.3      10 GLP5        0.0000 
     13 CA          5.6840   19.6895   17.1605 C.3       5 GLC5        0.0000 
     14 CA          7.1350   19.2160   18.0570 C.3      10 GLP5        0.0000 
     15 N           2.5090   18.6265   14.7275 N.am      2 SEC2        0.0000 
     16 N           2.5470   19.9470   14.6550 N.am     12 SEL2        0.0000 
     17 N           2.4710   17.3060   14.8000 N.am      7 SEP2        0.0000 
     18 N           1.8085   19.8160   13.3865 N.am      2 SEC2        0.0000 
     19 N           1.0700   19.6850   12.1180 N.am      7 SEP2        0.0000 
     20 N           2.8465   20.1195   12.9915 N.am      2 SEC2        0.0000 
     21 N           3.1460   20.2920   11.3280 N.am      7 SEP2        0.0000 
     22 N           2.1690   21.6495   19.8360 N.am      2 SEC2        0.0000 
     23 N           0.6220   21.7550   19.1560 N.am     12 SEL2        0.0000 
     24 N           3.7160   21.5440   20.5160 N.am      7 SEP2        0.0000 
     25 Zn          1.6995   23.8820   21.8685 Zn        4 ZIC7        0.0000 
     26 Zn          1.2870   22.8820   21.4330 Zn       14 ZIL7        0.0000 
     27 Zn          2.1120   24.8820   22.3040 Zn        9 ZIP7        0.0000 
     28 N           2.5015   22.2130   20.9745 N.am      2 SEC2        0.0000 
     29 N           1.2870   22.8820   21.4330 N.am     12 SEL2        0.0000 
     30 NZ         -1.2405   24.6320   18.9160 N.4       3 LYC4        0.0000 
     31 NZ         -0.6140   23.9240   19.8150 N.4      13 LYL4        0.0000 
     32 NZ         -2.3160   25.2700   16.7450 N.4       8 LYP4        0.0000 
     33 N          -1.2405   24.6320   18.9160 N.am      2 SEC2        0.0000 
     34 N          -0.6140   23.9240   19.8150 N.am     12 SEL2        0.0000 
     35 N          -1.8670   25.3400   18.0170 N.am      7 SEP2        0.0000 
     36 N          -0.9065   21.2580   22.6355 N.am      2 SEC2        0.0000 
     37 N          -0.8210   21.5620   21.1380 N.am     12 SEL2        0.0000 
     38 N          -0.9920   20.9540   24.1330 N.am      7 SEP2        0.0000 
     39 CA         -1.8645   18.8400   21.1990 C.3       5 GLC5        0.0000 
     40 CA         -1.9670   20.9370   20.5570 C.3      15 GLL5        0.0000 
     41 CA         -1.7620   16.7430   21.8410 C.3      10 GLP5        0.0000 
     42 CA         -2.2205   19.9150   18.9610 C.3       5 GLC5        0.0000 
     43 CA         -2.4740   18.8930   17.3650 C.3      10 GLP5        0.0000 
     44 CA         -2.6425   21.0635   18.5805 C.3       5 GLC5        0.0000 
     45 CA         -3.1580   21.8760   20.5220 C.3      15 GLL5        0.0000 
     46 CA         -2.1270   20.2510   16.6390 C.3      10 GLP5        0.0000 
     47 CA         -4.2245   22.6350   18.7080 C.3       5 GLC5        0.0000 
     48 CA         -5.2910   23.3940   16.8940 C.3      10 GLP5        0.0000 
     49 N          -2.1955   21.9790   23.4200 N.am      2 SEC2        0.0000 
     50 N          -3.3990   23.0040   22.7070 N.am     12 SEL2        0.0000 
     51 N          -3.5730   22.6160   23.9330 N.am      2 SEC2        0.0000 
     52 N          -3.7470   22.2280   25.1590 N.am      7 SEP2        0.0000 
     53 CA         -5.3505   22.5020   18.4895 C.3       5 GLC5        0.0000 
     54 CA         -5.4100   21.6100   20.0850 C.3      15 GLL5        0.0000 
     55 CA        -10.3985   18.1630   18.8440 C.3       5 GLC5        0.0000 
     56 CA         -9.2370   18.4790   20.4230 C.3      15 GLL5        0.0000 
     57 CA        -11.5600   17.8470   17.2650 C.3      10 GLP5        0.0000 
     58 CA         -9.8865   18.1590   22.3180 C.3       5 GLC5        0.0000 
     59 CA        -10.5360   17.8390   24.2130 C.3      10 GLP5        0.0000 
     60 O         -10.9450   16.6595   20.4820 O.2       1 ALC1        0.0000 
     61 O          -9.6080   17.1560   20.5140 O.2      11 ALL1        0.0000 
     62 O         -12.2820   16.1630   20.4500 O.2       6 ALP1        0.0000 
     63 CA         -9.7880   20.1070   18.3185 C.3       5 GLC5        0.0000 
     64 CA         -9.7870   20.7640   20.1720 C.3      15 GLL5        0.0000 
     65 CA         -9.7890   19.4500   16.4650 C.3      10 GLP5        0.0000 
     66 CA        -10.3955   21.9165   18.8725 C.3       5 GLC5        0.0000 
     67 CA        -11.0040   23.0690   17.5730 C.3      10 GLP5        0.0000 
     68 CA          4.3905   22.6164   16.2321 C.3       5 GLC5        0.0000 
     69 CA          2.4050   21.9500   16.1060 C.3      15 GLL5        0.0000 
     70 CA          5.2330   24.4260   16.4750 C.3      10 GLP5        0.0000 
     71 CA         -5.4072   20.5293   22.6803 C.3       5 GLC5        0.0000 
     72 CA         -3.8710   21.9430   21.8730 C.3      15 GLL5        0.0000 
     73 CA         -6.2410   18.9430   23.7050 C.3      10 GLP5        0.0000 
     74 CA         -8.7153   19.5155   18.3780 C.3       5 GLC5        0.0000 
     75 CA         -7.8050   18.8640   20.3710 C.3      15 GLL5        0.0000 
     76 CA         -6.8487   18.6115   18.7810 C.3       5 GLC5        0.0000 
     77 CA         -6.0560   17.6420   17.2710 C.3      10 GLP5        0.0000 
     78 CA         -7.1203   19.2139   22.0045 C.3       5 GLC5        0.0000 
@<TRIPOS>BOND
@<TRIPOS>SUBSTRUCTURE
     1 ALC1       60 GROUP        1 X    ALC  0     ROOT ALC X 1
     2 SEC2        1 GROUP        1 X    SEC  0     **** SEC X 2
     3 LYC4       30 GROUP        1 X    LYC  0     **** LYC X 4
     4 ZIC7       25 GROUP        1 X    ZIC  0     **** ZIC X 5
     5 GLC5       10 GROUP        1 X    GLC  0     **** GLC X 6
     6 ALP1       62 GROUP        1 Y    ALP  0     ROOT ALP Y 8
     7 SEP2        3 GROUP        1 Y    SEP  0     **** SEP Y 9
     8 LYP4       32 GROUP        1 Y    LYP  0     **** LYP Y 11
     9 ZIP7       27 GROUP        1 Y    ZIP  0     **** ZIP Y 12
    10 GLP5       12 GROUP        1 Y    GLP  0     **** GLP Y 13
    11 ALL1       61 GROUP        1 Z    ALL  0     ROOT ALL Z 15
    12 SEL2        2 GROUP        1 Z    SEL  0     **** SEL Z 16
    13 LYL4       31 GROUP        1 Z    LYL  0     **** LYL Z 18
    14 ZIL7       26 GROUP        1 Z    ZIL  0     **** ZIL Z 19
    15 GLL5       11 GROUP        1 Z    GLL  0     **** GLL Z 20
@<TRIPOS>SET

