#    Name: 4e1b_TXA_1_ligand
#    Modification time : Tue Mar 25 10:30:08 2014

@<TRIPOS>MOLECULE
4e1b_TXA_1_ligand
   52    54     1     0     0
SMALL
NO_CHARGES


@<TRIPOS>ATOM
      1 OXT         0.1580   22.1800   15.2730 O.co2     1 TXA2002     0.0000 
      2 CX          1.3810   22.3800   15.0560 C.2       1 TXA2002     0.0000 
      3 OX          1.7470   22.8790   13.9800 O.co2     1 TXA2002     0.0000 
      4 CAX         2.4050   21.9500   16.1060 C.3       1 TXA2002     0.0000 
      5 CBX         3.3210   20.9510   15.3230 C.3       1 TXA2002     0.0000 
      6 CGX         4.2330   20.1630   16.2640 C.3       1 TXA2002     0.0000 
      7 OGX         2.5470   19.9470   14.6550 O.3       1 TXA2002     0.0000 
      8 NX          1.7770   21.3960   17.3810 N.am      1 TXA2002     0.0000 
      9 CCA         1.4400   22.2740   18.3310 C.2       1 TXA2002     0.0000 
     10 OP2         0.6220   21.7550   19.1560 O.3       1 TXA2002     0.0000 
     11 OCA         1.7830   23.3390   18.1740 O.2       1 TXA2002     0.0000 
     12 P           0.2500   22.5860   20.2700 P.3       1 TXA2002     0.0000 
     13 OP3         1.2870   22.8820   21.4330 O.co2     1 TXA2002     0.0000 
     14 OP1        -0.6140   23.9240   19.8150 O.co2     1 TXA2002     0.0000 
     15 O5'        -0.8210   21.5620   21.1380 O.3       1 TXA2002     0.0000 
     16 C5'        -1.9670   20.9370   20.5570 C.3       1 TXA2002     0.0000 
     17 C4'        -3.1580   21.8760   20.5220 C.3       1 TXA2002     0.0000 
     18 C3'        -3.8710   21.9430   21.8730 C.3       1 TXA2002     0.0000 
     19 O3'        -3.3990   23.0040   22.7070 O.3       1 TXA2002     0.0000 
     20 C2'        -5.2760   22.2880   21.4380 C.3       1 TXA2002     0.0000 
     21 O2'        -5.3380   23.7140   21.2980 O.3       1 TXA2002     0.0000 
     22 C1'        -5.4100   21.6100   20.0850 C.3       1 TXA2002     0.0000 
     23 O4'        -4.1180   21.2920   19.6330 O.3       1 TXA2002     0.0000 
     24 N9         -6.1480   20.3700   20.2170 N.pl3     1 TXA2002     0.0000 
     25 C8         -5.6440   19.0930   20.3620 C.2       1 TXA2002     0.0000 
     26 N7         -6.6290   18.1990   20.4750 N.2       1 TXA2002     0.0000 
     27 C5         -7.8050   18.8640   20.3710 C.ar      1 TXA2002     0.0000 
     28 C6         -9.2370   18.4790   20.4230 C.ar      1 TXA2002     0.0000 
     29 N6         -9.6080   17.1560   20.5140 N.pl3     1 TXA2002     0.0000 
     30 N1        -10.1310   19.4770   20.3480 N.ar      1 TXA2002     0.0000 
     31 C2         -9.7870   20.7640   20.1720 C.ar      1 TXA2002     0.0000 
     32 N3         -8.4850   21.1880   20.1160 N.ar      1 TXA2002     0.0000 
     33 C4         -7.4780   20.2980   20.2110 C.ar      1 TXA2002     0.0000 
     34 H           3.0187   22.8204   16.3278 H         1 TXA2002     0.0000 
     35 H           3.9290   21.4945   14.6394 H         1 TXA2002     0.0000 
     36 H           1.6594   20.4043   17.4190 H         1 TXA2002     0.0000 
     37 H          -2.2637   20.0353   21.1224 H         1 TXA2002     0.0000 
     38 H          -1.7647   20.6085   19.5217 H         1 TXA2002     0.0000 
     39 H          -2.8746   22.8328   20.2168 H         1 TXA2002     0.0000 
     40 H          -3.8778   21.0003   22.3116 H         1 TXA2002     0.0000 
     41 H          -5.9575   21.8911   22.1098 H         1 TXA2002     0.0000 
     42 H          -5.9070   22.2783   19.4184 H         1 TXA2002     0.0000 
     43 H          -4.6848   18.8948   20.3769 H         1 TXA2002     0.0000 
     44 H          -8.9489   16.5431   20.9500 H         1 TXA2002     0.0000 
     45 H         -10.5042   16.9234   20.1362 H         1 TXA2002     0.0000 
     46 H         -10.5497   21.4935   20.0706 H         1 TXA2002     0.0000 
     47 H           4.8183   19.5239   15.7650 H         1 TXA2002     0.0000 
     48 H           4.8359   20.7651   16.7874 H         1 TXA2002     0.0000 
     49 H           3.7093   19.6258   16.9252 H         1 TXA2002     0.0000 
     50 H           1.6398   19.9994   15.0725 H         1 TXA2002     0.0000 
     51 H          -3.9443   23.8004   22.4459 H         1 TXA2002     0.0000 
     52 H          -4.9525   23.9023   20.3947 H         1 TXA2002     0.0000 
@<TRIPOS>BOND
     1    2    1 ar   
     2    3    2 ar   
     3    4    2 1    
     4    5    4 1    
     5    8    4 1    
     6   34    4 1    
     7    6    5 1    
     8    7    5 1    
     9   35    5 1    
    10   47    6 1    
    11   48    6 1    
    12   49    6 1    
    13   50    7 1    
    14    9    8 am   
    15   36    8 1    
    16   10    9 1    
    17   11    9 2    
    18   12   10 1    
    19   13   12 ar   
    20   14   12 ar   
    21   15   12 1    
    22   16   15 1    
    23   17   16 1    
    24   37   16 1    
    25   38   16 1    
    26   18   17 1    
    27   23   17 1    
    28   39   17 1    
    29   19   18 1    
    30   20   18 1    
    31   40   18 1    
    32   51   19 1    
    33   21   20 1    
    34   22   20 1    
    35   41   20 1    
    36   52   21 1    
    37   23   22 1    
    38   24   22 1    
    39   42   22 1    
    40   25   24 1    
    41   33   24 1    
    42   26   25 2    
    43   43   25 1    
    44   27   26 1    
    45   28   27 ar   
    46   33   27 ar   
    47   29   28 1    
    48   30   28 ar   
    49   44   29 1    
    50   45   29 1    
    51   31   30 ar   
    52   32   31 ar   
    53   46   31 1    
    54   33   32 ar   
@<TRIPOS>SUBSTRUCTURE
     1 TXA2002     1 GROUP   
@<TRIPOS>SET

