#    Name: 4j5r_A1R_1_INTS_M
#    Modification time : Tue Mar 25 05:30:53 2014

@<TRIPOS>MOLECULE
4j5r_A1R_1_INTS_M
   59     0     6     0     0
SMALL
NO_CHARGES


@<TRIPOS>ATOM
      1 CA          2.6605   64.0170   12.8565 C.3       2 GLC5        0.0000 
      2 CA          1.3720   62.8460   11.4880 C.3       6 GLL5        0.0000 
      3 CA          3.9490   65.1880   14.2250 C.3       4 GLP5        0.0000 
      4 CA          0.6205   61.6125   10.6190 C.3       2 GLC5        0.0000 
      5 CA         -0.1310   60.3790    9.7500 C.3       4 GLP5        0.0000 
      6 CA          2.4560   65.7990   11.4640 C.3       2 GLC5        0.0000 
      7 CA          1.8940   64.4250    9.9780 C.3       6 GLL5        0.0000 
      8 CA          3.0180   67.1730   12.9500 C.3       4 GLP5        0.0000 
      9 CA         -0.9460   64.8080   12.6945 C.3       2 GLC5        0.0000 
     10 CA         -0.2020   64.4920   10.8950 C.3       6 GLL5        0.0000 
     11 CA         -1.6900   65.1240   14.4940 C.3       4 GLP5        0.0000 
     12 CA         -0.1665   62.4355   10.3225 C.3       2 GLC5        0.0000 
     13 CA          7.9635   64.5605    7.7185 C.3       2 GLC5        0.0000 
     14 CA          5.8280   65.2040    7.4340 C.3       6 GLL5        0.0000 
     15 CA         10.0990   63.9170    8.0030 C.3       4 GLP5        0.0000 
     16 CA          6.7025   65.3455   10.5705 C.3       2 GLC5        0.0000 
     17 CA          6.1040   65.8590    8.7090 C.3       6 GLL5        0.0000 
     18 CA          7.3010   64.8320   12.4320 C.3       4 GLP5        0.0000 
     19 CA          8.2315   65.2275    9.0275 C.3       2 GLC5        0.0000 
     20 CA         10.3590   64.5960    9.3460 C.3       4 GLP5        0.0000 
     21 CA          6.2240   67.9735    6.7990 C.3       2 GLC5        0.0000 
     22 CA          6.4040   67.3470    8.7590 C.3       6 GLL5        0.0000 
     23 CA          6.0440   68.6000    4.8390 C.3       4 GLP5        0.0000 
     24 N           2.7430   68.7030   10.5965 N.am      1 SEC2        0.0000 
     25 N           3.8650   68.8740    9.7350 N.am      5 SEL2        0.0000 
     26 N           1.6210   68.5320   11.4580 N.am      3 SEP2        0.0000 
     27 N           4.4580   70.3035    6.1055 N.am      1 SEC2        0.0000 
     28 N           4.0270   69.9130    7.3990 N.am      5 SEL2        0.0000 
     29 N           4.8890   70.6940    4.8120 N.am      3 SEP2        0.0000 
     30 N           7.3145   69.7105    6.1740 N.am      1 SEC2        0.0000 
     31 N           7.1800   70.7890    7.0850 N.am      5 SEL2        0.0000 
     32 N           7.4490   68.6320    5.2630 N.am      3 SEP2        0.0000 
     33 N           6.9690   71.7780    5.9860 N.am      1 SEC2        0.0000 
     34 N           6.7580   72.7670    4.8870 N.am      3 SEP2        0.0000 
     35 N           9.2590   70.6275    9.1665 N.am      1 SEC2        0.0000 
     36 N           8.0240   71.2690    9.4730 N.am      5 SEL2        0.0000 
     37 N          10.4940   69.9860    8.8600 N.am      3 SEP2        0.0000 
     38 CA          7.7590   73.3260   10.8215 C.3       2 GLC5        0.0000 
     39 CA          5.9620   73.3600    9.5890 C.3       6 GLL5        0.0000 
     40 CA          9.5560   73.2920   12.0540 C.3       4 GLP5        0.0000 
     41 CA          7.3095   73.5600    7.8555 C.3       2 GLC5        0.0000 
     42 CA          8.6570   73.7600    6.1220 C.3       4 GLP5        0.0000 
     43 N           5.1395   77.2460    8.8180 N.am      1 SEC2        0.0000 
     44 N           4.2740   76.7060    9.9460 N.am      5 SEL2        0.0000 
     45 N           6.0050   77.7860    7.6900 N.am      3 SEP2        0.0000 
     46 CA          5.7400   77.0760    9.5515 C.3       2 GLC5        0.0000 
     47 CA          4.7960   75.4640   10.4290 C.3       6 GLL5        0.0000 
     48 CA          6.6840   78.6880    8.6740 C.3       4 GLP5        0.0000 
     49 CA          0.9877   66.3765   11.6327 C.3       2 GLC5        0.0000 
     50 CA          0.6890   65.0500   10.0420 C.3       6 GLL5        0.0000 
     51 CA          1.7320   67.9820   12.7970 C.3       4 GLP5        0.0000 
     52 CA          5.5785   66.9125    6.0890 C.3       2 GLC5        0.0000 
     53 CA          4.3980   65.2460    7.2440 C.3       6 GLL5        0.0000 
     54 CA          2.8085   73.6222   12.4078 C.3       2 GLC5        0.0000 
     55 CA          2.8050   74.2300   10.4580 C.3       6 GLL5        0.0000 
     56 CA          2.2890   72.7220   13.8940 C.3       4 GLP5        0.0000 
     57 CA          5.5713   75.7987   12.3000 C.3       2 GLC5        0.0000 
     58 CA          3.8510   74.8150   11.3850 C.3       6 GLL5        0.0000 
     59 CA          6.8190   76.4580   13.6930 C.3       4 GLP5        0.0000 
@<TRIPOS>BOND
@<TRIPOS>SUBSTRUCTURE
     1 SEC2       24 GROUP        1 X    SEC  0     ROOT SEC X 2
     2 GLC5        1 GROUP        1 X    GLC  0     **** GLC X 6
     3 SEP2       26 GROUP        1 Y    SEP  0     ROOT SEP Y 9
     4 GLP5        3 GROUP        1 Y    GLP  0     **** GLP Y 13
     5 SEL2       25 GROUP        1 Z    SEL  0     ROOT SEL Z 16
     6 GLL5        2 GROUP        1 Z    GLL  0     **** GLL Z 20
@<TRIPOS>SET

