#    Name: 4j5r_A1R_1_ligand
#    Modification time : Tue Mar 25 05:30:53 2014

@<TRIPOS>MOLECULE
4j5r_A1R_1_ligand
   56    59     1     0     0
SMALL
NO_CHARGES


@<TRIPOS>ATOM
      1 N1          0.1070   63.3860   11.5710 N.ar      1 A1R201      0.0000 
      2 C2          1.3720   62.8460   11.4880 C.ar      1 A1R201      0.0000 
      3 N3          2.3350   63.3730   10.6610 N.ar      1 A1R201      0.0000 
      4 C4          1.8940   64.4250    9.9780 C.ar      1 A1R201      0.0000 
      5 C5          0.6890   65.0500   10.0420 C.ar      1 A1R201      0.0000 
      6 C6         -0.2020   64.4920   10.8950 C.ar      1 A1R201      0.0000 
      7 N6         -1.5190   64.9580   11.0540 N.pl3     1 A1R201      0.0000 
      8 N7          0.6690   66.1060    9.2070 N.2       1 A1R201      0.0000 
      9 C8          1.8670   66.1920    8.6780 C.2       1 A1R201      0.0000 
     10 N9          2.6250   65.1510    9.0760 N.pl3     1 A1R201      0.0000 
     11 C1'         4.0110   64.8860    8.6780 C.3       1 A1R201      0.0000 
     12 C2'         4.3980   65.2460    7.2440 C.3       1 A1R201      0.0000 
     13 O2'         3.9140   64.3350    6.3150 O.3       1 A1R201      0.0000 
     14 C3'         5.8280   65.2040    7.4340 C.3       1 A1R201      0.0000 
     15 O3'         6.4770   64.0790    7.1240 O.3       1 A1R201      0.0000 
     16 O4'         4.9400   65.5700    9.4870 O.3       1 A1R201      0.0000 
     17 C4'         6.1040   65.8590    8.7090 C.3       1 A1R201      0.0000 
     18 C5'         6.4040   67.3470    8.7590 C.3       1 A1R201      0.0000 
     19 O5'         5.4460   68.0530    7.9790 O.3       1 A1R201      0.0000 
     20 PA          4.6630   69.3150    8.5810 P.3       1 A1R201      0.0000 
     21 O1A         3.8650   68.8740    9.7350 O.co2     1 A1R201      0.0000 
     22 O2A         4.0270   69.9130    7.3990 O.co2     1 A1R201      0.0000 
     23 O3A         5.8600   70.1890    9.1780 O.3       1 A1R201      0.0000 
     24 PB          6.9190   71.2030    8.4770 P.3       1 A1R201      0.0000 
     25 O1B         7.1800   70.7890    7.0850 O.co2     1 A1R201      0.0000 
     26 O2B         8.0240   71.2690    9.4730 O.co2     1 A1R201      0.0000 
     27 O5N         6.1130   72.5530    8.4270 O.3       1 A1R201      0.0000 
     28 C5N         5.9620   73.3600    9.5890 C.3       1 A1R201      0.0000 
     29 N4N         3.5390   73.8270    9.2520 N.4       1 A1R201      0.0000 
     30 C1N         2.8050   74.2300   10.4580 C.3       1 A1R201      0.0000 
     31 O2N         3.3040   75.6440   12.3850 O.3       1 A1R201      0.0000 
     32 C2N         3.8510   74.8150   11.3850 C.3       1 A1R201      0.0000 
     33 O3N         4.2740   76.7060    9.9460 O.3       1 A1R201      0.0000 
     34 C3N         4.7960   75.4640   10.4290 C.3       1 A1R201      0.0000 
     35 C4N         4.9340   74.4210    9.3410 C.3       1 A1R201      0.0000 
     36 H           1.6050   62.0097   12.0727 H         1 A1R201      0.0000 
     37 H          -1.7430   65.8126   10.5854 H         1 A1R201      0.0000 
     38 H          -2.1194   64.3951   11.6221 H         1 A1R201      0.0000 
     39 H           2.1846   66.9035    8.0771 H         1 A1R201      0.0000 
     40 H           4.2170   63.7925    8.7751 H         1 A1R201      0.0000 
     41 H           4.0951   66.2581    7.1024 H         1 A1R201      0.0000 
     42 H           6.1953   66.0471    6.6552 H         1 A1R201      0.0000 
     43 H           6.9492   65.3214    9.1980 H         1 A1R201      0.0000 
     44 H           7.4242   67.4982    8.3852 H         1 A1R201      0.0000 
     45 H           6.3834   67.6601    9.8102 H         1 A1R201      0.0000 
     46 H           6.9078   73.8506    9.8631 H         1 A1R201      0.0000 
     47 H           5.6412   72.7617   10.4547 H         1 A1R201      0.0000 
     48 H           2.3490   73.3813   10.9334 H         1 A1R201      0.0000 
     49 H           2.0749   74.9847   10.2308 H         1 A1R201      0.0000 
     50 H           4.3812   73.9437   11.8083 H         1 A1R201      0.0000 
     51 H           5.7446   75.5643   10.9126 H         1 A1R201      0.0000 
     52 H           5.1197   74.9308    8.4056 H         1 A1R201      0.0000 
     53 H           4.6887   63.7361    6.1121 H         1 A1R201      0.0000 
     54 H           7.2220   64.3675    6.5225 H         1 A1R201      0.0000 
     55 H           3.3707   76.5715   12.0172 H         1 A1R201      0.0000 
     56 H           3.5494   76.4506    9.3059 H         1 A1R201      0.0000 
@<TRIPOS>BOND
     1    2    1 ar   
     2    6    1 ar   
     3    3    2 ar   
     4   36    2 1    
     5    4    3 ar   
     6    5    4 ar   
     7   10    4 1    
     8    6    5 ar   
     9    8    5 1    
    10    7    6 1    
    11   37    7 1    
    12   38    7 1    
    13    9    8 2    
    14   10    9 1    
    15   39    9 1    
    16   11   10 1    
    17   12   11 1    
    18   16   11 1    
    19   40   11 1    
    20   13   12 1    
    21   14   12 1    
    22   41   12 1    
    23   53   13 1    
    24   15   14 1    
    25   17   14 1    
    26   42   14 1    
    27   54   15 1    
    28   17   16 1    
    29   18   17 1    
    30   43   17 1    
    31   19   18 1    
    32   44   18 1    
    33   45   18 1    
    34   20   19 1    
    35   21   20 ar   
    36   22   20 ar   
    37   23   20 1    
    38   24   23 1    
    39   25   24 ar   
    40   26   24 ar   
    41   27   24 1    
    42   28   27 1    
    43   35   28 1    
    44   46   28 1    
    45   47   28 1    
    46   30   29 1    
    47   35   29 1    
    48   32   30 1    
    49   48   30 1    
    50   49   30 1    
    51   32   31 1    
    52   55   31 1    
    53   34   32 1    
    54   50   32 1    
    55   34   33 1    
    56   56   33 1    
    57   35   34 1    
    58   51   34 1    
    59   52   35 1    
@<TRIPOS>SUBSTRUCTURE
     1 A1R201      1 GROUP   
@<TRIPOS>SET

