#    Name: 1jdz_FMB_2_INTS_M
#    Modification time : Tue Mar 25 08:47:53 2014

@<TRIPOS>MOLECULE
1jdz_FMB_2_INTS_M
   27     0     9     0     0
SMALL
NO_CHARGES


@<TRIPOS>ATOM
      1 O          65.7950  108.6565   38.5520 O.2       1 ALC1        0.0000 
      2 O          65.7120  109.4290   37.3710 O.2       7 ALL1        0.0000 
      3 O          65.8780  107.8840   39.7330 O.2       4 ALP1        0.0000 
      4 N          68.1300  107.6155   34.7790 N.am      2 SEC2        0.0000 
      5 N          67.1200  108.5940   35.5960 N.am      8 SEL2        0.0000 
      6 N          69.1400  106.6370   33.9620 N.am      5 SEP2        0.0000 
      7 CA         65.5965  108.0520   34.8300 C.3       3 GLC5        0.0000 
      8 CA         66.7070  109.7200   34.9390 C.3       9 GLL5        0.0000 
      9 CA         64.4860  106.3840   34.7210 C.3       6 GLP5        0.0000 
     10 CA         66.0155  109.7700   30.3960 C.3       3 GLC5        0.0000 
     11 CA         67.8100  110.5700   31.2510 C.3       9 GLL5        0.0000 
     12 CA         64.2210  108.9700   29.5410 C.3       6 GLP5        0.0000 
     13 CA         66.8590  112.2575   31.0535 C.3       3 GLC5        0.0000 
     14 CA         65.9080  113.9450   30.8560 C.3       6 GLP5        0.0000 
     15 CA         70.0605  113.1020   30.3755 C.3       3 GLC5        0.0000 
     16 CA         69.0950  111.4220   31.2000 C.3       9 GLL5        0.0000 
     17 CA         71.0260  114.7820   29.5510 C.3       6 GLP5        0.0000 
     18 CA         68.2490  113.1145   31.3380 C.3       3 GLC5        0.0000 
     19 CA         67.4030  114.8070   31.4760 C.3       6 GLP5        0.0000 
     20 CA         71.9325  112.8335   32.1855 C.3       3 GLC5        0.0000 
     21 CA         70.3580  111.9170   33.3700 C.3       9 GLL5        0.0000 
     22 CA         73.5070  113.7500   31.0010 C.3       6 GLP5        0.0000 
     23 CA         72.0935  112.7255   34.0215 C.3       3 GLC5        0.0000 
     24 CA         73.8290  113.5340   34.6730 C.3       6 GLP5        0.0000 
     25 N          71.5965  112.4480   34.8050 N.am      2 SEC2        0.0000 
     26 N          70.7070  111.3400   34.6450 N.am      8 SEL2        0.0000 
     27 N          72.4860  113.5560   34.9650 N.am      5 SEP2        0.0000 
@<TRIPOS>BOND
@<TRIPOS>SUBSTRUCTURE
     1 ALC1        1 GROUP        1 X    ALC  0     ROOT ALC X 1
     2 SEC2        4 GROUP        1 X    SEC  0     **** SEC X 2
     3 GLC5        7 GROUP        1 X    GLC  0     **** GLC X 6
     4 ALP1        3 GROUP        1 Y    ALP  0     ROOT ALP Y 8
     5 SEP2        6 GROUP        1 Y    SEP  0     **** SEP Y 9
     6 GLP5        9 GROUP        1 Y    GLP  0     **** GLP Y 13
     7 ALL1        2 GROUP        1 Z    ALL  0     ROOT ALL Z 15
     8 SEL2        5 GROUP        1 Z    SEL  0     **** SEL Z 16
     9 GLL5        8 GROUP        1 Z    GLL  0     **** GLL Z 20
@<TRIPOS>SET

