#    Name: 1jdz_FMB_2_ligand
#    Modification time : Tue Mar 25 08:47:53 2014

@<TRIPOS>MOLECULE
1jdz_FMB_2_ligand
   31    33     1     0     0
SMALL
NO_CHARGES


@<TRIPOS>ATOM
      1 N1         65.7120  109.4290   37.3710 N.am      1 FMB275      0.0000 
      2 C2         66.5870  108.4860   36.8320 C.2       1 FMB275      0.0000 
      3 N3         67.1200  108.5940   35.5960 N.2       1 FMB275      0.0000 
      4 C4         66.7070  109.7200   34.9390 C.2       1 FMB275      0.0000 
      5 C5         65.8350  110.7200   35.3880 C.2       1 FMB275      0.0000 
      6 C6         65.2770  110.6000   36.6950 C.2       1 FMB275      0.0000 
      7 O6         64.5040  111.3710   37.2580 O.2       1 FMB275      0.0000 
      8 N7         65.6640  111.7030   34.4220 N.pl3     1 FMB275      0.0000 
      9 N8         66.4260  111.2970   33.4160 N.2       1 FMB275      0.0000 
     10 C9         67.0900  110.0930   33.6690 C.2       1 FMB275      0.0000 
     11 C1'        67.9490  109.7040   32.4990 C.3       1 FMB275      0.0000 
     12 C2'        67.8100  110.5700   31.2510 C.3       1 FMB275      0.0000 
     13 O2'        67.6260  109.7190   30.1520 O.3       1 FMB275      0.0000 
     14 C3'        69.0950  111.4220   31.2000 C.3       1 FMB275      0.0000 
     15 O3'        69.7580  111.4000   29.9110 O.3       1 FMB275      0.0000 
     16 C4'        70.0130  110.8770   32.2890 C.3       1 FMB275      0.0000 
     17 O4'        69.3160  109.7420   32.9030 O.3       1 FMB275      0.0000 
     18 C5'        70.3580  111.9170   33.3700 C.3       1 FMB275      0.0000 
     19 O5'        70.7070  111.3400   34.6450 O.3       1 FMB275      0.0000 
     20 H          65.3426  109.2711   38.3460 H         1 FMB275      0.0000 
     21 H          66.8333  107.6536   37.4344 H         1 FMB275      0.0000 
     22 H          65.1253  112.4627   34.5016 H         1 FMB275      0.0000 
     23 H          67.6981  108.6711   32.2127 H         1 FMB275      0.0000 
     24 H          66.9804  111.2321   31.4235 H         1 FMB275      0.0000 
     25 H          68.8228  112.4329   31.4903 H         1 FMB275      0.0000 
     26 H          70.9249  110.5329   31.8306 H         1 FMB275      0.0000 
     27 H          69.4845  112.5967   33.4644 H         1 FMB275      0.0000 
     28 H          71.1864  112.5420   32.9738 H         1 FMB275      0.0000 
     29 H          68.2945  110.0241   29.4738 H         1 FMB275      0.0000 
     30 H          69.3622  112.1653   29.4034 H         1 FMB275      0.0000 
     31 H          69.8665  111.3790   35.1854 H         1 FMB275      0.0000 
@<TRIPOS>BOND
     1    2    1 1    
     2    6    1 am   
     3   20    1 1    
     4    3    2 2    
     5   21    2 1    
     6    4    3 1    
     7    5    4 2    
     8   10    4 1    
     9    6    5 1    
    10    8    5 1    
    11    7    6 2    
    12    9    8 1    
    13   22    8 1    
    14   10    9 2    
    15   11   10 1    
    16   12   11 1    
    17   17   11 1    
    18   23   11 1    
    19   13   12 1    
    20   14   12 1    
    21   24   12 1    
    22   29   13 1    
    23   15   14 1    
    24   16   14 1    
    25   25   14 1    
    26   30   15 1    
    27   17   16 1    
    28   18   16 1    
    29   26   16 1    
    30   19   18 1    
    31   27   18 1    
    32   28   18 1    
    33   31   19 1    
@<TRIPOS>SUBSTRUCTURE
     1 FMB275      1 GROUP   
@<TRIPOS>SET

