#    Name: 2FJP_2_CAVITY_N1_6.mol2
#    Modification time : Mon Mar 10 12:48:40 2014

@<TRIPOS>MOLECULE
2FJP_2_CAVITY_N1_6.mol2
   84     0     6     0     0
SMALL
NO_CHARGES


@<TRIPOS>ATOM
      1 OG        -10.6496   63.5412   31.7111 O.2       1 SER1        0.0000 
      2 OG        -10.7119   64.8951   30.0792 O.2       1 SER1        0.0000 
      3 OG        -11.5169   64.7043   31.3304 O.2       1 SER1        0.0000 
      4 CZ        -12.3220   64.5135   32.5816 C.ar      4 PHE5        0.0000 
      5 O         -12.3843   65.8674   30.9497 O.2       2 ALA2        0.0000 
      6 NZ         -5.3990   62.0984   33.0711 N.2       3 LYS4        0.0000 
      7 O          -6.2040   61.9076   34.3223 O.2       2 ALA2        0.0000 
      8 DU         -7.0091   61.7167   35.5735 H         6 CUB7        0.0000 
      9 CA         -0.9535   60.4647   35.6824 C.3       5 GLY6        0.0000 
     10 OG         -1.7585   60.2739   36.9335 O.2       1 SER1        0.0000 
     11 OG         -3.3686   59.8923   39.4359 O.2       1 SER1        0.0000 
     12 O          -1.8208   61.6278   35.3017 O.2       2 ALA2        0.0000 
     13 OG         -2.6259   61.4370   36.5528 O.2       1 SER1        0.0000 
     14 OG         -3.4309   61.2462   37.8040 O.2       1 SER1        0.0000 
     15 OG         -4.2360   61.0554   39.0552 O.2       1 SER1        0.0000 
     16 NZ         -2.6882   62.7909   34.9210 N.2       3 LYS4        0.0000 
     17 O          -3.4932   62.6001   36.1722 O.2       2 ALA2        0.0000 
     18 DU         -4.2983   62.4093   37.4233 H         6 CUB7        0.0000 
     19 OG         -5.1033   62.2184   38.6745 O.2       1 SER1        0.0000 
     20 NZ         -3.5555   63.9540   34.5403 N.2       3 LYS4        0.0000 
     21 CZ         -4.3606   63.7632   35.7915 C.ar      4 PHE5        0.0000 
     22 CZ         -5.1656   63.5724   37.0426 C.ar      4 PHE5        0.0000 
     23 CZ         -5.2279   64.9263   35.4108 C.ar      4 PHE5        0.0000 
     24 CZ         -6.0330   64.7354   36.6620 C.ar      4 PHE5        0.0000 
     25 OG         -6.8380   64.5446   37.9131 O.2       1 SER1        0.0000 
     26 CZ         -6.0953   66.0893   35.0301 C.ar      4 PHE5        0.0000 
     27 CZ         -6.9003   65.8985   36.2813 C.ar      4 PHE5        0.0000 
     28 OG         -1.6497   64.4557   37.6413 O.2       1 SER1        0.0000 
     29 OG         -2.4548   64.2649   38.8925 O.2       1 SER1        0.0000 
     30 OG         -2.6180   57.9922   37.8309 O.2       1 SER1        0.0000 
     31 O          -2.6803   59.3461   36.1990 O.2       2 ALA2        0.0000 
     32 OG         -3.4853   59.1553   37.4502 O.2       1 SER1        0.0000 
     33 OG         -4.2903   58.9645   38.7014 O.2       1 SER1        0.0000 
     34 O          -3.5476   60.5092   35.8183 O.2       2 ALA2        0.0000 
     35 DU         -4.3526   60.3184   37.0695 H         6 CUB7        0.0000 
     36 O          -4.4149   61.6723   35.4376 O.2       2 ALA2        0.0000 
     37 DU         -5.2200   61.4815   36.6888 H         6 CUB7        0.0000 
     38 OG         -6.0250   61.2906   37.9400 O.2       1 SER1        0.0000 
     39 NZ         -4.4772   63.0262   33.8057 N.2       3 LYS4        0.0000 
     40 DU         -5.2823   62.8354   35.0569 H         6 CUB7        0.0000 
     41 OG         -6.0873   62.6446   36.3081 O.2       1 SER1        0.0000 
     42 NZ         -5.3446   64.1893   33.4250 N.2       3 LYS4        0.0000 
     43 NZ         -6.1496   63.9985   34.6762 N.2       3 LYS4        0.0000 
     44 CZ         -6.9547   63.8076   35.9274 C.ar      4 PHE5        0.0000 
     45 OG         -7.7597   63.6168   37.1786 O.2       1 SER1        0.0000 
     46 NZ         -6.2119   65.3524   33.0443 N.2       3 LYS4        0.0000 
     47 NZ         -7.0170   65.1615   34.2955 N.2       3 LYS4        0.0000 
     48 CZ         -7.8220   64.9707   35.5467 C.ar      4 PHE5        0.0000 
     49 NZ         -7.0793   66.5154   32.6636 N.2       3 LYS4        0.0000 
     50 CZ         -7.8843   66.3246   33.9148 C.ar      4 PHE5        0.0000 
     51 OG         -2.5715   63.5279   36.9067 O.2       1 SER1        0.0000 
     52 OG         -3.3765   63.3371   38.1579 O.2       1 SER1        0.0000 
     53 CZ         -4.1816   63.1463   39.4091 C.ar      4 PHE5        0.0000 
     54 CZ         -3.4388   64.6910   36.5260 C.ar      4 PHE5        0.0000 
     55 CZ         -4.2439   64.5002   37.7772 C.ar      4 PHE5        0.0000 
     56 OG         -0.8991   62.5556   36.0362 O.2       1 SER1        0.0000 
     57 OG         -1.7041   62.3648   37.2874 O.2       1 SER1        0.0000 
     58 OG         -3.3142   61.9832   39.7898 O.2       1 SER1        0.0000 
     59 DU         -7.1258   60.9798   33.5878 H         6 CUB7        0.0000 
     60 DU         -7.9931   62.1429   33.2071 H         6 CUB7        0.0000 
     61 OG         -8.0554   63.4968   31.5752 O.2       1 SER1        0.0000 
     62 OG         -8.8605   63.3059   32.8264 O.2       1 SER1        0.0000 
     63 DU         -9.6655   63.1151   34.0776 H         6 CUB7        0.0000 
     64 OG         -8.9228   64.6598   31.1945 O.2       1 SER1        0.0000 
     65 OG         -9.7278   64.4690   32.4457 O.2       1 SER1        0.0000 
     66 CZ        -10.5329   64.2782   33.6969 C.ar      4 PHE5        0.0000 
     67 OG         -9.7901   65.8229   30.8138 O.2       1 SER1        0.0000 
     68 CA        -10.5952   65.6321   32.0650 C.3       5 GLY6        0.0000 
     69 CZ        -11.4002   65.4413   33.3162 C.ar      4 PHE5        0.0000 
     70 O         -10.6575   66.9860   30.4331 O.2       2 ALA2        0.0000 
     71 CA        -11.4625   66.7952   31.6843 C.3       5 GLY6        0.0000 
     72 N          -6.2663   63.2615   32.6904 N.2       2 ALA2        0.0000 
     73 DU         -7.0714   63.0707   33.9416 H         6 CUB7        0.0000 
     74 DU         -7.8764   62.8798   35.1928 H         6 CUB7        0.0000 
     75 CZ         -8.6815   62.6890   36.4440 C.ar      4 PHE5        0.0000 
     76 N          -7.1337   64.4246   32.3097 N.2       2 ALA2        0.0000 
     77 DU         -7.9387   64.2337   33.5609 H         6 CUB7        0.0000 
     78 CZ         -8.7438   64.0429   34.8121 C.ar      4 PHE5        0.0000 
     79 N          -7.1960   65.7785   30.6778 N.2       2 ALA2        0.0000 
     80 N          -8.0010   65.5876   31.9290 N.2       2 ALA2        0.0000 
     81 CZ         -8.8061   65.3968   33.1802 C.ar      4 PHE5        0.0000 
     82 CZ         -9.6111   65.2060   34.4314 C.ar      4 PHE5        0.0000 
     83 N          -8.8684   66.7507   31.5483 N.2       2 ALA2        0.0000 
     84 CA         -9.6734   66.5599   32.7995 C.3       5 GLY6        0.0000 
@<TRIPOS>BOND
@<TRIPOS>SUBSTRUCTURE
     1 SER1        1 GROUP   
     2 ALA2        5 GROUP   
     3 LYS4        6 GROUP   
     4 PHE5        4 GROUP   
     5 GLY6        9 GROUP   
     6 CUB7        8 GROUP   
@<TRIPOS>SET

