#    Name: 2fjp_S14_2_INTS_M
#    Modification time : Tue Mar 25 12:49:32 2014

@<TRIPOS>MOLECULE
2fjp_S14_2_INTS_M
   64     0    12     0     0
SMALL
NO_CHARGES


@<TRIPOS>ATOM
      1 CA         -8.7370   67.5185   28.9510 C.3       4 GLC5        0.0000 
      2 CA        -10.0170   66.4700   30.3940 C.3      12 GLL5        0.0000 
      3 CA         -7.4570   68.5670   27.5080 C.3       8 GLP5        0.0000 
      4 CA        -11.2460   68.1955   30.1840 C.3       4 GLC5        0.0000 
      5 CA        -12.4750   69.9210   29.9740 C.3       8 GLP5        0.0000 
      6 CA         -6.9320   66.5915   30.5485 C.3       4 GLC5        0.0000 
      7 CA         -8.9540   65.9610   31.1050 C.3      12 GLL5        0.0000 
      8 CA         -4.9100   67.2220   29.9920 C.3       8 GLP5        0.0000 
      9 N         -12.5500   67.3535   29.3035 N.am      2 SEC2        0.0000 
     10 N         -12.5630   66.4630   30.3750 N.am     10 SEL2        0.0000 
     11 N         -12.5370   68.2440   28.2320 N.am      6 SEP2        0.0000 
     12 N         -12.7590   66.4375   28.6480 N.am      2 SEC2        0.0000 
     13 N         -12.9550   66.4120   26.9210 N.am      6 SEP2        0.0000 
     14 CA         -3.8265   65.8860   35.7980 C.3       4 GLC5        0.0000 
     15 CA         -3.3780   63.8860   35.2670 C.3      12 GLL5        0.0000 
     16 CA         -4.2750   67.8860   36.3290 C.3       8 GLP5        0.0000 
     17 OD1        -2.6470   63.5740   33.1780 O.co2     3 ASC3        0.0000 
     18 OD1        -3.0260   64.5280   33.9950 O.co2    11 ASL3        0.0000 
     19 OD1        -2.2680   62.6200   32.3610 O.co2     7 ASP3        0.0000 
     20 OD1        -3.5415   65.6805   33.4485 O.co2     3 ASC3        0.0000 
     21 OD1        -4.0570   66.8330   32.9020 O.co2     7 ASP3        0.0000 
     22 OD1        -2.4555   65.6745   33.5740 O.co2     3 ASC3        0.0000 
     23 OD1        -1.8850   66.8210   33.1530 O.co2     7 ASP3        0.0000 
     24 O          -2.6470   63.5740   33.1780 O.2       1 ALC1        0.0000 
     25 O          -3.0260   64.5280   33.9950 O.2       9 ALL1        0.0000 
     26 O          -2.2680   62.6200   32.3610 O.2       5 ALP1        0.0000 
     27 O          -3.5415   65.6805   33.4485 O.2       1 ALC1        0.0000 
     28 O          -4.0570   66.8330   32.9020 O.2       5 ALP1        0.0000 
     29 O          -1.5475   64.7650   34.3915 O.2       1 ALC1        0.0000 
     30 O          -0.0690   65.0020   34.7880 O.2       5 ALP1        0.0000 
     31 N          -0.7230   61.7370   34.4575 N.am      2 SEC2        0.0000 
     32 N          -1.7100   62.1280   35.4170 N.am     10 SEL2        0.0000 
     33 N           0.2640   61.3460   33.4980 N.am      6 SEP2        0.0000 
     34 CA         -6.7745   61.1665   39.4645 C.3       4 GLC5        0.0000 
     35 CA         -6.2350   60.5670   37.7480 C.3      12 GLL5        0.0000 
     36 CA         -7.3140   61.7660   41.1810 C.3       8 GLP5        0.0000 
     37 CA         -3.0825   66.2010   38.2695 C.3       4 GLC5        0.0000 
     38 CA         -2.1100   64.8640   37.8540 C.3      12 GLL5        0.0000 
     39 CA         -4.0550   67.5380   38.6850 C.3       8 GLP5        0.0000 
     40 CA         -2.0340   65.4680   40.8565 C.3       4 GLC5        0.0000 
     41 CA         -1.2030   64.9990   39.0330 C.3      12 GLL5        0.0000 
     42 CA         -2.8650   65.9370   42.6800 C.3       8 GLP5        0.0000 
     43 CA         -0.5785   66.6265   40.4150 C.3       4 GLC5        0.0000 
     44 CA          0.0460   68.2540   41.7970 C.3       8 GLP5        0.0000 
     45 CA         -2.0720   66.6860   38.8660 C.3       4 GLC5        0.0000 
     46 CA         -2.9410   68.3730   38.6990 C.3       8 GLP5        0.0000 
     47 CA         -2.2530   63.8645   41.4985 C.3       4 GLC5        0.0000 
     48 CA         -1.7360   64.3150   40.1100 C.3      12 GLL5        0.0000 
     49 CA         -2.7700   63.4140   42.8870 C.3       8 GLP5        0.0000 
     50 CA         -2.8955   65.9265   39.3975 C.3       4 GLC5        0.0000 
     51 CA        -10.2207   67.1943   32.5212 C.3       4 GLC5        0.0000 
     52 CA        -10.9560   68.1730   34.2930 C.3       8 GLP5        0.0000 
     53 CA        -10.3685   66.5487   33.4100 C.3       4 GLC5        0.0000 
     54 CA         -9.1470   65.0800   32.3210 C.3      12 GLL5        0.0000 
     55 CA         -0.7183   66.0118   37.1472 C.3       4 GLC5        0.0000 
     56 CA          0.2200   67.0920   35.8510 C.3       8 GLP5        0.0000 
     57 CA          1.1315   65.0703   39.7480 C.3       4 GLC5        0.0000 
     58 CA          2.8390   65.4990   40.6560 C.3       8 GLP5        0.0000 
     59 CA          0.3103   64.8303   36.7817 C.3       4 GLC5        0.0000 
     60 CA          0.0510   64.2840   38.6470 C.3      12 GLL5        0.0000 
     61 CA          0.7410   65.8740   35.4710 C.3       8 GLP5        0.0000 
     62 CA          1.5238   63.1857   37.8717 C.3       4 GLC5        0.0000 
     63 CA         -0.2920   63.2890   37.5380 C.3      12 GLL5        0.0000 
     64 CA          3.1680   62.5850   37.6510 C.3       8 GLP5        0.0000 
@<TRIPOS>BOND
@<TRIPOS>SUBSTRUCTURE
     1 ALC1       24 GROUP        1 X    ALC  0     ROOT ALC X 1
     2 SEC2        9 GROUP        1 X    SEC  0     **** SEC X 2
     3 ASC3       17 GROUP        1 X    ASC  0     **** ASC X 3
     4 GLC5        1 GROUP        1 X    GLC  0     **** GLC X 6
     5 ALP1       26 GROUP        1 Y    ALP  0     ROOT ALP Y 8
     6 SEP2       11 GROUP        1 Y    SEP  0     **** SEP Y 9
     7 ASP3       19 GROUP        1 Y    ASP  0     **** ASP Y 10
     8 GLP5        3 GROUP        1 Y    GLP  0     **** GLP Y 13
     9 ALL1       25 GROUP        1 Z    ALL  0     ROOT ALL Z 15
    10 SEL2       10 GROUP        1 Z    SEL  0     **** SEL Z 16
    11 ASL3       18 GROUP        1 Z    ASL  0     **** ASL Z 17
    12 GLL5        2 GROUP        1 Z    GLL  0     **** GLL Z 20
@<TRIPOS>SET

