#    Name: 2fjp_S14_2_ligand
#    Modification time : Tue Mar 25 12:49:33 2014

@<TRIPOS>MOLECULE
2fjp_S14_2_ligand
   57    60     1     0     0
SMALL
NO_CHARGES


@<TRIPOS>ATOM
      1 C1        -11.3780   66.1090   30.8740 C.2       1 S141002     0.0000 
      2 C2        -10.0170   66.4700   30.3940 C.2       1 S141002     0.0000 
      3 C3         -8.9540   65.9610   31.1050 C.2       1 S141002     0.0000 
      4 C4         -9.1470   65.0800   32.3210 C.2       1 S141002     0.0000 
      5 C5        -10.4150   64.7690   32.7330 C.2       1 S141002     0.0000 
      6 N6        -11.5480   65.3220   31.9690 N.pl3     1 S141002     0.0000 
      7 N7        -12.7500   65.1420   32.1950 N.2       1 S141002     0.0000 
      8 C8        -13.3970   65.8280   31.2390 C.2       1 S141002     0.0000 
      9 N9        -12.5630   66.4630   30.3750 N.2       1 S141002     0.0000 
     10 C14        -7.9900   64.5330   33.0550 C.ar      1 S141002     0.0000 
     11 C15        -6.9280   63.9470   32.3350 C.ar      1 S141002     0.0000 
     12 C16        -5.8220   63.4020   32.9940 C.ar      1 S141002     0.0000 
     13 C17        -5.7360   63.4200   34.4110 C.ar      1 S141002     0.0000 
     14 C18        -6.8160   64.0200   35.1490 C.ar      1 S141002     0.0000 
     15 C19        -7.9220   64.5630   34.4840 C.ar      1 S141002     0.0000 
     16 C24        -4.4810   62.7830   35.0660 C.3       1 S141002     0.0000 
     17 C25        -3.3780   63.8860   35.2670 C.3       1 S141002     0.0000 
     18 C26        -2.1300   63.1770   35.9010 C.2       1 S141002     0.0000 
     19 N27        -1.5440   63.7690   36.9740 N.am      1 S141002     0.0000 
     20 C28        -4.9760   62.2490   36.5120 C.2       1 S141002     0.0000 
     21 N30        -3.0260   64.5280   33.9950 N.4       1 S141002     0.0000 
     22 O32        -1.7100   62.1280   35.4170 O.2       1 S141002     0.0000 
     23 O33        -4.5930   62.7000   37.5890 O.2       1 S141002     0.0000 
     24 N34        -5.7590   61.0740   36.4490 N.am      1 S141002     0.0000 
     25 C35        -6.2350   60.5670   37.7480 C.3       1 S141002     0.0000 
     26 C39        -6.1340   60.3110   35.2290 C.3       1 S141002     0.0000 
     27 C43        -2.1100   64.8640   37.8540 C.3       1 S141002     0.0000 
     28 C44        -1.2030   64.9990   39.0330 C.3       1 S141002     0.0000 
     29 C45         0.0510   64.2840   38.6470 C.3       1 S141002     0.0000 
     30 C46        -0.2920   63.2890   37.5380 C.3       1 S141002     0.0000 
     31 F53        -1.7360   64.3150   40.1100 F         1 S141002     0.0000 
     32 H          -9.9352   67.0528   29.5948 H         1 S141002     0.0000 
     33 H          -7.9775   66.1513   30.8490 H         1 S141002     0.0000 
     34 H         -10.6184   64.1856   33.5261 H         1 S141002     0.0000 
     35 H         -14.3901   65.8720   31.1638 H         1 S141002     0.0000 
     36 H          -6.9733   63.9228   31.3046 H         1 S141002     0.0000 
     37 H          -5.0553   62.9801   32.4534 H         1 S141002     0.0000 
     38 H          -6.7590   64.0417   36.1711 H         1 S141002     0.0000 
     39 H          -8.6904   64.9853   35.0088 H         1 S141002     0.0000 
     40 H          -4.1346   61.9903   34.5161 H         1 S141002     0.0000 
     41 H          -3.7495   64.5875   35.9836 H         1 S141002     0.0000 
     42 H          -3.1022   64.5871   38.1765 H         1 S141002     0.0000 
     43 H          -2.1405   65.7893   37.2990 H         1 S141002     0.0000 
     44 H          -0.9901   66.0058   39.2141 H         1 S141002     0.0000 
     45 H           0.4509   63.7427   39.4930 H         1 S141002     0.0000 
     46 H           0.7845   64.9855   38.2748 H         1 S141002     0.0000 
     47 H           0.4989   63.3006   36.8118 H         1 S141002     0.0000 
     48 H          -0.4033   62.3147   37.9754 H         1 S141002     0.0000 
     49 H          -3.5964   65.3289   33.8128 H         1 S141002     0.0000 
     50 H          -2.0750   64.8372   33.9857 H         1 S141002     0.0000 
     51 H          -3.1393   63.9053   33.2208 H         1 S141002     0.0000 
     52 H          -5.4764   60.3468   38.3613 H         1 S141002     0.0000 
     53 H          -6.8089   61.2361   38.2202 H         1 S141002     0.0000 
     54 H          -6.7796   59.7347   37.6448 H         1 S141002     0.0000 
     55 H          -5.3294   59.9812   34.7353 H         1 S141002     0.0000 
     56 H          -6.6918   59.5105   35.4484 H         1 S141002     0.0000 
     57 H          -6.6619   60.8696   34.5892 H         1 S141002     0.0000 
@<TRIPOS>BOND
     1    2    1 1    
     2    6    1 1    
     3    9    1 2    
     4    3    2 2    
     5   32    2 1    
     6    4    3 1    
     7   33    3 1    
     8    5    4 2    
     9   10    4 1    
    10    6    5 1    
    11   34    5 1    
    12    7    6 1    
    13    8    7 2    
    14    9    8 1    
    15   35    8 1    
    16   11   10 ar   
    17   15   10 ar   
    18   12   11 ar   
    19   36   11 1    
    20   13   12 ar   
    21   37   12 1    
    22   14   13 ar   
    23   16   13 1    
    24   15   14 ar   
    25   38   14 1    
    26   39   15 1    
    27   17   16 1    
    28   20   16 1    
    29   40   16 1    
    30   18   17 1    
    31   21   17 1    
    32   41   17 1    
    33   19   18 am   
    34   22   18 2    
    35   27   19 1    
    36   30   19 1    
    37   23   20 2    
    38   24   20 am   
    39   49   21 1    
    40   50   21 1    
    41   51   21 1    
    42   25   24 1    
    43   26   24 1    
    44   52   25 1    
    45   53   25 1    
    46   54   25 1    
    47   55   26 1    
    48   56   26 1    
    49   57   26 1    
    50   28   27 1    
    51   42   27 1    
    52   43   27 1    
    53   29   28 1    
    54   31   28 1    
    55   44   28 1    
    56   30   29 1    
    57   45   29 1    
    58   46   29 1    
    59   47   30 1    
    60   48   30 1    
@<TRIPOS>SUBSTRUCTURE
     1 S141002     1 GROUP   
@<TRIPOS>SET

