#    Name: 1q20_PLO_1_INTS_M
#    Modification time : Mon Mar 24 22:44:37 2014

@<TRIPOS>MOLECULE
1q20_PLO_1_INTS_M
   56     0     6     0     0
SMALL
NO_CHARGES


@<TRIPOS>ATOM
      1 CA         12.6765   18.3215   28.8745 C.3       2 GLC5        0.0000 
      2 CA         14.1540   16.6540   28.8170 C.3       6 GLL5        0.0000 
      3 CA         11.1990   19.9890   28.9320 C.3       4 GLP5        0.0000 
      4 CA         15.9860   16.8095   29.9150 C.3       2 GLC5        0.0000 
      5 CA         17.8180   16.9650   31.0130 C.3       4 GLP5        0.0000 
      6 CA         13.1230   17.4165   30.6340 C.3       2 GLC5        0.0000 
      7 CA         12.0920   18.1790   32.4510 C.3       4 GLP5        0.0000 
      8 N          17.5195   18.7930   26.6945 N.am      1 SEC2        0.0000 
      9 N          17.1980   17.4920   26.4820 N.am      5 SEL2        0.0000 
     10 N          17.8410   20.0940   26.9070 N.am      3 SEP2        0.0000 
     11 CA         17.4945   16.1735   28.4890 C.3       2 GLC5        0.0000 
     12 CA         16.2670   15.2600   27.0280 C.3       6 GLL5        0.0000 
     13 CA         18.7220   17.0870   29.9500 C.3       4 GLP5        0.0000 
     14 CA         17.0765   14.0870   25.5735 C.3       2 GLC5        0.0000 
     15 CA         17.8860   12.9140   24.1190 C.3       4 GLP5        0.0000 
     16 CA         16.1305   11.8310   31.2805 C.3       2 GLC5        0.0000 
     17 CA         15.0780   12.1600   29.4530 C.3       6 GLL5        0.0000 
     18 CA         17.1830   11.5020   33.1080 C.3       4 GLP5        0.0000 
     19 CA         14.6285   10.4040   28.2430 C.3       2 GLC5        0.0000 
     20 CA         14.1790    8.6480   27.0330 C.3       4 GLP5        0.0000 
     21 CA         15.1185   15.2710   31.3890 C.3       2 GLC5        0.0000 
     22 CA         13.7630   14.3160   30.1420 C.3       6 GLL5        0.0000 
     23 CA         16.4740   16.2260   32.6360 C.3       4 GLP5        0.0000 
     24 CA         10.7840   14.8525   29.2775 C.3       2 GLC5        0.0000 
     25 CA         12.4490   14.8780   30.7430 C.3       6 GLL5        0.0000 
     26 CA          9.1190   14.8270   27.8120 C.3       4 GLP5        0.0000 
     27 CA         13.5415    9.2020   30.4900 C.3       2 GLC5        0.0000 
     28 CA         13.2790   10.6470   31.6320 C.3       6 GLL5        0.0000 
     29 CA         13.8040    7.7570   29.3480 C.3       4 GLP5        0.0000 
     30 CA          9.2585   13.1180   30.4225 C.3       2 GLC5        0.0000 
     31 CA         10.7900   12.2750   31.1480 C.3       6 GLL5        0.0000 
     32 CA          7.7270   13.9610   29.6970 C.3       4 GLP5        0.0000 
     33 CA         10.5865   10.9760   29.6580 C.3       2 GLC5        0.0000 
     34 CA         10.3830    9.6770   28.1680 C.3       4 GLP5        0.0000 
     35 CA         11.0060   14.8250   27.7575 C.3       2 GLC5        0.0000 
     36 CA         12.8930   14.8230   27.7030 C.3       6 GLL5        0.0000 
     37 CA          9.8650   13.6095   36.2390 C.3       2 GLC5        0.0000 
     38 CA          9.9620   12.9190   34.5990 C.3       6 GLL5        0.0000 
     39 CA          9.7680   14.3000   37.8790 C.3       4 GLP5        0.0000 
     40 CA         17.2163   17.0953   28.7843 C.3       2 GLC5        0.0000 
     41 CA         15.0180   17.4350   27.7540 C.3       6 GLL5        0.0000 
     42 CA         16.2662   19.0027   27.4857 C.3       2 GLC5        0.0000 
     43 CA         16.4030   16.7720   27.4830 C.3       6 GLL5        0.0000 
     44 CA         16.8220   20.9020   27.3530 C.3       4 GLP5        0.0000 
     45 CA         16.8185   11.5475   28.6645 C.3       2 GLC5        0.0000 
     46 CA         15.8820   13.0280   28.4570 C.3       6 GLL5        0.0000 
     47 CA         18.1570   10.5010   28.3740 C.3       4 GLP5        0.0000 
     48 CA         12.1883   16.3708   31.9398 C.3       2 GLC5        0.0000 
     49 CA         14.9290   10.8083   32.4742 C.3       2 GLC5        0.0000 
     50 CA         13.3950   12.1780   31.4330 C.3       6 GLL5        0.0000 
     51 CA         16.5210   10.2040   33.4160 C.3       4 GLP5        0.0000 
     52 CA         11.5570    9.1820   32.2645 C.3       2 GLC5        0.0000 
     53 CA         10.1310    7.7830   32.1960 C.3       4 GLP5        0.0000 
     54 CA         14.0422   10.5615   33.8547 C.3       2 GLC5        0.0000 
     55 CA         12.6870   10.5150   33.0340 C.3       6 GLL5        0.0000 
     56 CA         15.7280    9.9170   34.4920 C.3       4 GLP5        0.0000 
@<TRIPOS>BOND
@<TRIPOS>SUBSTRUCTURE
     1 SEC2        8 GROUP        1 X    SEC  0     ROOT SEC X 2
     2 GLC5        1 GROUP        1 X    GLC  0     **** GLC X 6
     3 SEP2       10 GROUP        1 Y    SEP  0     ROOT SEP Y 9
     4 GLP5        3 GROUP        1 Y    GLP  0     **** GLP Y 13
     5 SEL2        9 GROUP        1 Z    SEL  0     ROOT SEL Z 16
     6 GLL5        2 GROUP        1 Z    GLL  0     **** GLL Z 20
@<TRIPOS>SET

