#    Name: 1q20_PLO_1_ligand
#    Modification time : Mon Mar 24 22:44:37 2014

@<TRIPOS>MOLECULE
1q20_PLO_1_ligand
   55    58     1     0     0
SMALL
NO_CHARGES


@<TRIPOS>ATOM
      1 C1         14.1540   16.6540   28.8170 C.3       1 PLO401      0.0000 
      2 C2         15.0180   17.4350   27.7540 C.3       1 PLO401      0.0000 
      3 C3         16.4030   16.7720   27.4830 C.3       1 PLO401      0.0000 
      4 O3         17.1980   17.4920   26.4820 O.3       1 PLO401      0.0000 
      5 C4         16.2670   15.2600   27.0280 C.3       1 PLO401      0.0000 
      6 C5         15.4360   14.4380   28.0380 C.2       1 PLO401      0.0000 
      7 C6         15.8820   13.0280   28.4570 C.2       1 PLO401      0.0000 
      8 C7         15.0780   12.1600   29.4530 C.3       1 PLO401      0.0000 
      9 C8         13.7090   12.7600   30.0340 C.3       1 PLO401      0.0000 
     10 C9         13.7630   14.3160   30.1420 C.3       1 PLO401      0.0000 
     11 C10        14.0450   14.9840   28.7360 C.3       1 PLO401      0.0000 
     12 C11        12.4490   14.8780   30.7430 C.3       1 PLO401      0.0000 
     13 C12        12.1200   14.2470   32.1140 C.3       1 PLO401      0.0000 
     14 C13        12.0210   12.6910   32.0300 C.3       1 PLO401      0.0000 
     15 C14        13.3950   12.1780   31.4330 C.3       1 PLO401      0.0000 
     16 C15        13.2790   10.6470   31.6320 C.3       1 PLO401      0.0000 
     17 C16        12.6870   10.5150   33.0340 C.3       1 PLO401      0.0000 
     18 C17        12.0260   11.8970   33.4010 C.3       1 PLO401      0.0000 
     19 C18        10.7900   12.2750   31.1480 C.3       1 PLO401      0.0000 
     20 C19        12.8930   14.8230   27.7030 C.3       1 PLO401      0.0000 
     21 C20        10.6290   11.6970   34.0520 C.2       1 PLO401      0.0000 
     22 C21         9.9620   12.9190   34.5990 C.3       1 PLO401      0.0000 
     23 O20        10.0750   10.6130   34.1350 O.2       1 PLO401      0.0000 
     24 H          13.1084   17.0245   28.7872 H         1 PLO401      0.0000 
     25 H          14.5291   16.8809   29.8365 H         1 PLO401      0.0000 
     26 H          15.1745   18.4507   28.1178 H         1 PLO401      0.0000 
     27 H          14.4562   17.4802   26.8209 H         1 PLO401      0.0000 
     28 H          16.9518   16.7477   28.4352 H         1 PLO401      0.0000 
     29 H          17.2633   14.8413   26.9482 H         1 PLO401      0.0000 
     30 H          15.7846   15.2422   26.0579 H         1 PLO401      0.0000 
     31 H          16.7244   12.6538   28.0727 H         1 PLO401      0.0000 
     32 H          15.7205   11.9135   30.3245 H         1 PLO401      0.0000 
     33 H          14.8301   11.1892   28.9745 H         1 PLO401      0.0000 
     34 H          12.9174   12.4910   29.3609 H         1 PLO401      0.0000 
     35 H          14.5800   14.5849   30.7994 H         1 PLO401      0.0000 
     36 H          11.6306   14.6759   30.0520 H         1 PLO401      0.0000 
     37 H          12.5489   15.9569   30.8619 H         1 PLO401      0.0000 
     38 H          11.1690   14.6369   32.4702 H         1 PLO401      0.0000 
     39 H          12.9000   14.5076   32.8260 H         1 PLO401      0.0000 
     40 H          14.1488   12.5330   32.1648 H         1 PLO401      0.0000 
     41 H          14.2437   10.2167   31.6022 H         1 PLO401      0.0000 
     42 H          12.6104   10.2513   30.9158 H         1 PLO401      0.0000 
     43 H          13.4594   10.3109   33.7455 H         1 PLO401      0.0000 
     44 H          11.9260    9.7631   33.0465 H         1 PLO401      0.0000 
     45 H          12.6930   12.3969   34.0674 H         1 PLO401      0.0000 
     46 H          10.8659   12.6267   30.2150 H         1 PLO401      0.0000 
     47 H          10.7005   11.2813   31.0803 H         1 PLO401      0.0000 
     48 H           9.9303   12.6219   31.5230 H         1 PLO401      0.0000 
     49 H          13.1796   15.0890   26.7826 H         1 PLO401      0.0000 
     50 H          12.5726   13.8773   27.6484 H         1 PLO401      0.0000 
     51 H          12.1017   15.3874   27.9381 H         1 PLO401      0.0000 
     52 H          10.5089   13.3511   35.3161 H         1 PLO401      0.0000 
     53 H           9.8107   13.6082   33.8904 H         1 PLO401      0.0000 
     54 H           9.0696   12.7080   34.9979 H         1 PLO401      0.0000 
     55 H          18.1064   17.0762   26.5253 H         1 PLO401      0.0000 
@<TRIPOS>BOND
     1    2    1 1    
     2   11    1 1    
     3   24    1 1    
     4   25    1 1    
     5    3    2 1    
     6   26    2 1    
     7   27    2 1    
     8    4    3 1    
     9    5    3 1    
    10   28    3 1    
    11   55    4 1    
    12    6    5 1    
    13   29    5 1    
    14   30    5 1    
    15    7    6 2    
    16   11    6 1    
    17    8    7 1    
    18   31    7 1    
    19    9    8 1    
    20   32    8 1    
    21   33    8 1    
    22   10    9 1    
    23   15    9 1    
    24   34    9 1    
    25   11   10 1    
    26   12   10 1    
    27   35   10 1    
    28   20   11 1    
    29   13   12 1    
    30   36   12 1    
    31   37   12 1    
    32   14   13 1    
    33   38   13 1    
    34   39   13 1    
    35   15   14 1    
    36   18   14 1    
    37   19   14 1    
    38   16   15 1    
    39   40   15 1    
    40   17   16 1    
    41   41   16 1    
    42   42   16 1    
    43   18   17 1    
    44   43   17 1    
    45   44   17 1    
    46   21   18 1    
    47   45   18 1    
    48   46   19 1    
    49   47   19 1    
    50   48   19 1    
    51   49   20 1    
    52   50   20 1    
    53   51   20 1    
    54   22   21 1    
    55   23   21 2    
    56   52   22 1    
    57   53   22 1    
    58   54   22 1    
@<TRIPOS>SUBSTRUCTURE
     1 PLO401      1 GROUP   
@<TRIPOS>SET

