#    Name: 3rl4_5GP_1_INTS_M
#    Modification time : Mon Apr  7 20:26:25 2014

@<TRIPOS>MOLECULE
3rl4_5GP_1_INTS_M
   47     0    12     0     0
SMALL
NO_CHARGES


@<TRIPOS>ATOM
      1 Zn        -22.1130   10.1110    8.1195 Zn        3 ZIC7        0.0000 
      2 Zn        -22.5070   10.8010    7.3830 Zn       11 ZIL7        0.0000 
      3 Zn        -21.7190    9.4210    8.8560 Zn        7 ZIP7        0.0000 
      4 N         -21.3140   11.3555    7.1360 N.am      2 SEC2        0.0000 
      5 N         -22.5070   10.8010    7.3830 N.am     10 SEL2        0.0000 
      6 N         -20.1210   11.9100    6.8890 N.am      6 SEP2        0.0000 
      7 Zn        -24.6095   10.9345    9.5490 Zn        3 ZIC7        0.0000 
      8 Zn        -24.5900   11.6000    8.7310 Zn       11 ZIL7        0.0000 
      9 Zn        -24.6290   10.2690   10.3670 Zn        7 ZIP7        0.0000 
     10 N         -23.3740   13.5435    7.5875 N.am      2 SEC2        0.0000 
     11 N         -23.8350   12.7720    6.6230 N.am     10 SEL2        0.0000 
     12 N         -22.9130   14.3150    8.5520 N.am      6 SEP2        0.0000 
     13 CA        -26.6425    9.4655    7.9625 C.3       4 GLC5        0.0000 
     14 CA        -26.2020   10.7260    6.2020 C.3      12 GLL5        0.0000 
     15 CA        -27.0830    8.2050    9.7230 C.3       8 GLP5        0.0000 
     16 CA        -27.3690   12.2000    7.0835 C.3       4 GLC5        0.0000 
     17 CA        -28.5360   13.6740    7.9650 C.3       8 GLP5        0.0000 
     18 CA        -26.3090    6.5260    5.9750 C.3       4 GLC5        0.0000 
     19 CA        -26.6680    8.4100    5.1630 C.3      12 GLL5        0.0000 
     20 CA        -25.9500    4.6420    6.7870 C.3       8 GLP5        0.0000 
     21 N         -27.7640    6.8030    6.9395 N.am      2 SEC2        0.0000 
     22 N         -27.7260    7.8970    5.9960 N.am     10 SEL2        0.0000 
     23 N         -27.8020    5.7090    7.8830 N.am      6 SEP2        0.0000 
     24 O         -28.5875    7.0015    5.5820 O.2       1 ALC1        0.0000 
     25 O         -27.7260    7.8970    5.9960 O.2       9 ALL1        0.0000 
     26 O         -29.4490    6.1060    5.1680 O.2       5 ALP1        0.0000 
     27 CA        -25.5055    6.4395    4.0280 C.3       4 GLC5        0.0000 
     28 CA        -26.8170    8.0000    3.7000 C.3      12 GLL5        0.0000 
     29 CA        -24.1940    4.8790    4.3560 C.3       8 GLP5        0.0000 
     30 O         -28.8125    7.1215    4.2130 O.2       1 ALC1        0.0000 
     31 O         -28.1760    8.1370    3.2580 O.2       9 ALL1        0.0000 
     32 O         -29.0810    7.1560    3.1625 O.2       1 ALC1        0.0000 
     33 O         -29.9860    6.1750    3.0670 O.2       5 ALP1        0.0000 
     34 CA        -24.4320   10.3810    2.0540 C.3       4 GLC5        0.0000 
     35 CA        -25.9810    9.0850    3.0010 C.3      12 GLL5        0.0000 
     36 CA        -22.8830   11.6770    1.1070 C.3       8 GLP5        0.0000 
     37 CA        -21.1745    8.8450    1.3355 C.3       4 GLC5        0.0000 
     38 CA        -22.8840    7.6490    1.7830 C.3      12 GLL5        0.0000 
     39 CA        -19.4650   10.0410    0.8880 C.3       8 GLP5        0.0000 
     40 N         -20.2375    6.3270    1.8245 N.am      2 SEC2        0.0000 
     41 N         -21.0520    6.6800    0.7570 N.am     10 SEL2        0.0000 
     42 N         -19.4230    5.9740    2.8920 N.am      6 SEP2        0.0000 
     43 O         -26.3745    7.3190   -2.0845 O.2       1 ALC1        0.0000 
     44 O         -24.9130    7.0980   -1.7200 O.2       9 ALL1        0.0000 
     45 O         -27.8360    7.5400   -2.4490 O.2       5 ALP1        0.0000 
     46 CA        -23.8705    6.3605    3.0302 C.3       4 GLC5        0.0000 
     47 CA        -24.2100    8.0350    1.6260 C.3      12 GLL5        0.0000 
@<TRIPOS>BOND
@<TRIPOS>SUBSTRUCTURE
     1 ALC1       24 GROUP        1 X    ALC  0     ROOT ALC X 1
     2 SEC2        4 GROUP        1 X    SEC  0     **** SEC X 2
     3 ZIC7        1 GROUP        1 X    ZIC  0     **** ZIC X 5
     4 GLC5       13 GROUP        1 X    GLC  0     **** GLC X 6
     5 ALP1       26 GROUP        1 Y    ALP  0     ROOT ALP Y 8
     6 SEP2        6 GROUP        1 Y    SEP  0     **** SEP Y 9
     7 ZIP7        3 GROUP        1 Y    ZIP  0     **** ZIP Y 12
     8 GLP5       15 GROUP        1 Y    GLP  0     **** GLP Y 13
     9 ALL1       25 GROUP        1 Z    ALL  0     ROOT ALL Z 15
    10 SEL2        5 GROUP        1 Z    SEL  0     **** SEL Z 16
    11 ZIL7        2 GROUP        1 Z    ZIL  0     **** ZIL Z 19
    12 GLL5       14 GROUP        1 Z    GLL  0     **** GLL Z 20
@<TRIPOS>SET

