#    Name: 3rl4_5GP_1_ligand
#    Modification time : Mon Apr  7 20:26:25 2014

@<TRIPOS>MOLECULE
3rl4_5GP_1_ligand
   36    38     1     0     0
SMALL
NO_CHARGES


@<TRIPOS>ATOM
      1 P         -23.8720   11.3580    7.3000 P.3       1 5GP951      0.0000 
      2 O1P       -22.5070   10.8010    7.3830 O.co2     1 5GP951      0.0000 
      3 O2P       -24.5900   11.6000    8.7310 O.co2     1 5GP951      0.0000 
      4 O3P       -23.8350   12.7720    6.6230 O.co2     1 5GP951      0.0000 
      5 O5'       -24.8120   10.4050    6.4280 O.3       1 5GP951      0.0000 
      6 C5'       -26.2020   10.7260    6.2020 C.3       1 5GP951      0.0000 
      7 C4'       -26.7620    9.9250    5.0380 C.3       1 5GP951      0.0000 
      8 O4'       -25.9290   10.2050    3.8950 O.3       1 5GP951      0.0000 
      9 C3'       -26.6680    8.4100    5.1630 C.3       1 5GP951      0.0000 
     10 O3'       -27.7260    7.8970    5.9960 O.3       1 5GP951      0.0000 
     11 C2'       -26.8170    8.0000    3.7000 C.3       1 5GP951      0.0000 
     12 O2'       -28.1760    8.1370    3.2580 O.3       1 5GP951      0.0000 
     13 C1'       -25.9810    9.0850    3.0010 C.3       1 5GP951      0.0000 
     14 N9        -24.5990    8.5730    2.7710 N.pl3     1 5GP951      0.0000 
     15 C8        -23.5650    8.5240    3.6310 C.2       1 5GP951      0.0000 
     16 N7        -22.5220    7.9690    3.0240 N.2       1 5GP951      0.0000 
     17 C5        -22.8840    7.6490    1.7830 C.2       1 5GP951      0.0000 
     18 C6        -22.2280    7.0490    0.7110 C.2       1 5GP951      0.0000 
     19 O6        -21.0520    6.6800    0.7570 O.2       1 5GP951      0.0000 
     20 N1        -22.9310    6.8800   -0.4720 N.am      1 5GP951      0.0000 
     21 C2        -24.2680    7.2830   -0.5740 C.2       1 5GP951      0.0000 
     22 N2        -24.9130    7.0980   -1.7200 N.pl3     1 5GP951      0.0000 
     23 N3        -24.8830    7.8600    0.4690 N.2       1 5GP951      0.0000 
     24 C4        -24.2100    8.0350    1.6260 C.2       1 5GP951      0.0000 
     25 H         -26.3301   11.7943    5.9743 H         1 5GP951      0.0000 
     26 H         -26.8094   10.5054    7.0919 H         1 5GP951      0.0000 
     27 H         -27.7621   10.2050    4.8312 H         1 5GP951      0.0000 
     28 H         -25.6974    8.1657    5.4830 H         1 5GP951      0.0000 
     29 H         -26.3819    7.0836    3.5387 H         1 5GP951      0.0000 
     30 H         -26.4474    9.3309    2.0850 H         1 5GP951      0.0000 
     31 H         -23.5880    8.8468    4.5503 H         1 5GP951      0.0000 
     32 H         -22.4687    6.4527   -1.2905 H         1 5GP951      0.0000 
     33 H         -25.8794    7.3548   -1.7274 H         1 5GP951      0.0000 
     34 H         -24.3740    6.7186   -2.4720 H         1 5GP951      0.0000 
     35 H         -28.2206    7.2494    5.4164 H         1 5GP951      0.0000 
     36 H         -28.5587    7.2145    3.3084 H         1 5GP951      0.0000 
@<TRIPOS>BOND
     1    2    1 ar   
     2    3    1 ar   
     3    4    1 ar   
     4    5    1 1    
     5    6    5 1    
     6    7    6 1    
     7   25    6 1    
     8   26    6 1    
     9    8    7 1    
    10    9    7 1    
    11   27    7 1    
    12   13    8 1    
    13   10    9 1    
    14   11    9 1    
    15   28    9 1    
    16   35   10 1    
    17   12   11 1    
    18   13   11 1    
    19   29   11 1    
    20   36   12 1    
    21   14   13 1    
    22   30   13 1    
    23   15   14 1    
    24   24   14 1    
    25   16   15 2    
    26   31   15 1    
    27   17   16 1    
    28   18   17 1    
    29   24   17 2    
    30   19   18 2    
    31   20   18 am   
    32   21   20 1    
    33   32   20 1    
    34   22   21 1    
    35   23   21 2    
    36   33   22 1    
    37   34   22 1    
    38   24   23 1    
@<TRIPOS>SUBSTRUCTURE
     1 5GP951      1 GROUP   
@<TRIPOS>SET

