#    Name: 4LPS_1_CAVITY_N1_ALL.mol2
#    Modification time : Tue Mar 11 14:01:37 2014

@<TRIPOS>MOLECULE
4LPS_1_CAVITY_N1_ALL.mol2
  114     0     7     0     0
SMALL
NO_CHARGES


@<TRIPOS>ATOM
      1 OG          4.7918    3.9320   -1.0582 O.2       1 SER1        0.0000 
      2 OG          4.8112    2.7141   -2.7949 O.2       1 SER1        0.0000 
      3 CA          3.8201    2.9885   -1.7029 C.3       6 GLY6        0.0000 
      4 CA          2.8290    3.2629   -0.6109 C.3       6 GLY6        0.0000 
      5 DU          3.8396    1.7706   -3.4397 H         7 CUB7        0.0000 
      6 DU          2.8485    2.0450   -2.3477 H         7 CUB7        0.0000 
      7 N           1.8574    2.3194   -1.2557 N.2       2 ALA2        0.0000 
      8 N           1.8768    1.1015   -2.9925 N.2       2 ALA2        0.0000 
      9 N           1.8963   -0.1164   -4.7292 N.2       2 ALA2        0.0000 
     10 OG          5.3607    2.7986   -0.2570 O.2       1 SER1        0.0000 
     11 NZ          4.3696    3.0730    0.8350 N.2       4 LYS4        0.0000 
     12 OG          6.3712    1.3063   -3.0858 O.2       1 SER1        0.0000 
     13 OG          5.3801    1.5807   -1.9938 O.2       1 SER1        0.0000 
     14 OG          4.3890    1.8551   -0.9018 O.2       1 SER1        0.0000 
     15 OD1         3.3979    2.1295    0.1902 O.3       3 ASP3        0.0000 
     16 OD1         2.4069    2.4039    1.2822 O.3       3 ASP3        0.0000 
     17 DU          5.3995    0.3628   -3.7306 H         7 CUB7        0.0000 
     18 DU          4.4085    0.6372   -2.6386 H         7 CUB7        0.0000 
     19 DU          3.4174    0.9116   -1.5466 H         7 CUB7        0.0000 
     20 N           2.4263    1.1860   -0.4546 N.2       2 ALA2        0.0000 
     21 DU          4.4279   -0.5807   -4.3753 H         7 CUB7        0.0000 
     22 N           3.4368   -0.3063   -3.2833 N.2       2 ALA2        0.0000 
     23 N           2.4457   -0.0319   -2.1913 N.2       2 ALA2        0.0000 
     24 N           2.4652   -1.2498   -3.9281 N.2       2 ALA2        0.0000 
     25 OG          6.9012    2.6087    1.1889 O.2       1 SER1        0.0000 
     26 OG          7.9118    1.1164   -1.6399 O.2       1 SER1        0.0000 
     27 OG          6.9207    1.3908   -0.5479 O.2       1 SER1        0.0000 
     28 OG          5.9296    1.6652    0.5441 O.2       1 SER1        0.0000 
     29 NZ          4.9385    1.9396    1.6361 N.2       4 LYS4        0.0000 
     30 OG          6.9401    0.1730   -2.2847 O.2       1 SER1        0.0000 
     31 OG          5.9490    0.4474   -1.1927 O.2       1 SER1        0.0000 
     32 CZ          4.9579    0.7218   -0.1007 C.ar      5 PHE5        0.0000 
     33 CZ          3.9669    0.9962    0.9913 C.ar      5 PHE5        0.0000 
     34 CA          2.9758    1.2706    2.0833 C.3       6 GLY6        0.0000 
     35 OG          6.9595   -1.0449   -4.0214 O.2       1 SER1        0.0000 
     36 OG          5.9685   -0.7705   -2.9294 O.2       1 SER1        0.0000 
     37 DU          4.9774   -0.4961   -1.8374 H         7 CUB7        0.0000 
     38 CZ          3.9863   -0.2217   -0.7454 C.ar      5 PHE5        0.0000 
     39 DU          4.9968   -1.7140   -3.5742 H         7 CUB7        0.0000 
     40 N           4.0057   -1.4396   -2.4822 N.2       2 ALA2        0.0000 
     41 CZ          3.0146   -1.1652   -1.3902 C.ar      5 PHE5        0.0000 
     42 DU          5.0162   -2.9319   -5.3110 H         7 CUB7        0.0000 
     43 DU          4.0252   -2.6575   -4.2190 H         7 CUB7        0.0000 
     44 N           3.0341   -2.3831   -3.1270 N.2       2 ALA2        0.0000 
     45 N           3.0535   -3.6010   -4.8637 N.2       2 ALA2        0.0000 
     46 N           2.0819   -4.5445   -5.5085 N.2       2 ALA2        0.0000 
     47 N           1.0908   -4.2701   -4.4165 N.2       2 ALA2        0.0000 
     48 NZ          1.1102   -5.4880   -6.1533 N.2       4 LYS4        0.0000 
     49 OG          8.4807   -0.0169   -0.8388 O.2       1 SER1        0.0000 
     50 CA          7.4896    0.2575    0.2532 C.3       6 GLY6        0.0000 
     51 CA          6.4985    0.5319    1.3452 C.3       6 GLY6        0.0000 
     52 CZ          5.5074    0.8063    2.4372 C.ar      5 PHE5        0.0000 
     53 OG          7.5090   -0.9604   -1.4835 O.2       1 SER1        0.0000 
     54 DU          6.5179   -0.6860   -0.3915 H         7 CUB7        0.0000 
     55 CZ          5.5269   -0.4116    0.7005 C.ar      5 PHE5        0.0000 
     56 OG          6.5374   -1.9039   -2.1283 O.2       1 SER1        0.0000 
     57 CZ          5.5463   -1.6295   -1.0363 C.ar      5 PHE5        0.0000 
     58 OG          6.5568   -3.1218   -3.8651 O.2       1 SER1        0.0000 
     59 DU          5.5657   -2.8474   -2.7731 H         7 CUB7        0.0000 
     60 CZ          4.5746   -2.5730   -1.6811 C.ar      5 PHE5        0.0000 
     61 O           6.5762   -4.3397   -5.6018 O.2       2 ALA2        0.0000 
     62 DU          5.5852   -4.0653   -4.5098 H         7 CUB7        0.0000 
     63 DU          4.5941   -3.7909   -3.4178 H         7 CUB7        0.0000 
     64 N           3.6030   -3.5165   -2.3258 N.2       2 ALA2        0.0000 
     65 OD1         6.5957   -5.5576   -7.3386 O.3       3 ASP3        0.0000 
     66 O           5.6046   -5.2832   -6.2466 O.2       2 ALA2        0.0000 
     67 DU          4.6135   -5.0088   -5.1546 H         7 CUB7        0.0000 
     68 DU          3.6224   -4.7344   -4.0626 H         7 CUB7        0.0000 
     69 N           2.6314   -4.4600   -2.9706 N.2       2 ALA2        0.0000 
     70 NZ          4.6329   -6.2267   -6.8914 N.2       4 LYS4        0.0000 
     71 NZ          3.6419   -5.9523   -5.7994 N.2       4 LYS4        0.0000 
     72 NZ          2.6508   -5.6779   -4.7074 N.2       4 LYS4        0.0000 
     73 N           1.6597   -5.4035   -3.6154 N.2       2 ALA2        0.0000 
     74 CA          9.0496   -1.1503   -0.0376 C.3       6 GLY6        0.0000 
     75 OG          9.0690   -2.3682   -1.7744 O.2       1 SER1        0.0000 
     76 CA          8.0779   -2.0938   -0.6824 C.3       6 GLY6        0.0000 
     77 CA          7.0868   -1.8194    0.4096 C.3       6 GLY6        0.0000 
     78 OG          8.0974   -3.3117   -2.4192 O.2       1 SER1        0.0000 
     79 OG          7.1063   -3.0373   -1.3272 O.2       1 SER1        0.0000 
     80 OD1         6.1152   -2.7629   -0.2352 O.3       3 ASP3        0.0000 
     81 O           8.1168   -4.5296   -4.1559 O.2       2 ALA2        0.0000 
     82 OG          7.1257   -4.2552   -3.0639 O.2       1 SER1        0.0000 
     83 DU          6.1346   -3.9808   -1.9719 H         7 CUB7        0.0000 
     84 N           5.1436   -3.7064   -0.8799 N.2       2 ALA2        0.0000 
     85 O           7.1452   -5.4731   -4.8007 O.2       2 ALA2        0.0000 
     86 DU          6.1541   -5.1987   -3.7087 H         7 CUB7        0.0000 
     87 CA          5.1630   -4.9243   -2.6167 C.3       6 GLY6        0.0000 
     88 CA          4.1719   -4.6499   -1.5247 C.3       6 GLY6        0.0000 
     89 O           6.1735   -6.4166   -5.4455 O.2       2 ALA2        0.0000 
     90 CA          5.1824   -6.1422   -4.3535 C.3       6 GLY6        0.0000 
     91 CA          4.1913   -5.8678   -3.2615 C.3       6 GLY6        0.0000 
     92 CA          3.2003   -5.5934   -2.1695 C.3       6 GLY6        0.0000 
     93 NZ          4.2108   -7.0857   -4.9982 N.2       4 LYS4        0.0000 
     94 O           3.2197   -6.8113   -3.9062 O.2       2 ALA2        0.0000 
     95 CA         10.6290   -3.7760   -2.0653 C.3       6 GLY6        0.0000 
     96 CA          9.6379   -3.5016   -0.9733 C.3       6 GLY6        0.0000 
     97 OD1         8.6468   -3.2272    0.1187 O.3       3 ASP3        0.0000 
     98 O          10.6484   -4.9939   -3.8020 O.2       2 ALA2        0.0000 
     99 OG          9.6574   -4.7195   -2.7100 O.2       1 SER1        0.0000 
    100 DU          8.6663   -4.4450   -1.6180 H         7 CUB7        0.0000 
    101 N           7.6752   -4.1706   -0.5260 N.2       2 ALA2        0.0000 
    102 O           8.6857   -5.6629   -3.3548 O.2       2 ALA2        0.0000 
    103 N           7.6946   -5.3885   -2.2628 N.2       2 ALA2        0.0000 
    104 N           6.7035   -5.1141   -1.1708 N.2       2 ALA2        0.0000 
    105 O           7.7141   -6.6064   -3.9996 O.2       2 ALA2        0.0000 
    106 CA          6.7230   -6.3320   -2.9076 C.3       6 GLY6        0.0000 
    107 NZ          5.7513   -7.2755   -3.5523 N.2       4 LYS4        0.0000 
    108 O          12.1890   -5.1837   -2.3561 O.2       2 ALA2        0.0000 
    109 O          11.1979   -4.9093   -1.2641 O.2       2 ALA2        0.0000 
    110 OD1        11.2174   -6.1272   -3.0009 O.3       3 ASP3        0.0000 
    111 OD1        10.2263   -5.8528   -1.9089 O.3       3 ASP3        0.0000 
    112 CA          9.2352   -5.5784   -0.8169 C.3       6 GLY6        0.0000 
    113 O          10.2457   -7.0707   -3.6457 O.2       2 ALA2        0.0000 
    114 OD1         9.2546   -6.7963   -2.5537 O.3       3 ASP3        0.0000 
@<TRIPOS>BOND
@<TRIPOS>SUBSTRUCTURE
     1 SER1        1 GROUP   
     2 ALA2        7 GROUP   
     3 ASP3       15 GROUP   
     4 LYS4       11 GROUP   
     5 PHE5       32 GROUP   
     6 GLY6        3 GROUP   
     7 CUB7        5 GROUP   
@<TRIPOS>SET

