#    Name: 4lps_GDP_1_INTS_M
#    Modification time : Tue Mar 25 11:23:46 2014

@<TRIPOS>MOLECULE
4lps_GDP_1_INTS_M
   71     0    15     0     0
SMALL
NO_CHARGES


@<TRIPOS>ATOM
      1 NZ         10.1250   -8.3455   -1.6780 N.4       3 LYC4        0.0000 
      2 NZ         11.4880   -7.5010   -1.3330 N.4      13 LYL4        0.0000 
      3 NZ          8.7620   -9.1900   -2.0230 N.4       8 LYP4        0.0000 
      4 N          11.2815   -7.8755    0.1405 N.am      2 SEC2        0.0000 
      5 N          11.4880   -7.5010   -1.3330 N.am     12 SEL2        0.0000 
      6 N          11.0750   -8.2500    1.6140 N.am      7 SEP2        0.0000 
      7 N          10.1250   -8.3455   -1.6780 N.am      2 SEC2        0.0000 
      8 N           8.7620   -9.1900   -2.0230 N.am      7 SEP2        0.0000 
      9 Zn         13.2445   -6.7210   -3.2730 Zn        4 ZIC7        0.0000 
     10 Zn         12.9230   -5.9070   -2.5750 Zn       14 ZIL7        0.0000 
     11 Zn         13.5660   -7.5350   -3.9710 Zn        9 ZIP7        0.0000 
     12 N          13.5465   -4.7460   -3.1390 N.am      2 SEC2        0.0000 
     13 N          12.9230   -5.9070   -2.5750 N.am     12 SEL2        0.0000 
     14 N          14.1700   -3.5850   -3.7030 N.am      7 SEP2        0.0000 
     15 NZ         14.2300   -6.6750    0.1485 N.4       3 LYC4        0.0000 
     16 NZ         13.0710   -6.0140   -0.1420 N.4      13 LYL4        0.0000 
     17 NZ         15.3890   -7.3360    0.4390 N.4       8 LYP4        0.0000 
     18 N          12.0730   -7.1320    0.7360 N.am      2 SEC2        0.0000 
     19 N          13.0710   -6.0140   -0.1420 N.am     12 SEL2        0.0000 
     20 N          12.4510   -4.7350    0.4975 N.am      2 SEC2        0.0000 
     21 N          11.8310   -3.4560    1.1370 N.am      7 SEP2        0.0000 
     22 N          13.4875   -4.5895   -0.4560 N.am      2 SEC2        0.0000 
     23 N          13.9040   -3.1650   -0.7700 N.am      7 SEP2        0.0000 
     24 N          14.2300   -6.6750    0.1485 N.am      2 SEC2        0.0000 
     25 N          15.3890   -7.3360    0.4390 N.am      7 SEP2        0.0000 
     26 N          11.4110   -4.2355   -0.0110 N.am      2 SEC2        0.0000 
     27 N          10.9910   -5.0150   -1.1590 N.am     12 SEL2        0.0000 
     28 N          11.4245   -2.6300   -3.9280 N.am      2 SEC2        0.0000 
     29 N          10.5580   -3.5370   -3.1990 N.am     12 SEL2        0.0000 
     30 N          12.2910   -1.7230   -4.6570 N.am      7 SEP2        0.0000 
     31 N          10.0095   -2.4315   -3.6095 N.am      2 SEC2        0.0000 
     32 N           9.4610   -1.3260   -4.0200 N.am      7 SEP2        0.0000 
     33 N          10.0405   -3.5095   -4.7485 N.am      2 SEC2        0.0000 
     34 N           9.5230   -3.4820   -6.2980 N.am      7 SEP2        0.0000 
     35 NZ          9.5525   -5.7965   -4.7120 N.4       3 LYC4        0.0000 
     36 NZ          9.5700   -5.8200   -3.1670 N.4      13 LYL4        0.0000 
     37 NZ          9.5230   -4.6390   -6.9430 N.4       8 LYP4        0.0000 
     38 NZ          9.1660   -7.5050   -2.5950 N.4       3 LYC4        0.0000 
     39 N           9.5525   -5.7965   -4.7120 N.am      2 SEC2        0.0000 
     40 N           9.5700   -5.8200   -3.1670 N.am     12 SEL2        0.0000 
     41 N           9.5350   -5.7730   -6.2570 N.am      7 SEP2        0.0000 
     42 CA          8.8990   -6.0665    0.3200 C.3       5 GLC5        0.0000 
     43 CA          7.7700   -4.8900   -0.9180 C.3      15 GLL5        0.0000 
     44 CA         10.0280   -7.2430    1.5580 C.3      10 GLP5        0.0000 
     45 N           7.0795   -3.1545    1.4710 N.am      2 SEC2        0.0000 
     46 N           6.7360   -2.9360    0.0460 N.am     12 SEL2        0.0000 
     47 N           7.4230   -3.3730    2.8960 N.am      7 SEP2        0.0000 
     48 CA          7.2550   -1.9570    1.1360 C.3       5 GLC5        0.0000 
     49 CA          6.2590   -1.7860   -0.6600 C.3      15 GLL5        0.0000 
     50 CA          8.2510   -2.1280    2.9320 C.3      10 GLP5        0.0000 
     51 CA          4.4685   -1.9420    0.4155 C.3       5 GLC5        0.0000 
     52 CA          2.6780   -2.0980    1.4910 C.3      10 GLP5        0.0000 
     53 CA          8.2725    2.7940   -0.8150 C.3       5 GLC5        0.0000 
     54 CA          7.9180    1.2960    0.4580 C.3      15 GLL5        0.0000 
     55 CA          8.6270    4.2920   -2.0880 C.3      10 GLP5        0.0000 
     56 N           9.0385    4.4475    0.6185 N.am      2 SEC2        0.0000 
     57 N           8.6650    3.3660    1.3600 N.am     12 SEL2        0.0000 
     58 N           9.4120    5.5290   -0.1230 N.am      7 SEP2        0.0000 
     59 O           6.4645    3.8080    2.6730 O.2       1 ALC1        0.0000 
     60 O           6.5470    2.7610    1.8160 O.2      11 ALL1        0.0000 
     61 O           6.3820    4.8550    3.5300 O.2       6 ALP1        0.0000 
     62 O           5.3730    3.6930    2.6430 O.2       1 ALC1        0.0000 
     63 O           4.1990    4.6250    3.4700 O.2       6 ALP1        0.0000 
     64 O           4.2735    3.3965    2.8885 O.2       1 ALC1        0.0000 
     65 O           4.3480    2.1680    2.3070 O.2      11 ALL1        0.0000 
     66 CA          5.9028   -6.2748   -0.9667 C.3       5 GLC5        0.0000 
     67 CA          6.4770   -4.1130   -0.7210 C.3      15 GLL5        0.0000 
     68 CA          4.6820   -8.0480   -1.1140 C.3      10 GLP5        0.0000 
     69 CA          7.9305    0.5265    2.1135 C.3       5 GLC5        0.0000 
     70 CA          6.7680    0.3940    0.3780 C.3      15 GLL5        0.0000 
     71 CA          8.5180    0.2080    3.8090 C.3      10 GLP5        0.0000 
@<TRIPOS>BOND
@<TRIPOS>SUBSTRUCTURE
     1 ALC1       59 GROUP        1 X    ALC  0     ROOT ALC X 1
     2 SEC2        4 GROUP        1 X    SEC  0     **** SEC X 2
     3 LYC4        1 GROUP        1 X    LYC  0     **** LYC X 4
     4 ZIC7        9 GROUP        1 X    ZIC  0     **** ZIC X 5
     5 GLC5       42 GROUP        1 X    GLC  0     **** GLC X 6
     6 ALP1       61 GROUP        1 Y    ALP  0     ROOT ALP Y 8
     7 SEP2        6 GROUP        1 Y    SEP  0     **** SEP Y 9
     8 LYP4        3 GROUP        1 Y    LYP  0     **** LYP Y 11
     9 ZIP7       11 GROUP        1 Y    ZIP  0     **** ZIP Y 12
    10 GLP5       44 GROUP        1 Y    GLP  0     **** GLP Y 13
    11 ALL1       60 GROUP        1 Z    ALL  0     ROOT ALL Z 15
    12 SEL2        5 GROUP        1 Z    SEL  0     **** SEL Z 16
    13 LYL4        2 GROUP        1 Z    LYL  0     **** LYL Z 18
    14 ZIL7       10 GROUP        1 Z    ZIL  0     **** ZIL Z 19
    15 GLL5       43 GROUP        1 Z    GLL  0     **** GLL Z 20
@<TRIPOS>SET

