#    Name: 4lps_GDP_1_ligand
#    Modification time : Tue Mar 25 11:23:46 2014

@<TRIPOS>MOLECULE
4lps_GDP_1_ligand
   40    42     1     0     0
SMALL
NO_CHARGES


@<TRIPOS>ATOM
      1 PB         12.1290   -6.1360   -1.3140 P.3       1 GDP302      0.0000 
      2 O1B        11.4880   -7.5010   -1.3330 O.co2     1 GDP302      0.0000 
      3 O2B        12.9230   -5.9070   -2.5750 O.co2     1 GDP302      0.0000 
      4 O3B        13.0710   -6.0140   -0.1420 O.co2     1 GDP302      0.0000 
      5 O3A        10.9910   -5.0150   -1.1590 O.3       1 GDP302      0.0000 
      6 PA          9.9660   -4.6240   -2.3400 P.3       1 GDP302      0.0000 
      7 O1A        10.5580   -3.5370   -3.1990 O.co2     1 GDP302      0.0000 
      8 O2A         9.5700   -5.8200   -3.1670 O.co2     1 GDP302      0.0000 
      9 O5'         8.7310   -4.0250   -1.5190 O.3       1 GDP302      0.0000 
     10 C5'         7.7700   -4.8900   -0.9180 C.3       1 GDP302      0.0000 
     11 C4'         6.4770   -4.1130   -0.7210 C.3       1 GDP302      0.0000 
     12 O4'         6.7360   -2.9360    0.0460 O.3       1 GDP302      0.0000 
     13 C3'         5.9200   -3.6460   -2.0530 C.3       1 GDP302      0.0000 
     14 O3'         4.4980   -3.7960   -2.0090 O.3       1 GDP302      0.0000 
     15 C2'         6.2490   -2.1730   -2.1260 C.3       1 GDP302      0.0000 
     16 O2'         5.2320   -1.4650   -2.8330 O.3       1 GDP302      0.0000 
     17 C1'         6.2590   -1.7860   -0.6600 C.3       1 GDP302      0.0000 
     18 N9          7.1460   -0.6380   -0.3680 N.pl3     1 GDP302      0.0000 
     19 C8          8.4300   -0.4620   -0.7350 C.2       1 GDP302      0.0000 
     20 N7          8.9070    0.7110   -0.2480 N.2       1 GDP302      0.0000 
     21 C5          7.9180    1.2960    0.4580 C.2       1 GDP302      0.0000 
     22 C6          7.7360    2.5420    1.2400 C.2       1 GDP302      0.0000 
     23 O6          8.6650    3.3660    1.3600 O.2       1 GDP302      0.0000 
     24 N1          6.5470    2.7610    1.8160 N.am      1 GDP302      0.0000 
     25 C2          5.5270    1.8890    1.7020 C.2       1 GDP302      0.0000 
     26 N2          4.3480    2.1680    2.3070 N.pl3     1 GDP302      0.0000 
     27 N3          5.6220    0.7310    1.0050 N.2       1 GDP302      0.0000 
     28 C4          6.7680    0.3940    0.3780 C.2       1 GDP302      0.0000 
     29 H           8.1004   -5.2486    0.0592 H         1 GDP302      0.0000 
     30 H           7.5512   -5.7550   -1.5477 H         1 GDP302      0.0000 
     31 H           5.7550   -4.7366   -0.2455 H         1 GDP302      0.0000 
     32 H           6.3774   -4.1591   -2.8289 H         1 GDP302      0.0000 
     33 H           7.2157   -2.0577   -2.5148 H         1 GDP302      0.0000 
     34 H           5.2492   -1.5646   -0.3614 H         1 GDP302      0.0000 
     35 H           8.9503   -1.0887   -1.2766 H         1 GDP302      0.0000 
     36 H           6.4012    3.6450    2.3784 H         1 GDP302      0.0000 
     37 H           4.3087    3.0256    2.8197 H         1 GDP302      0.0000 
     38 H           3.6212    1.4917    2.1874 H         1 GDP302      0.0000 
     39 H           4.1354   -2.9135   -2.3085 H         1 GDP302      0.0000 
     40 H           5.6324   -1.2606   -3.7263 H         1 GDP302      0.0000 
@<TRIPOS>BOND
     1    2    1 ar   
     2    3    1 ar   
     3    4    1 ar   
     4    5    1 1    
     5    6    5 1    
     6    7    6 ar   
     7    8    6 ar   
     8    9    6 1    
     9   10    9 1    
    10   11   10 1    
    11   29   10 1    
    12   30   10 1    
    13   12   11 1    
    14   13   11 1    
    15   31   11 1    
    16   17   12 1    
    17   14   13 1    
    18   15   13 1    
    19   32   13 1    
    20   39   14 1    
    21   16   15 1    
    22   17   15 1    
    23   33   15 1    
    24   40   16 1    
    25   18   17 1    
    26   34   17 1    
    27   19   18 1    
    28   28   18 1    
    29   20   19 2    
    30   35   19 1    
    31   21   20 1    
    32   22   21 1    
    33   28   21 2    
    34   23   22 2    
    35   24   22 am   
    36   25   24 1    
    37   36   24 1    
    38   26   25 1    
    39   27   25 2    
    40   37   26 1    
    41   38   26 1    
    42   28   27 1    
@<TRIPOS>SUBSTRUCTURE
     1 GDP302      1 GROUP   
@<TRIPOS>SET

