#    Name: 4g20_484_1_INTS_M
#    Modification time : Mon Mar 24 21:13:28 2014

@<TRIPOS>MOLECULE
4g20_484_1_INTS_M
  134     0     9     0     0
SMALL
NO_CHARGES


@<TRIPOS>ATOM
      1 CA          4.0905   39.4285   36.6955 C.3       3 GLC5        0.0000 
      2 CA          2.2600   39.2490   37.7600 C.3       9 GLL5        0.0000 
      3 CA          5.9210   39.6080   35.6310 C.3       6 GLP5        0.0000 
      4 CA          0.9520   38.2750   35.7525 C.3       3 GLC5        0.0000 
      5 CA          1.3880   38.1930   37.5750 C.3       9 GLL5        0.0000 
      6 CA          0.5160   38.3570   33.9300 C.3       6 GLP5        0.0000 
      7 CA          0.5685   43.8370   40.0320 C.3       3 GLC5        0.0000 
      8 CA         -0.2180   41.9640   39.2640 C.3       9 GLL5        0.0000 
      9 CA          1.3550   45.7100   40.8000 C.3       6 GLP5        0.0000 
     10 CA         -1.1085   43.5275   38.7790 C.3       3 GLC5        0.0000 
     11 CA         -1.9990   45.0910   38.2940 C.3       6 GLP5        0.0000 
     12 CA          0.7015   40.9420   40.7225 C.3       3 GLC5        0.0000 
     13 CA          1.6210   39.9200   42.1810 C.3       6 GLP5        0.0000 
     14 CA         -1.5530   42.4205   40.4055 C.3       3 GLC5        0.0000 
     15 CA         -2.8880   42.8770   41.5470 C.3       6 GLP5        0.0000 
     16 O           0.3495   43.6330   40.7600 O.2       1 ALC1        0.0000 
     17 O           0.4550   42.3380   40.4850 O.2       7 ALL1        0.0000 
     18 O           0.2440   44.9280   41.0350 O.2       4 ALP1        0.0000 
     19 CA          2.7710   43.3460   39.6180 C.3       3 GLC5        0.0000 
     20 CA          2.9200   41.5550   38.4310 C.3       9 GLL5        0.0000 
     21 CA          2.6220   45.1370   40.8050 C.3       6 GLP5        0.0000 
     22 CA          4.2405   41.3635   39.7050 C.3       3 GLC5        0.0000 
     23 CA          5.5610   41.1720   40.9790 C.3       6 GLP5        0.0000 
     24 CA          2.2705   40.7375   40.3060 C.3       3 GLC5        0.0000 
     25 N           4.9560   42.1430   38.0480 N.am      2 SEC2        0.0000 
     26 N           4.2150   41.0620   37.9730 N.am      8 SEL2        0.0000 
     27 N           5.6970   43.2240   38.1230 N.am      5 SEP2        0.0000 
     28 O           4.3755   40.4180   36.6975 O.2       1 ALC1        0.0000 
     29 O           4.2150   41.0620   37.9730 O.2       7 ALL1        0.0000 
     30 O           4.5360   39.7740   35.4220 O.2       4 ALP1        0.0000 
     31 CA          0.7010   37.6540   40.2260 C.3       3 GLC5        0.0000 
     32 CA         -0.0700   36.8360   38.7240 C.3       9 GLL5        0.0000 
     33 CA          1.4720   38.4720   41.7280 C.3       6 GLP5        0.0000 
     34 CA         -1.1890   36.5370   40.4635 C.3       3 GLC5        0.0000 
     35 CA         -2.3080   36.2380   42.2030 C.3       6 GLP5        0.0000 
     36 CA          2.1255   34.0700   35.4990 C.3       3 GLC5        0.0000 
     37 CA          0.5670   33.7130   36.8690 C.3       9 GLL5        0.0000 
     38 CA          3.6840   34.4270   34.1290 C.3       6 GLP5        0.0000 
     39 CA         -2.8395   32.8050   38.2685 C.3       3 GLC5        0.0000 
     40 CA         -1.0190   33.7770   38.8740 C.3       9 GLL5        0.0000 
     41 CA         -4.6600   31.8330   37.6630 C.3       6 GLP5        0.0000 
     42 CA         -1.4945   29.9505   37.9250 C.3       3 GLC5        0.0000 
     43 CA          0.0690   29.9620   38.3790 C.3       9 GLL5        0.0000 
     44 CA         -3.0580   29.9390   37.4710 C.3       6 GLP5        0.0000 
     45 CA          0.8400   28.6910   37.2350 C.3       3 GLC5        0.0000 
     46 CA          1.6110   27.4200   36.0910 C.3       6 GLP5        0.0000 
     47 CA          1.2335   28.4075   39.1310 C.3       3 GLC5        0.0000 
     48 CA          2.3980   26.8530   39.8830 C.3       6 GLP5        0.0000 
     49 CA         -1.2335   29.1290   39.2570 C.3       3 GLC5        0.0000 
     50 CA         -2.5360   28.2960   40.1350 C.3       6 GLP5        0.0000 
     51 CA          0.3110   30.3335   40.2300 C.3       3 GLC5        0.0000 
     52 CA          0.5530   30.7050   42.0810 C.3       6 GLP5        0.0000 
     53 CA         -0.7380   31.5390   34.2330 C.3       3 GLC5        0.0000 
     54 CA          0.9930   30.9120   34.9020 C.3       9 GLL5        0.0000 
     55 CA         -2.4690   32.1660   33.5640 C.3       6 GLP5        0.0000 
     56 CA          0.5180   31.7110   32.9890 C.3       3 GLC5        0.0000 
     57 CA          1.8580   30.2330   33.9640 C.3       9 GLL5        0.0000 
     58 CA         -0.8220   33.1890   32.0140 C.3       6 GLP5        0.0000 
     59 CA          3.7770   33.3060   35.8405 C.3       3 GLC5        0.0000 
     60 CA          3.8700   32.1850   37.5520 C.3       9 GLL5        0.0000 
     61 CA          6.0945   28.1660   33.0880 C.3       3 GLC5        0.0000 
     62 CA          4.4150   29.4740   33.2700 C.3       9 GLL5        0.0000 
     63 CA          7.7740   26.8580   32.9060 C.3       6 GLP5        0.0000 
     64 CA          5.7715   32.5505   33.2915 C.3       3 GLC5        0.0000 
     65 CA          5.3840   30.4920   32.5090 C.3       9 GLL5        0.0000 
     66 CA          6.1590   34.6090   34.0740 C.3       6 GLP5        0.0000 
     67 CA          6.7700   29.0150   32.1315 C.3       3 GLC5        0.0000 
     68 CA          8.1560   27.5380   31.7540 C.3       6 GLP5        0.0000 
     69 CA          7.0520   31.0665   33.5165 C.3       3 GLC5        0.0000 
     70 CA          8.7200   31.6410   34.5240 C.3       6 GLP5        0.0000 
     71 N           5.8205   28.6405   35.2950 N.am      2 SEC2        0.0000 
     72 N           5.2060   28.6040   34.1100 N.am      8 SEL2        0.0000 
     73 N           6.4350   28.6770   36.4800 N.am      5 SEP2        0.0000 
     74 O           4.0925   27.9640   35.0555 O.2       1 ALC1        0.0000 
     75 O           5.2060   28.6040   34.1100 O.2       7 ALL1        0.0000 
     76 O           2.9790   27.3240   36.0010 O.2       4 ALP1        0.0000 
     77 CA          6.3370   27.6385   31.5095 C.3       3 GLC5        0.0000 
     78 CA          4.5180   27.7390   31.2650 C.3       9 GLL5        0.0000 
     79 CA          3.8230   32.5240   30.4875 C.3       3 GLC5        0.0000 
     80 CA          4.7380   31.5210   31.5530 C.3       9 GLL5        0.0000 
     81 CA          2.9080   33.5270   29.4220 C.3       6 GLP5        0.0000 
     82 CA          4.8075   33.2375   32.4520 C.3       3 GLC5        0.0000 
     83 CA          4.8770   34.9540   33.3510 C.3       6 GLP5        0.0000 
     84 CA          1.3293   39.8667   36.0300 C.3       3 GLC5        0.0000 
     85 CA          0.6160   39.8580   34.0300 C.3       6 GLP5        0.0000 
     86 CA          3.6160   37.8650   38.1257 C.3       3 GLC5        0.0000 
     87 CA          5.4080   37.0090   38.5840 C.3       6 GLP5        0.0000 
     88 CA          1.6480   38.5965   39.6977 C.3       3 GLC5        0.0000 
     89 CA          1.3512   40.2548   40.3380 C.3       3 GLC5        0.0000 
     90 CA          1.8250   40.5020   38.3000 C.3       9 GLL5        0.0000 
     91 CA         -0.5740   38.3773   36.3383 C.3       3 GLC5        0.0000 
     92 CA         -0.5980   39.5080   38.4850 C.3       9 GLL5        0.0000 
     93 CA         -0.8160   37.8800   34.4760 C.3       6 GLP5        0.0000 
     94 CA          0.5700   38.6732   39.9642 C.3       3 GLC5        0.0000 
     95 CA         -0.0660   38.2410   37.9160 C.3       9 GLL5        0.0000 
     96 CA         -1.9670   41.4886   38.1914 C.3       3 GLC5        0.0000 
     97 CA          0.3380   40.6770   38.6900 C.3       9 GLL5        0.0000 
     98 CA         -3.7600   41.9490   37.4570 C.3       6 GLP5        0.0000 
     99 CA         -0.5020   37.1050   36.3125 C.3       3 GLC5        0.0000 
    100 CA          0.0420   31.3235   40.3358 C.3       3 GLC5        0.0000 
    101 CA         -0.0440   31.5430   38.1420 C.3       9 GLL5        0.0000 
    102 CA         -1.6707   31.0270   37.8922 C.3       3 GLC5        0.0000 
    103 CA         -0.8940   32.3410   39.0390 C.3       9 GLL5        0.0000 
    104 CA          2.4800   32.8340   34.8148 C.3       3 GLC5        0.0000 
    105 CA          1.5590   31.5700   36.0990 C.3       9 GLL5        0.0000 
    106 CA          1.4435   29.3305   35.7957 C.3       3 GLC5        0.0000 
    107 CA         -0.2728   29.7657   33.6285 C.3       3 GLC5        0.0000 
    108 CA         -1.9710   28.9590   32.8240 C.3       6 GLP5        0.0000 
    109 CA          2.5570   29.3095   35.9853 C.3       3 GLC5        0.0000 
    110 CA          3.0960   31.5400   36.3530 C.3       9 GLL5        0.0000 
    111 CA          4.6450   29.7175   36.7443 C.3       3 GLC5        0.0000 
    112 CA          3.9100   30.8580   35.4060 C.3       9 GLL5        0.0000 
    113 CA          5.7870   28.2360   37.6090 C.3       6 GLP5        0.0000 
    114 CA          2.1150   28.8138   35.0860 C.3       3 GLC5        0.0000 
    115 CA          3.3800   30.1820   34.1980 C.3       9 GLL5        0.0000 
    116 CA          3.5628   32.5588   34.5839 C.3       3 GLC5        0.0000 
    117 CA          4.8027   29.9993   37.8950 C.3       3 GLC5        0.0000 
    118 CA          2.8205   28.2093   34.4235 C.3       3 GLC5        0.0000 
    119 CA          5.2135   30.1457   30.1230 C.3       3 GLC5        0.0000 
    120 CA          5.3660   29.2850   28.2150 C.3       6 GLP5        0.0000 
    121 CA          6.8225   31.2858   31.1870 C.3       3 GLC5        0.0000 
    122 CA          8.5840   31.5650   30.3430 C.3       6 GLP5        0.0000 
    123 CA          2.6582   28.5390   30.4532 C.3       3 GLC5        0.0000 
    124 CA          1.2350   28.9470   29.1530 C.3       6 GLP5        0.0000 
    125 CA          3.3182   26.2655   31.7422 C.3       3 GLC5        0.0000 
    126 CA          3.6450   28.5230   32.2420 C.3       9 GLL5        0.0000 
    127 CA          2.5550   24.4000   31.7310 C.3       6 GLP5        0.0000 
    128 CA          4.7237   28.7080   29.9842 C.3       3 GLC5        0.0000 
    129 CA          4.3422   31.1842   41.1695 C.3       3 GLC5        0.0000 
    130 CA          3.7670   31.3400   38.8100 C.3       9 GLL5        0.0000 
    131 CA          4.5300   30.6750   42.9770 C.3       6 GLP5        0.0000 
    132 CA          5.8706   31.8344   38.5652 C.3       3 GLC5        0.0000 
    133 CA          4.5420   32.0470   39.9140 C.3       9 GLL5        0.0000 
    134 CA          7.5610   31.7640   38.0830 C.3       6 GLP5        0.0000 
@<TRIPOS>BOND
@<TRIPOS>SUBSTRUCTURE
     1 ALC1       16 GROUP        1 X    ALC  0     ROOT ALC X 1
     2 SEC2       25 GROUP        1 X    SEC  0     **** SEC X 2
     3 GLC5        1 GROUP        1 X    GLC  0     **** GLC X 6
     4 ALP1       18 GROUP        1 Y    ALP  0     ROOT ALP Y 8
     5 SEP2       27 GROUP        1 Y    SEP  0     **** SEP Y 9
     6 GLP5        3 GROUP        1 Y    GLP  0     **** GLP Y 13
     7 ALL1       17 GROUP        1 Z    ALL  0     ROOT ALL Z 15
     8 SEL2       26 GROUP        1 Z    SEL  0     **** SEL Z 16
     9 GLL5        2 GROUP        1 Z    GLL  0     **** GLL Z 20
@<TRIPOS>SET

