#    Name: 4g20_484_1_ligand
#    Modification time : Mon Mar 24 21:13:28 2014

@<TRIPOS>MOLECULE
4g20_484_1_ligand
   74    76     1     0     0
SMALL
NO_CHARGES


@<TRIPOS>ATOM
      1 C1          2.2600   39.2490   37.7600 C.ar      1 484501      0.0000 
      2 C2          1.8250   40.5020   38.3000 C.ar      1 484501      0.0000 
      3 C3          0.3380   40.6770   38.6900 C.ar      1 484501      0.0000 
      4 C4         -0.5980   39.5080   38.4850 C.ar      1 484501      0.0000 
      5 C5         -0.0660   38.2410   37.9160 C.ar      1 484501      0.0000 
      6 C6          1.3880   38.1930   37.5750 C.ar      1 484501      0.0000 
      7 C48        -0.2180   41.9640   39.2640 C.3       1 484501      0.0000 
      8 O49         0.4550   42.3380   40.4850 O.3       1 484501      0.0000 
      9 C52         2.9200   41.5550   38.4310 C.3       1 484501      0.0000 
     10 O53         4.2150   41.0620   37.9730 O.3       1 484501      0.0000 
     11 C10        -0.0700   36.8360   38.7240 C.3       1 484501      0.0000 
     12 C27        -0.3060   35.8240   37.5740 C.3       1 484501      0.0000 
     13 C14        -0.3050   34.4660   37.8140 C.ar      1 484501      0.0000 
     14 C17         0.5670   33.7130   36.8690 C.ar      1 484501      0.0000 
     15 C18         0.6980   32.2350   37.0340 C.ar      1 484501      0.0000 
     16 C19        -0.0440   31.5430   38.1420 C.ar      1 484501      0.0000 
     17 C20        -0.8940   32.3410   39.0390 C.ar      1 484501      0.0000 
     18 C21        -1.0190   33.7770   38.8740 C.ar      1 484501      0.0000 
     19 C8          0.0690   29.9620   38.3790 C.3       1 484501      0.0000 
     20 C7          1.5590   31.5700   36.0990 C.ar      1 484501      0.0000 
     21 C9          0.9930   30.9120   34.9020 C.ar      1 484501      0.0000 
     22 C11         3.0960   31.5400   36.3530 C.ar      1 484501      0.0000 
     23 C12         3.9100   30.8580   35.4060 C.ar      1 484501      0.0000 
     24 C13         1.8580   30.2330   33.9640 C.ar      1 484501      0.0000 
     25 C16         3.3800   30.1820   34.1980 C.ar      1 484501      0.0000 
     26 C15         3.8700   32.1850   37.5520 C.3       1 484501      0.0000 
     27 C24         4.4150   29.4740   33.2700 C.3       1 484501      0.0000 
     28 C25         5.3840   30.4920   32.5090 C.3       1 484501      0.0000 
     29 C26         3.6450   28.5230   32.2420 C.3       1 484501      0.0000 
     30 O2          5.2060   28.6040   34.1100 O.3       1 484501      0.0000 
     31 C28         4.5180   27.7390   31.2650 C.3       1 484501      0.0000 
     32 C29         4.7380   31.5210   31.5530 C.3       1 484501      0.0000 
     33 C22         3.7670   31.3400   38.8100 C.3       1 484501      0.0000 
     34 C23         4.5420   32.0470   39.9140 C.3       1 484501      0.0000 
     35 H           3.2603   39.1528   37.5077 H         1 484501      0.0000 
     36 H          -1.5500   39.5952   38.7294 H         1 484501      0.0000 
     37 H           1.7210   37.2889   37.1762 H         1 484501      0.0000 
     38 H          -1.2991   41.8241   39.4359 H         1 484501      0.0000 
     39 H          -0.1159   42.7530   38.4992 H         1 484501      0.0000 
     40 H           2.9726   41.8645   39.4880 H         1 484501      0.0000 
     41 H           2.6135   42.4415   37.8515 H         1 484501      0.0000 
     42 H          -0.8782   36.8463   39.3762 H         1 484501      0.0000 
     43 H           0.8724   36.7058   39.1405 H         1 484501      0.0000 
     44 H           0.4589   36.1096   36.7645 H         1 484501      0.0000 
     45 H          -1.2848   36.1632   37.0752 H         1 484501      0.0000 
     46 H           1.0490   34.1809   36.1479 H         1 484501      0.0000 
     47 H          -1.3976   31.8715   39.7826 H         1 484501      0.0000 
     48 H          -1.6105   34.3048   39.5047 H         1 484501      0.0000 
     49 H          -0.0025   30.9452   34.7523 H         1 484501      0.0000 
     50 H           4.9356   30.8181   35.5477 H         1 484501      0.0000 
     51 H           1.5062   29.7808   33.1455 H         1 484501      0.0000 
     52 H           3.4508   33.1747   37.7327 H         1 484501      0.0000 
     53 H           4.9147   32.2944   37.2613 H         1 484501      0.0000 
     54 H           6.1209   29.8826   31.9446 H         1 484501      0.0000 
     55 H           5.9668   31.0313   33.2851 H         1 484501      0.0000 
     56 H           2.9350   29.1592   31.6822 H         1 484501      0.0000 
     57 H           3.0347   27.8239   32.8428 H         1 484501      0.0000 
     58 H           4.1999   30.3689   38.6313 H         1 484501      0.0000 
     59 H           2.7329   31.2453   39.0999 H         1 484501      0.0000 
     60 H           1.0096   29.6814   38.5699 H         1 484501      0.0000 
     61 H          -0.4892   29.6616   39.1524 H         1 484501      0.0000 
     62 H          -0.2349   29.4439   37.5795 H         1 484501      0.0000 
     63 H           5.0617   28.3449   30.6842 H         1 484501      0.0000 
     64 H           5.1587   27.1363   31.7407 H         1 484501      0.0000 
     65 H           3.9707   27.1637   30.6572 H         1 484501      0.0000 
     66 H           5.4221   32.1146   31.1291 H         1 484501      0.0000 
     67 H           4.2367   31.0753   30.8114 H         1 484501      0.0000 
     68 H           4.0897   32.1148   32.0296 H         1 484501      0.0000 
     69 H           5.5056   32.1653   39.6741 H         1 484501      0.0000 
     70 H           4.1730   32.9571   40.1025 H         1 484501      0.0000 
     71 H           4.5144   31.5358   40.7730 H         1 484501      0.0000 
     72 H           0.6265   43.3192   40.3958 H         1 484501      0.0000 
     73 H           4.0322   40.6417   37.0842 H         1 484501      0.0000 
     74 H           4.5752   28.0577   34.6612 H         1 484501      0.0000 
@<TRIPOS>BOND
     1    2    1 ar   
     2    6    1 ar   
     3   35    1 1    
     4    3    2 ar   
     5    9    2 1    
     6    4    3 ar   
     7    7    3 1    
     8    5    4 ar   
     9   36    4 1    
    10    6    5 ar   
    11   11    5 1    
    12   37    6 1    
    13    8    7 1    
    14   38    7 1    
    15   39    7 1    
    16   72    8 1    
    17   10    9 1    
    18   40    9 1    
    19   41    9 1    
    20   73   10 1    
    21   12   11 1    
    22   42   11 1    
    23   43   11 1    
    24   13   12 1    
    25   44   12 1    
    26   45   12 1    
    27   14   13 ar   
    28   18   13 ar   
    29   15   14 ar   
    30   46   14 1    
    31   16   15 ar   
    32   20   15 1    
    33   17   16 ar   
    34   19   16 1    
    35   18   17 ar   
    36   47   17 1    
    37   48   18 1    
    38   60   19 1    
    39   61   19 1    
    40   62   19 1    
    41   21   20 ar   
    42   22   20 ar   
    43   24   21 ar   
    44   49   21 1    
    45   23   22 ar   
    46   26   22 1    
    47   25   23 ar   
    48   50   23 1    
    49   25   24 ar   
    50   51   24 1    
    51   27   25 1    
    52   33   26 1    
    53   52   26 1    
    54   53   26 1    
    55   28   27 1    
    56   29   27 1    
    57   30   27 1    
    58   32   28 1    
    59   54   28 1    
    60   55   28 1    
    61   31   29 1    
    62   56   29 1    
    63   57   29 1    
    64   74   30 1    
    65   63   31 1    
    66   64   31 1    
    67   65   31 1    
    68   66   32 1    
    69   67   32 1    
    70   68   32 1    
    71   34   33 1    
    72   58   33 1    
    73   59   33 1    
    74   69   34 1    
    75   70   34 1    
    76   71   34 1    
@<TRIPOS>SUBSTRUCTURE
     1 484501      1 GROUP   
@<TRIPOS>SET

