#    Name: 1grb_FAD_1_INTS_M
#    Modification time : Tue Mar 25 03:38:58 2014

@<TRIPOS>MOLECULE
1grb_FAD_1_INTS_M
  121     0     9     0     0
SMALL
NO_CHARGES


@<TRIPOS>ATOM
      1 N          59.6280   52.1555   17.9875 N.am      2 SEC2        0.0000 
      2 N          58.9520   52.1160   19.2360 N.am      8 SEL2        0.0000 
      3 N          60.3040   52.1950   16.7390 N.am      5 SEP2        0.0000 
      4 N          59.3250   49.5425   18.1810 N.am      2 SEC2        0.0000 
      5 N          59.4050   49.5560   19.6760 N.am      8 SEL2        0.0000 
      6 N          59.2450   49.5290   16.6860 N.am      5 SEP2        0.0000 
      7 CA         57.4685   53.1950   21.2325 C.3       3 GLC5        0.0000 
      8 CA         56.3640   51.8520   20.4910 C.3       9 GLL5        0.0000 
      9 CA         58.5730   54.5380   21.9740 C.3       6 GLP5        0.0000 
     10 CA         53.6895   50.8685   21.2395 C.3       3 GLC5        0.0000 
     11 CA         55.0910   51.2920   19.8560 C.3       9 GLL5        0.0000 
     12 CA         52.2880   50.4450   22.6230 C.3       6 GLP5        0.0000 
     13 CA         56.0645   49.8140   17.6450 C.3       3 GLC5        0.0000 
     14 CA         54.9740   51.3350   18.3270 C.3       9 GLL5        0.0000 
     15 CA         57.1550   48.2930   16.9630 C.3       6 GLP5        0.0000 
     16 O          53.4715   49.6855   18.2120 O.2       1 ALC1        0.0000 
     17 O          54.6230   50.1420   17.6920 O.2       7 ALL1        0.0000 
     18 O          52.3200   49.2290   18.7320 O.2       4 ALP1        0.0000 
     19 O          53.0905   50.1905   17.2920 O.2       1 ALC1        0.0000 
     20 O          51.5580   50.2390   16.8920 O.2       4 ALP1        0.0000 
     21 O          52.4200   51.2275   16.8815 O.2       1 ALC1        0.0000 
     22 O          53.2820   52.2160   16.8710 O.2       7 ALL1        0.0000 
     23 CA         52.6660   51.3635   20.9380 C.3       3 GLC5        0.0000 
     24 CA         53.0440   52.2820   19.2530 C.3       9 GLL5        0.0000 
     25 CA         47.5330   55.1845   19.9530 C.3       3 GLC5        0.0000 
     26 CA         49.4890   55.2300   20.9620 C.3       9 GLL5        0.0000 
     27 CA         45.5770   55.1390   18.9440 C.3       6 GLP5        0.0000 
     28 O          47.8700   56.9390   22.1365 O.2       1 ALC1        0.0000 
     29 O          49.1580   56.3930   21.4240 O.2       7 ALL1        0.0000 
     30 O          46.5820   57.4850   22.8490 O.2       4 ALP1        0.0000 
     31 N          47.1570   54.7385   21.1235 N.am      2 SEC2        0.0000 
     32 N          48.5640   54.2350   20.8890 N.am      8 SEL2        0.0000 
     33 N          45.7500   55.2420   21.3580 N.am      5 SEP2        0.0000 
     34 CA         49.1230   53.3135   22.4900 C.3       3 GLC5        0.0000 
     35 CA         48.8660   53.0030   20.4150 C.3       9 GLL5        0.0000 
     36 CA         49.3800   53.6240   24.5650 C.3       6 GLP5        0.0000 
     37 CA         47.2475   51.9965   21.2900 C.3       3 GLC5        0.0000 
     38 CA         45.6290   50.9900   22.1650 C.3       6 GLP5        0.0000 
     39 CA         48.7940   51.1325   19.8185 C.3       3 GLC5        0.0000 
     40 CA         48.7220   49.2620   19.2220 C.3       6 GLP5        0.0000 
     41 CA         48.4640   53.1355   18.5920 C.3       3 GLC5        0.0000 
     42 CA         48.0620   53.2680   16.7690 C.3       6 GLP5        0.0000 
     43 CA         47.2215   54.0710   19.6795 C.3       3 GLC5        0.0000 
     44 N          49.3525   51.8105   18.8160 N.am      2 SEC2        0.0000 
     45 N          50.0530   52.5980   20.0090 N.am      8 SEL2        0.0000 
     46 N          48.6520   51.0230   17.6230 N.am      5 SEP2        0.0000 
     47 CA         51.6410   52.0055   21.3410 C.3       3 GLC5        0.0000 
     48 CA         50.9940   53.5660   20.0590 C.3       9 GLL5        0.0000 
     49 CA         49.5280   53.4170   18.4140 C.3       3 GLC5        0.0000 
     50 N          67.4950   48.2595   20.9970 N.am      2 SEC2        0.0000 
     51 N          68.3480   48.6520   19.5240 N.am      8 SEL2        0.0000 
     52 N          66.6420   47.8670   22.4700 N.am      5 SEP2        0.0000 
     53 N          67.9200   47.4465   21.6560 N.am      2 SEC2        0.0000 
     54 N          69.1980   47.0260   20.8420 N.am      8 SEL2        0.0000 
     55 N          71.0075   47.4940   15.4130 N.am      2 SEC2        0.0000 
     56 N          70.6190   46.8500   16.5670 N.am      8 SEL2        0.0000 
     57 N          71.3960   48.1380   14.2590 N.am      5 SEP2        0.0000 
     58 N          70.2520   48.6210   15.1055 N.am      2 SEC2        0.0000 
     59 N          69.1080   49.1040   15.9520 N.am      8 SEL2        0.0000 
     60 CA         67.6595   48.2220   15.2580 C.3       3 GLC5        0.0000 
     61 CA         68.2630   50.1570   15.7320 C.3       9 GLL5        0.0000 
     62 CA         67.0560   46.2870   14.7840 C.3       6 GLP5        0.0000 
     63 CA         68.7140   49.2705   12.7570 C.3       3 GLC5        0.0000 
     64 CA         68.1760   50.6640   14.4260 C.3       9 GLL5        0.0000 
     65 CA         69.2520   47.8770   11.0880 C.3       6 GLP5        0.0000 
     66 CA         66.8700   53.8460   11.6195 C.3       3 GLC5        0.0000 
     67 CA         67.3000   52.2580   12.7130 C.3       9 GLL5        0.0000 
     68 CA         66.4400   55.4340   10.5260 C.3       6 GLP5        0.0000 
     69 CA         66.4500   51.4755   10.9475 C.3       3 GLC5        0.0000 
     70 CA         65.6000   50.6930    9.1820 C.3       6 GLP5        0.0000 
     71 CA         65.4070   55.3590   15.9510 C.3       3 GLC5        0.0000 
     72 CA         65.6040   53.3900   14.9160 C.3       9 GLL5        0.0000 
     73 CA         65.2100   57.3280   16.9860 C.3       6 GLP5        0.0000 
     74 CA         66.9460   48.7345   17.1195 C.3       3 GLC5        0.0000 
     75 CA         67.4730   50.7280   16.7450 C.3       9 GLL5        0.0000 
     76 CA         66.4190   46.7410   17.4940 C.3       6 GLP5        0.0000 
     77 O          64.7945   51.9960   22.3005 O.2       1 ALC1        0.0000 
     78 O          65.3200   51.0070   21.5550 O.2       7 ALL1        0.0000 
     79 O          64.2690   52.9850   23.0460 O.2       4 ALP1        0.0000 
     80 O          64.5065   52.4400   21.3010 O.2       1 ALC1        0.0000 
     81 O          63.6930   53.8730   21.0470 O.2       4 ALP1        0.0000 
     82 CA         62.5185   52.6805   22.3180 C.3       3 GLC5        0.0000 
     83 CA         62.5880   50.7870   21.6980 C.3       9 GLL5        0.0000 
     84 CA         62.4490   54.5740   22.9380 C.3       6 GLP5        0.0000 
     85 N          59.2200   48.0680   23.8740 N.am      2 SEC2        0.0000 
     86 N          59.2010   49.3410   23.1980 N.am      8 SEL2        0.0000 
     87 N          59.2390   46.7950   24.5500 N.am      5 SEP2        0.0000 
     88 N          61.2035   52.5160   24.3875 N.am      2 SEC2        0.0000 
     89 N          60.3660   51.5960   23.6840 N.am      8 SEL2        0.0000 
     90 N          62.0410   53.4360   25.0910 N.am      5 SEP2        0.0000 
     91 CA         56.2593   49.4805   20.4352 C.3       3 GLC5        0.0000 
     92 CA         56.7910   47.3890   20.6970 C.3       6 GLP5        0.0000 
     93 CA         55.3152   52.9235   21.6133 C.3       3 GLC5        0.0000 
     94 CA         54.9030   54.2750   23.0530 C.3       6 GLP5        0.0000 
     95 CA         49.7690   54.3405   22.6535 C.3       3 GLC5        0.0000 
     96 CA         50.8270   54.8840   20.5220 C.3       9 GLL5        0.0000 
     97 CA         51.5865   54.6753   22.0267 C.3       3 GLC5        0.0000 
     98 CA         52.5970   55.0390   23.6530 C.3       6 GLP5        0.0000 
     99 CA         66.6262   49.7993   14.2680 C.3       3 GLC5        0.0000 
    100 CA         65.0330   49.1880   13.4570 C.3       6 GLP5        0.0000 
    101 CA         66.1760   50.5830   13.4352 C.3       3 GLC5        0.0000 
    102 CA         67.3380   51.6980   14.1140 C.3       9 GLL5        0.0000 
    103 CA         67.9990   53.8825   13.8112 C.3       3 GLC5        0.0000 
    104 CA         68.6790   55.7870   14.2090 C.3       6 GLP5        0.0000 
    105 CA         65.5505   51.0027   14.2447 C.3       3 GLC5        0.0000 
    106 CA         67.3735   54.3023   14.6207 C.3       3 GLC5        0.0000 
    107 CA         66.5320   52.2450   15.1490 C.3       9 GLL5        0.0000 
    108 CA         64.4140   51.9076   15.8506 C.3       3 GLC5        0.0000 
    109 CA         62.4840   51.5220   15.9660 C.3       6 GLP5        0.0000 
    110 CA         66.0397   50.2182   15.0243 C.3       3 GLC5        0.0000 
    111 CA         66.6200   51.7690   16.4380 C.3       9 GLL5        0.0000 
    112 CA         68.4985   52.0555   18.1295 C.3       3 GLC5        0.0000 
    113 CA         69.5240   53.3830   19.5140 C.3       6 GLP5        0.0000 
    114 CA         66.2908   48.5710   18.3900 C.3       3 GLC5        0.0000 
    115 CA         66.7700   50.8510   19.1140 C.3       9 GLL5        0.0000 
    116 CA         67.0717   50.0895   21.2540 C.3       3 GLC5        0.0000 
    117 CA         65.5550   49.9510   19.4580 C.3       9 GLL5        0.0000 
    118 CA         67.9810   49.7780   23.2220 C.3       6 GLP5        0.0000 
    119 CA         68.1470   52.1170   19.3140 C.3       3 GLC5        0.0000 
    120 CA         64.9093   48.4967   21.4419 C.3       3 GLC5        0.0000 
    121 CA         65.5570   46.8970   22.5450 C.3       6 GLP5        0.0000 
@<TRIPOS>BOND
@<TRIPOS>SUBSTRUCTURE
     1 ALC1       16 GROUP        1 X    ALC  0     ROOT ALC X 1
     2 SEC2        1 GROUP        1 X    SEC  0     **** SEC X 2
     3 GLC5        7 GROUP        1 X    GLC  0     **** GLC X 6
     4 ALP1       18 GROUP        1 Y    ALP  0     ROOT ALP Y 8
     5 SEP2        3 GROUP        1 Y    SEP  0     **** SEP Y 9
     6 GLP5        9 GROUP        1 Y    GLP  0     **** GLP Y 13
     7 ALL1       17 GROUP        1 Z    ALL  0     ROOT ALL Z 15
     8 SEL2        2 GROUP        1 Z    SEL  0     **** SEL Z 16
     9 GLL5        8 GROUP        1 Z    GLL  0     **** GLL Z 20
@<TRIPOS>SET

