#    Name: 1grb_FAD_1_ligand
#    Modification time : Tue Mar 25 03:38:58 2014

@<TRIPOS>MOLECULE
1grb_FAD_1_ligand
   84    89     1     0     0
SMALL
NO_CHARGES


@<TRIPOS>ATOM
      1 PA         58.8510   50.9030   20.0620 P.3       1 FAD479      0.0000 
      2 O1A        58.9520   52.1160   19.2360 O.co2     1 FAD479      0.0000 
      3 O2A        59.4050   49.5560   19.6760 O.co2     1 FAD479      0.0000 
      4 O5B        57.2640   50.6240   20.3360 O.3       1 FAD479      0.0000 
      5 C5B        56.3640   51.8520   20.4910 C.3       1 FAD479      0.0000 
      6 C4B        55.0910   51.2920   19.8560 C.3       1 FAD479      0.0000 
      7 O4B        53.9850   52.0840   20.3810 O.3       1 FAD479      0.0000 
      8 C3B        54.9740   51.3350   18.3270 C.3       1 FAD479      0.0000 
      9 O3B        54.6230   50.1420   17.6920 O.3       1 FAD479      0.0000 
     10 C2B        53.9870   52.4790   18.0830 C.3       1 FAD479      0.0000 
     11 O2B        53.2820   52.2160   16.8710 O.3       1 FAD479      0.0000 
     12 C1B        53.0440   52.2820   19.2530 C.3       1 FAD479      0.0000 
     13 N9A        52.3360   53.4980   19.6910 N.pl3     1 FAD479      0.0000 
     14 C8A        52.8870   54.7610   19.9580 C.2       1 FAD479      0.0000 
     15 N7A        51.9730   55.6060   20.4360 N.2       1 FAD479      0.0000 
     16 C5A        50.8270   54.8840   20.5220 C.ar      1 FAD479      0.0000 
     17 C6A        49.4890   55.2300   20.9620 C.ar      1 FAD479      0.0000 
     18 N6A        49.1580   56.3930   21.4240 N.pl3     1 FAD479      0.0000 
     19 N1A        48.5640   54.2350   20.8890 N.ar      1 FAD479      0.0000 
     20 C2A        48.8660   53.0030   20.4150 C.ar      1 FAD479      0.0000 
     21 N3A        50.0530   52.5980   20.0090 N.ar      1 FAD479      0.0000 
     22 C4A        50.9940   53.5660   20.0590 C.ar      1 FAD479      0.0000 
     23 N1         68.3480   48.6520   19.5240 N.2       1 FAD479      0.0000 
     24 C2         69.1270   47.5510   19.7600 C.2       1 FAD479      0.0000 
     25 O2         69.1980   47.0260   20.8420 O.2       1 FAD479      0.0000 
     26 N3         69.9010   46.9750   18.7270 N.am      1 FAD479      0.0000 
     27 C4         69.9790   47.4370   17.4340 C.2       1 FAD479      0.0000 
     28 O4         70.6190   46.8500   16.5670 O.2       1 FAD479      0.0000 
     29 C4X        69.1290   48.6260   17.1650 C.2       1 FAD479      0.0000 
     30 N5         69.1080   49.1040   15.9520 N.2       1 FAD479      0.0000 
     31 C5X        68.2630   50.1570   15.7320 C.ar      1 FAD479      0.0000 
     32 C6         68.1760   50.6640   14.4260 C.ar      1 FAD479      0.0000 
     33 C7         67.3380   51.6980   14.1140 C.ar      1 FAD479      0.0000 
     34 C7M        67.3000   52.2580   12.7130 C.3       1 FAD479      0.0000 
     35 C8         66.5320   52.2450   15.1490 C.ar      1 FAD479      0.0000 
     36 C8M        65.6040   53.3900   14.9160 C.3       1 FAD479      0.0000 
     37 C9         66.6200   51.7690   16.4380 C.ar      1 FAD479      0.0000 
     38 C9A        67.4730   50.7280   16.7450 C.ar      1 FAD479      0.0000 
     39 N10        67.5900   50.2580   18.0400 N.pl3     1 FAD479      0.0000 
     40 C10        68.3620   49.1610   18.3000 C.2       1 FAD479      0.0000 
     41 C1'        66.7700   50.8510   19.1140 C.3       1 FAD479      0.0000 
     42 C2'        65.5550   49.9510   19.4580 C.3       1 FAD479      0.0000 
     43 O2'        64.8440   49.6840   18.2530 O.3       1 FAD479      0.0000 
     44 C3'        64.6130   50.7070   20.3690 C.3       1 FAD479      0.0000 
     45 O3'        65.3200   51.0070   21.5550 O.3       1 FAD479      0.0000 
     46 C4'        63.4390   49.8640   20.7640 C.3       1 FAD479      0.0000 
     47 O4'        62.6320   49.4870   19.6130 O.3       1 FAD479      0.0000 
     48 C5'        62.5880   50.7870   21.6980 C.3       1 FAD479      0.0000 
     49 O5'        61.2670   49.8980   22.1190 O.3       1 FAD479      0.0000 
     50 P          59.9580   50.5430   22.8030 P.3       1 FAD479      0.0000 
     51 O1P        59.2010   49.3410   23.1980 O.co2     1 FAD479      0.0000 
     52 O2P        60.3660   51.5960   23.6840 O.co2     1 FAD479      0.0000 
     53 O3P        59.3000   51.1460   21.5670 O.3       1 FAD479      0.0000 
     54 H          56.7332   52.6383   19.9163 H         1 FAD479      0.0000 
     55 H          56.2020   52.0491   21.5008 H         1 FAD479      0.0000 
     56 H          54.9554   50.2658   20.1876 H         1 FAD479      0.0000 
     57 H          55.9532   51.7303   17.9726 H         1 FAD479      0.0000 
     58 H          54.4641   53.3738   18.1503 H         1 FAD479      0.0000 
     59 H          52.4460   51.4655   19.1483 H         1 FAD479      0.0000 
     60 H          53.8335   54.9599   19.7994 H         1 FAD479      0.0000 
     61 H          48.2130   56.4897   21.7365 H         1 FAD479      0.0000 
     62 H          49.8780   57.0870   21.4256 H         1 FAD479      0.0000 
     63 H          48.0440   52.2922   20.3707 H         1 FAD479      0.0000 
     64 H          70.4671   46.1093   18.9872 H         1 FAD479      0.0000 
     65 H          68.7703   50.2316   13.6885 H         1 FAD479      0.0000 
     66 H          66.0417   52.1947   17.1850 H         1 FAD479      0.0000 
     67 H          66.3865   51.8314   18.8144 H         1 FAD479      0.0000 
     68 H          67.3597   50.9811   20.0269 H         1 FAD479      0.0000 
     69 H          65.8948   49.0785   19.9329 H         1 FAD479      0.0000 
     70 H          64.2767   51.5882   19.8802 H         1 FAD479      0.0000 
     71 H          63.7555   49.0395   21.3374 H         1 FAD479      0.0000 
     72 H          62.2428   51.6284   21.1712 H         1 FAD479      0.0000 
     73 H          63.1134   51.0031   22.5823 H         1 FAD479      0.0000 
     74 H          68.1898   52.6182   12.4327 H         1 FAD479      0.0000 
     75 H          67.0406   51.5632   12.0422 H         1 FAD479      0.0000 
     76 H          66.6416   53.0060   12.6298 H         1 FAD479      0.0000 
     77 H          66.0909   54.2043   14.6001 H         1 FAD479      0.0000 
     78 H          64.9143   53.1743   14.2248 H         1 FAD479      0.0000 
     79 H          65.1139   53.6463   15.7491 H         1 FAD479      0.0000 
     80 H          53.7431   49.8853   18.0918 H         1 FAD479      0.0000 
     81 H          53.0068   51.2567   16.9348 H         1 FAD479      0.0000 
     82 H          65.2768   48.8665   17.8730 H         1 FAD479      0.0000 
     83 H          64.8165   51.7637   21.9719 H         1 FAD479      0.0000 
     84 H          63.2325   49.6137   18.8234 H         1 FAD479      0.0000 
@<TRIPOS>BOND
     1    2    1 ar   
     2    3    1 ar   
     3    4    1 1    
     4   53    1 1    
     5    5    4 1    
     6    6    5 1    
     7   54    5 1    
     8   55    5 1    
     9    7    6 1    
    10    8    6 1    
    11   56    6 1    
    12   12    7 1    
    13    9    8 1    
    14   10    8 1    
    15   57    8 1    
    16   80    9 1    
    17   11   10 1    
    18   12   10 1    
    19   58   10 1    
    20   81   11 1    
    21   13   12 1    
    22   59   12 1    
    23   14   13 1    
    24   22   13 1    
    25   15   14 2    
    26   60   14 1    
    27   16   15 1    
    28   17   16 ar   
    29   22   16 ar   
    30   18   17 1    
    31   19   17 ar   
    32   61   18 1    
    33   62   18 1    
    34   20   19 ar   
    35   21   20 ar   
    36   63   20 1    
    37   22   21 ar   
    38   24   23 1    
    39   40   23 2    
    40   25   24 2    
    41   26   24 am   
    42   27   26 am   
    43   64   26 1    
    44   28   27 2    
    45   29   27 1    
    46   30   29 2    
    47   40   29 1    
    48   31   30 1    
    49   32   31 ar   
    50   38   31 ar   
    51   33   32 ar   
    52   65   32 1    
    53   34   33 1    
    54   35   33 ar   
    55   74   34 1    
    56   75   34 1    
    57   76   34 1    
    58   36   35 1    
    59   37   35 ar   
    60   77   36 1    
    61   78   36 1    
    62   79   36 1    
    63   38   37 ar   
    64   66   37 1    
    65   39   38 1    
    66   40   39 1    
    67   41   39 1    
    68   42   41 1    
    69   67   41 1    
    70   68   41 1    
    71   43   42 1    
    72   44   42 1    
    73   69   42 1    
    74   82   43 1    
    75   45   44 1    
    76   46   44 1    
    77   70   44 1    
    78   83   45 1    
    79   47   46 1    
    80   48   46 1    
    81   71   46 1    
    82   84   47 1    
    83   49   48 1    
    84   72   48 1    
    85   73   48 1    
    86   50   49 1    
    87   51   50 ar   
    88   52   50 ar   
    89   53   50 1    
@<TRIPOS>SUBSTRUCTURE
     1 FAD479      1 GROUP   
@<TRIPOS>SET

