#    Name: 3cgb_FAD_3_INTS_M
#    Modification time : Mon Mar 24 21:11:19 2014

@<TRIPOS>MOLECULE
3cgb_FAD_3_INTS_M
  124     0    12     0     0
SMALL
NO_CHARGES


@<TRIPOS>ATOM
      1 NZ         50.2715   35.0005   74.3005 N.4       3 LYC4        0.0000 
      2 NZ         51.0690   33.2790   74.6900 N.4      11 LYL4        0.0000 
      3 NZ         49.4740   36.7220   73.9110 N.4       7 LYP4        0.0000 
      4 N          49.5700   33.2745   74.1455 N.am      2 SEC2        0.0000 
      5 N          51.0690   33.2790   74.6900 N.am     10 SEL2        0.0000 
      6 N          48.0710   33.2700   73.6010 N.am      6 SEP2        0.0000 
      7 CA         53.6030   32.6555   75.8675 C.3       4 GLC5        0.0000 
      8 CA         52.5700   30.9470   75.8840 C.3      12 GLL5        0.0000 
      9 CA         54.6360   34.3640   75.8510 C.3       8 GLP5        0.0000 
     10 CA         53.3705   28.3890   76.9880 C.3       4 GLC5        0.0000 
     11 CA         52.0680   29.7860   76.7200 C.3      12 GLL5        0.0000 
     12 CA         54.6730   26.9920   77.2560 C.3       8 GLP5        0.0000 
     13 O          50.3015   27.7150   77.2060 O.2       1 ALC1        0.0000 
     14 O          49.8790   28.9330   76.6510 O.2       9 ALL1        0.0000 
     15 O          50.7240   26.4970   77.7610 O.2       5 ALP1        0.0000 
     16 CA         50.1995   30.2620   80.8740 C.3       4 GLC5        0.0000 
     17 CA         50.7150   30.0440   78.7470 C.3      12 GLL5        0.0000 
     18 CA         49.6840   30.4800   83.0010 C.3       8 GLP5        0.0000 
     19 O          50.1875   27.9005   78.5680 O.2       1 ALC1        0.0000 
     20 O          49.6510   29.3040   79.3750 O.2       9 ALL1        0.0000 
     21 O          49.2905   28.1135   79.1555 O.2       1 ALC1        0.0000 
     22 O          48.9300   26.9230   78.9360 O.2       5 ALP1        0.0000 
     23 CA         53.3520   28.1700   78.1430 C.3       4 GLC5        0.0000 
     24 CA         52.0310   29.3480   79.0300 C.3      12 GLL5        0.0000 
     25 CA         53.9260   30.3750   78.4955 C.3       4 GLC5        0.0000 
     26 CA         55.8210   31.4020   77.9610 C.3       8 GLP5        0.0000 
     27 CA         53.5635   28.6460   85.1130 C.3       4 GLC5        0.0000 
     28 CA         54.4350   28.9440   83.2410 C.3      12 GLL5        0.0000 
     29 CA         52.6920   28.3480   86.9850 C.3       8 GLP5        0.0000 
     30 CA         55.9880   27.6725   84.1690 C.3       4 GLC5        0.0000 
     31 CA         57.5410   26.4010   85.0970 C.3       8 GLP5        0.0000 
     32 O          55.7185   29.1240   85.5785 O.2       1 ALC1        0.0000 
     33 O          55.0800   29.6040   84.2420 O.2       9 ALL1        0.0000 
     34 O          56.3570   28.6440   86.9150 O.2       5 ALP1        0.0000 
     35 N          54.7925   26.9400   84.5735 N.am      2 SEC2        0.0000 
     36 N          54.3810   27.5920   83.2710 N.am     10 SEL2        0.0000 
     37 N          55.2040   26.2880   85.8760 N.am      6 SEP2        0.0000 
     38 CA         55.5155   26.9355   81.7645 C.3       4 GLC5        0.0000 
     39 CA         53.7620   26.9160   82.2990 C.3      12 GLL5        0.0000 
     40 CA         57.2690   26.9550   81.2300 C.3       8 GLP5        0.0000 
     41 CA         52.7000   25.5735   81.1490 C.3       4 GLC5        0.0000 
     42 CA         51.6380   24.2310   79.9990 C.3       8 GLP5        0.0000 
     43 CA         51.9385   27.2840   82.6090 C.3       4 GLC5        0.0000 
     44 CA         50.1150   27.6520   82.9190 C.3       8 GLP5        0.0000 
     45 CA         53.2865   26.4555   84.1955 C.3       4 GLC5        0.0000 
     46 CA         52.8110   25.9950   86.0920 C.3       8 GLP5        0.0000 
     47 CA         55.5530   26.0325   83.2710 C.3       4 GLC5        0.0000 
     48 CA         57.3440   25.1490   84.2430 C.3       8 GLP5        0.0000 
     49 N          51.9020   26.6300   81.4400 N.am      2 SEC2        0.0000 
     50 N          53.1870   27.5380   81.2650 N.am     10 SEL2        0.0000 
     51 N          50.6170   25.7220   81.6150 N.am      6 SEP2        0.0000 
     52 CA         51.6715   28.2730   82.0485 C.3       4 GLC5        0.0000 
     53 CA         53.2280   28.8940   81.1780 C.3      12 GLL5        0.0000 
     54 N          51.0510   37.0095   66.2230 N.am      2 SEC2        0.0000 
     55 N          49.6370   37.6250   66.0420 N.am     10 SEL2        0.0000 
     56 N          52.4650   36.3940   66.4040 N.am      6 SEP2        0.0000 
     57 N          51.6095   36.9355   65.2485 N.am      2 SEC2        0.0000 
     58 N          50.7540   37.4770   64.0930 N.am     10 SEL2        0.0000 
     59 O          48.6710   38.6525   62.5845 O.2       1 ALC1        0.0000 
     60 O          48.6370   38.2120   64.0140 O.2       9 ALL1        0.0000 
     61 O          48.7050   39.0930   61.1550 O.2       5 ALP1        0.0000 
     62 CA         44.9825   40.5940   69.6915 C.3       4 GLC5        0.0000 
     63 CA         44.8630   38.8080   68.6500 C.3      12 GLL5        0.0000 
     64 CA         45.1020   42.3800   70.7330 C.3       8 GLP5        0.0000 
     65 CA         41.8210   39.1815   69.5235 C.3       4 GLC5        0.0000 
     66 CA         43.4030   38.9670   70.7100 C.3      12 GLL5        0.0000 
     67 CA         40.2390   39.3960   68.3370 C.3       8 GLP5        0.0000 
     68 CA         41.7095   39.2105   71.7085 C.3       4 GLC5        0.0000 
     69 CA         40.0160   39.4540   72.7070 C.3       8 GLP5        0.0000 
     70 CA         46.5520   37.3185   73.8090 C.3       4 GLC5        0.0000 
     71 CA         45.7010   38.0130   72.2830 C.3      12 GLL5        0.0000 
     72 CA         47.4030   36.6240   75.3350 C.3       8 GLP5        0.0000 
     73 CA         45.7605   36.8740   67.7585 C.3       4 GLC5        0.0000 
     74 CA         47.1680   38.0480   68.7600 C.3      12 GLL5        0.0000 
     75 CA         44.3530   35.7000   66.7570 C.3       8 GLP5        0.0000 
     76 CA         51.4800   37.8680   68.0580 C.3       4 GLC5        0.0000 
     77 CA         49.6020   37.2760   68.8690 C.3      12 GLL5        0.0000 
     78 CA         53.3580   38.4600   67.2470 C.3       8 GLP5        0.0000 
     79 CA         49.2580   34.8245   67.3575 C.3       4 GLC5        0.0000 
     80 CA         49.9190   35.8150   68.7900 C.3      12 GLL5        0.0000 
     81 CA         48.5970   33.8340   65.9250 C.3       8 GLP5        0.0000 
     82 O          53.4085   36.6070   70.1710 O.2       1 ALC1        0.0000 
     83 O          52.1400   36.3480   69.4460 O.2       9 ALL1        0.0000 
     84 O          54.6770   36.8660   70.8960 O.2       5 ALP1        0.0000 
     85 O          52.5285   36.6415   70.8290 O.2       1 ALC1        0.0000 
     86 O          52.9170   36.9350   72.2120 O.2       5 ALP1        0.0000 
     87 CA         50.5965   32.9010   68.2405 C.3       4 GLC5        0.0000 
     88 CA         51.4490   34.1170   69.8510 C.3      12 GLL5        0.0000 
     89 CA         49.7440   31.6850   66.6300 C.3       8 GLP5        0.0000 
     90 CA         53.8740   35.4085   71.9570 C.3       4 GLC5        0.0000 
     91 CA         52.7160   34.0600   70.6720 C.3      12 GLL5        0.0000 
     92 CA         55.0320   36.7570   73.2420 C.3       8 GLP5        0.0000 
     93 N          54.6375   29.9280   71.0115 N.am      2 SEC2        0.0000 
     94 N          54.0820   30.7670   72.0850 N.am     10 SEL2        0.0000 
     95 N          55.1930   29.0890   69.9380 N.am      6 SEP2        0.0000 
     96 N          56.0475   34.2460   72.2220 N.am      2 SEC2        0.0000 
     97 N          55.2360   33.0630   72.2150 N.am     10 SEL2        0.0000 
     98 N          56.8590   35.4290   72.2290 N.am      6 SEP2        0.0000 
     99 CA         51.5895   29.4532   74.4890 C.3       4 GLC5        0.0000 
    100 CA         50.8600   28.5400   72.6760 C.3       8 GLP5        0.0000 
    101 CA         54.0700   30.8843   77.1315 C.3       4 GLC5        0.0000 
    102 CA         52.1707   29.4875   83.4440 C.3       4 GLC5        0.0000 
    103 CA         50.1930   29.6890   84.1890 C.3       8 GLP5        0.0000 
    104 CA         55.4786   28.0225   81.5842 C.3       4 GLC5        0.0000 
    105 CA         53.8620   29.6280   82.1570 C.3      12 GLL5        0.0000 
    106 CA         55.1921   29.6365   80.9772 C.3       4 GLC5        0.0000 
    107 CA         56.6960   30.1830   80.0160 C.3       8 GLP5        0.0000 
    108 CA         44.7234   37.1754   67.9691 C.3       4 GLC5        0.0000 
    109 CA         46.0800   38.5050   68.0090 C.3      12 GLL5        0.0000 
    110 CA         44.8803   40.2120   71.1388 C.3       4 GLC5        0.0000 
    111 CA         44.7160   38.6450   70.0330 C.3      12 GLL5        0.0000 
    112 CA         45.7010   41.6180   71.9060 C.3       8 GLP5        0.0000 
    113 CA         45.8580   36.1570   71.1118 C.3       4 GLC5        0.0000 
    114 CA         45.7950   38.1950   70.7800 C.3      12 GLL5        0.0000 
    115 CA         45.9680   34.2100   70.6920 C.3       8 GLP5        0.0000 
    116 CA         46.5265   36.0930   70.0695 C.3       4 GLC5        0.0000 
    117 CA         47.0020   37.9040   70.1340 C.3      12 GLL5        0.0000 
    118 CA         46.0380   39.8110   71.3694 C.3       4 GLC5        0.0000 
    119 CA         52.3992   32.1217   69.3642 C.3       4 GLC5        0.0000 
    120 CA         52.7160   30.1550   68.4670 C.3       8 GLP5        0.0000 
    121 CA         51.6906   34.9276   67.8762 C.3       4 GLC5        0.0000 
    122 CA         52.4290   34.9500   66.1780 C.3       8 GLP5        0.0000 
    123 CA         53.7322   33.6707   69.3208 C.3       4 GLC5        0.0000 
    124 CA         55.3820   33.2530   68.3800 C.3       8 GLP5        0.0000 
@<TRIPOS>BOND
@<TRIPOS>SUBSTRUCTURE
     1 ALC1       13 GROUP        1 X    ALC  0     ROOT ALC X 1
     2 SEC2        4 GROUP        1 X    SEC  0     **** SEC X 2
     3 LYC4        1 GROUP        1 X    LYC  0     **** LYC X 4
     4 GLC5        7 GROUP        1 X    GLC  0     **** GLC X 6
     5 ALP1       15 GROUP        1 Y    ALP  0     ROOT ALP Y 8
     6 SEP2        6 GROUP        1 Y    SEP  0     **** SEP Y 9
     7 LYP4        3 GROUP        1 Y    LYP  0     **** LYP Y 11
     8 GLP5        9 GROUP        1 Y    GLP  0     **** GLP Y 13
     9 ALL1       14 GROUP        1 Z    ALL  0     ROOT ALL Z 15
    10 SEL2        5 GROUP        1 Z    SEL  0     **** SEL Z 16
    11 LYL4        2 GROUP        1 Z    LYL  0     **** LYL Z 18
    12 GLL5        8 GROUP        1 Z    GLL  0     **** GLL Z 20
@<TRIPOS>SET

