#    Name: 3cgb_FAD_3_ligand
#    Modification time : Mon Mar 24 21:11:19 2014

@<TRIPOS>MOLECULE
3cgb_FAD_3_ligand
   84    89     1     0     0
SMALL
NO_CHARGES


@<TRIPOS>ATOM
      1 PA         51.6140   32.2060   73.8090 P.3       1 FAD446      0.0000 
      2 O1A        51.0690   33.2790   74.6900 O.co2     1 FAD446      0.0000 
      3 O2A        50.8640   31.8130   72.5780 O.co2     1 FAD446      0.0000 
      4 O5B        51.9130   30.8750   74.6290 O.3       1 FAD446      0.0000 
      5 C5B        52.5700   30.9470   75.8840 C.3       1 FAD446      0.0000 
      6 C4B        52.0680   29.7860   76.7200 C.3       1 FAD446      0.0000 
      7 O4B        52.8530   29.6670   77.8970 O.3       1 FAD446      0.0000 
      8 C3B        50.6530   30.0180   77.2100 C.3       1 FAD446      0.0000 
      9 O3B        49.8790   28.9330   76.6510 O.3       1 FAD446      0.0000 
     10 C2B        50.7150   30.0440   78.7470 C.3       1 FAD446      0.0000 
     11 O2B        49.6510   29.3040   79.3750 O.3       1 FAD446      0.0000 
     12 C1B        52.0310   29.3480   79.0300 C.3       1 FAD446      0.0000 
     13 N9A        52.7390   29.7460   80.2740 N.pl3     1 FAD446      0.0000 
     14 C8A        53.0660   31.0010   80.6570 C.2       1 FAD446      0.0000 
     15 N7A        53.7530   30.9460   81.8180 N.2       1 FAD446      0.0000 
     16 C5A        53.8620   29.6280   82.1570 C.ar      1 FAD446      0.0000 
     17 C6A        54.4350   28.9440   83.2410 C.ar      1 FAD446      0.0000 
     18 N6A        55.0800   29.6040   84.2420 N.pl3     1 FAD446      0.0000 
     19 N1A        54.3810   27.5920   83.2710 N.ar      1 FAD446      0.0000 
     20 C2A        53.7620   26.9160   82.2990 C.ar      1 FAD446      0.0000 
     21 N3A        53.1870   27.5380   81.2650 N.ar      1 FAD446      0.0000 
     22 C4A        53.2280   28.8940   81.1780 C.ar      1 FAD446      0.0000 
     23 N1         49.6370   37.6250   66.0420 N.2       1 FAD446      0.0000 
     24 C2         49.7040   37.7620   64.7060 C.2       1 FAD446      0.0000 
     25 O2         50.7540   37.4770   64.0930 O.2       1 FAD446      0.0000 
     26 N3         48.6370   38.2120   64.0140 N.am      1 FAD446      0.0000 
     27 C4         47.4730   38.5080   64.6210 C.2       1 FAD446      0.0000 
     28 O4         46.5020   38.9120   63.9220 O.2       1 FAD446      0.0000 
     29 C4X        47.3700   38.3700   66.0060 C.2       1 FAD446      0.0000 
     30 N5         46.2010   38.6650   66.6600 N.2       1 FAD446      0.0000 
     31 C5X        46.0800   38.5050   68.0090 C.ar      1 FAD446      0.0000 
     32 C6         44.8630   38.8080   68.6500 C.ar      1 FAD446      0.0000 
     33 C7         44.7160   38.6450   70.0330 C.ar      1 FAD446      0.0000 
     34 C7M        43.4030   38.9670   70.7100 C.3       1 FAD446      0.0000 
     35 C8         45.7950   38.1950   70.7800 C.ar      1 FAD446      0.0000 
     36 C8M        45.7010   38.0130   72.2830 C.3       1 FAD446      0.0000 
     37 C9         47.0020   37.9040   70.1340 C.ar      1 FAD446      0.0000 
     38 C9A        47.1680   38.0480   68.7600 C.ar      1 FAD446      0.0000 
     39 N10        48.4050   37.7090   68.1160 N.pl3     1 FAD446      0.0000 
     40 C10        48.4920   37.8940   66.7100 C.2       1 FAD446      0.0000 
     41 C1'        49.6020   37.2760   68.8690 C.3       1 FAD446      0.0000 
     42 C2'        49.9190   35.8150   68.7900 C.3       1 FAD446      0.0000 
     43 O2'        48.7300   35.1830   69.2290 O.3       1 FAD446      0.0000 
     44 C3'        50.9920   35.5720   69.8060 C.3       1 FAD446      0.0000 
     45 O3'        52.1400   36.3480   69.4460 O.3       1 FAD446      0.0000 
     46 C4'        51.4490   34.1170   69.8510 C.3       1 FAD446      0.0000 
     47 O4'        50.4030   33.3770   70.4940 O.3       1 FAD446      0.0000 
     48 C5'        52.7160   34.0600   70.6720 C.3       1 FAD446      0.0000 
     49 O5'        53.0780   32.6890   70.8620 O.3       1 FAD446      0.0000 
     50 P          53.9410   32.3040   72.1080 P.3       1 FAD446      0.0000 
     51 O1P        54.0820   30.7670   72.0850 O.co2     1 FAD446      0.0000 
     52 O2P        55.2360   33.0630   72.2150 O.co2     1 FAD446      0.0000 
     53 O3P        53.0910   32.7090   73.4000 O.3       1 FAD446      0.0000 
     54 H          52.3411   31.8695   76.4138 H         1 FAD446      0.0000 
     55 H          53.6497   30.8524   75.7871 H         1 FAD446      0.0000 
     56 H          52.0896   28.8882   76.1468 H         1 FAD446      0.0000 
     57 H          50.3369   30.9671   76.8496 H         1 FAD446      0.0000 
     58 H          50.7932   31.0439   79.0666 H         1 FAD446      0.0000 
     59 H          51.8480   28.2750   79.0301 H         1 FAD446      0.0000 
     60 H          52.8420   31.8114   80.1735 H         1 FAD446      0.0000 
     61 H          55.4841   29.0330   84.9566 H         1 FAD446      0.0000 
     62 H          55.0928   30.6016   84.1744 H         1 FAD446      0.0000 
     63 H          53.7258   25.8594   82.3488 H         1 FAD446      0.0000 
     64 H          48.7186   38.3346   62.9698 H         1 FAD446      0.0000 
     65 H          44.0705   39.1548   68.0894 H         1 FAD446      0.0000 
     66 H          47.8064   37.5662   70.7079 H         1 FAD446      0.0000 
     67 H          49.4853   37.5585   69.9442 H         1 FAD446      0.0000 
     68 H          50.4910   37.8540   68.5154 H         1 FAD446      0.0000 
     69 H          50.2159   35.5566   67.8454 H         1 FAD446      0.0000 
     70 H          50.6439   35.8509   70.7810 H         1 FAD446      0.0000 
     71 H          51.6349   33.7887   68.8681 H         1 FAD446      0.0000 
     72 H          52.5307   34.5624   71.6250 H         1 FAD446      0.0000 
     73 H          53.4955   34.6113   70.1395 H         1 FAD446      0.0000 
     74 H          43.4439   38.8049   71.6959 H         1 FAD446      0.0000 
     75 H          43.1434   39.9241   70.5808 H         1 FAD446      0.0000 
     76 H          42.6540   38.4093   70.3521 H         1 FAD446      0.0000 
     77 H          46.5603   37.6800   72.6712 H         1 FAD446      0.0000 
     78 H          45.4823   38.8709   72.7480 H         1 FAD446      0.0000 
     79 H          44.9914   37.3545   72.5337 H         1 FAD446      0.0000 
     80 H          50.3585   28.1016   76.9319 H         1 FAD446      0.0000 
     81 H          49.6523   28.4132   78.9207 H         1 FAD446      0.0000 
     82 H          49.0374   34.4179   69.7948 H         1 FAD446      0.0000 
     83 H          52.5180   36.6689   70.3144 H         1 FAD446      0.0000 
     84 H          50.8575   32.8693   71.2259 H         1 FAD446      0.0000 
@<TRIPOS>BOND
     1    2    1 ar   
     2    3    1 ar   
     3    4    1 1    
     4   53    1 1    
     5    5    4 1    
     6    6    5 1    
     7   54    5 1    
     8   55    5 1    
     9    7    6 1    
    10    8    6 1    
    11   56    6 1    
    12   12    7 1    
    13    9    8 1    
    14   10    8 1    
    15   57    8 1    
    16   80    9 1    
    17   11   10 1    
    18   12   10 1    
    19   58   10 1    
    20   81   11 1    
    21   13   12 1    
    22   59   12 1    
    23   14   13 1    
    24   22   13 1    
    25   15   14 2    
    26   60   14 1    
    27   16   15 1    
    28   17   16 ar   
    29   22   16 ar   
    30   18   17 1    
    31   19   17 ar   
    32   61   18 1    
    33   62   18 1    
    34   20   19 ar   
    35   21   20 ar   
    36   63   20 1    
    37   22   21 ar   
    38   24   23 1    
    39   40   23 2    
    40   25   24 2    
    41   26   24 am   
    42   27   26 am   
    43   64   26 1    
    44   28   27 2    
    45   29   27 1    
    46   30   29 2    
    47   40   29 1    
    48   31   30 1    
    49   32   31 ar   
    50   38   31 ar   
    51   33   32 ar   
    52   65   32 1    
    53   34   33 1    
    54   35   33 ar   
    55   74   34 1    
    56   75   34 1    
    57   76   34 1    
    58   36   35 1    
    59   37   35 ar   
    60   77   36 1    
    61   78   36 1    
    62   79   36 1    
    63   38   37 ar   
    64   66   37 1    
    65   39   38 1    
    66   40   39 1    
    67   41   39 1    
    68   42   41 1    
    69   67   41 1    
    70   68   41 1    
    71   43   42 1    
    72   44   42 1    
    73   69   42 1    
    74   82   43 1    
    75   45   44 1    
    76   46   44 1    
    77   70   44 1    
    78   83   45 1    
    79   47   46 1    
    80   48   46 1    
    81   71   46 1    
    82   84   47 1    
    83   49   48 1    
    84   72   48 1    
    85   73   48 1    
    86   50   49 1    
    87   51   50 ar   
    88   52   50 ar   
    89   53   50 1    
@<TRIPOS>SUBSTRUCTURE
     1 FAD446      1 GROUP   
@<TRIPOS>SET

