#    Name: 2W2V_2_CAVITY_N1_ALL.mol2
#    Modification time : Mon Mar 10 18:35:54 2014

@<TRIPOS>MOLECULE
2W2V_2_CAVITY_N1_ALL.mol2
   61     0     6     0     0
SMALL
NO_CHARGES


@<TRIPOS>ATOM
      1 CZ        -15.7959   -2.1782   29.9778 C.ar      4 PHE5        0.0000 
      2 OG        -14.7625   -2.5380   28.9518 O.2       1 SER1        0.0000 
      3 CA        -12.6958   -3.2575   26.8997 C.3       5 GLY6        0.0000 
      4 O         -11.6625   -3.6172   25.8736 O.2       2 ALA2        0.0000 
      5 CZ        -15.8213   -3.1928   28.1150 C.ar      4 PHE5        0.0000 
      6 OG        -14.7880   -3.5525   27.0890 O.2       1 SER1        0.0000 
      7 OG        -13.7546   -3.9123   26.0629 O.2       1 SER1        0.0000 
      8 CA        -12.7213   -4.2720   25.0369 C.3       5 GLY6        0.0000 
      9 O         -17.9135   -3.4879   28.3043 O.2       2 ALA2        0.0000 
     10 CA        -16.8801   -3.8476   27.2783 C.3       5 GLY6        0.0000 
     11 O         -15.8468   -4.2074   26.2522 O.2       2 ALA2        0.0000 
     12 O         -14.8134   -4.5671   25.2262 O.2       2 ALA2        0.0000 
     13 CA        -13.7801   -4.9269   24.2002 C.3       5 GLY6        0.0000 
     14 N         -15.5487   -3.4789   30.6829 N.2       2 ALA2        0.0000 
     15 N         -14.5153   -3.8386   29.6568 N.2       2 ALA2        0.0000 
     16 OG        -13.4819   -4.1984   28.6308 O.2       1 SER1        0.0000 
     17 CA        -12.4486   -4.5581   27.6047 C.3       5 GLY6        0.0000 
     18 CA        -11.4152   -4.9179   26.5787 C.3       5 GLY6        0.0000 
     19 CA        -10.3819   -5.2776   25.5527 C.3       5 GLY6        0.0000 
     20 CZ        -17.6408   -3.7740   30.8721 C.ar      4 PHE5        0.0000 
     21 CZ        -16.6074   -4.1337   29.8461 C.ar      4 PHE5        0.0000 
     22 DU        -15.5741   -4.4935   28.8201 H         6 CUB7        0.0000 
     23 DU        -14.5407   -4.8532   27.7940 H         6 CUB7        0.0000 
     24 DU        -13.5074   -5.2130   26.7680 H         6 CUB7        0.0000 
     25 DU        -12.4740   -5.5727   25.7420 H         6 CUB7        0.0000 
     26 CA        -11.4407   -5.9325   24.7159 C.3       5 GLY6        0.0000 
     27 O         -18.6996   -4.4288   30.0354 O.2       2 ALA2        0.0000 
     28 O         -17.6662   -4.7886   29.0094 O.2       2 ALA2        0.0000 
     29 CA        -16.6329   -5.1483   27.9833 C.3       5 GLY6        0.0000 
     30 CA        -15.5995   -5.5081   26.9573 C.3       5 GLY6        0.0000 
     31 CA        -14.5662   -5.8678   25.9312 C.3       5 GLY6        0.0000 
     32 CA        -13.5328   -6.2276   24.9052 C.3       5 GLY6        0.0000 
     33 CA        -12.4995   -6.5873   23.8792 C.3       5 GLY6        0.0000 
     34 CA        -14.0208   -6.4400   31.0669 C.3       5 GLY6        0.0000 
     35 CA        -12.9875   -6.7997   30.0409 C.3       5 GLY6        0.0000 
     36 CA        -11.9541   -7.1595   29.0148 C.3       5 GLY6        0.0000 
     37 DU        -14.0462   -7.4546   29.2041 H         6 CUB7        0.0000 
     38 CA        -13.0129   -7.8143   28.1781 C.3       5 GLY6        0.0000 
     39 CA        -11.9795   -8.1741   27.1521 C.3       5 GLY6        0.0000 
     40 OG        -15.0098   -1.2373   28.2467 O.2       1 SER1        0.0000 
     41 CZ        -16.0686   -1.8921   27.4100 C.ar      4 PHE5        0.0000 
     42 OG        -15.0352   -2.2519   26.3839 O.2       1 SER1        0.0000 
     43 O         -14.0019   -2.6116   25.3579 O.2       2 ALA2        0.0000 
     44 OD1       -17.1274   -2.5469   26.5732 O.3       3 ASP3        0.0000 
     45 OD1       -16.0940   -2.9067   25.5472 O.3       3 ASP3        0.0000 
     46 O         -15.0607   -3.2664   24.5211 O.2       2 ALA2        0.0000 
     47 CA        -15.3014   -4.7796   31.3879 C.3       5 GLY6        0.0000 
     48 N         -14.2681   -5.1393   30.3619 N.2       2 ALA2        0.0000 
     49 CA        -13.2347   -5.4991   29.3358 C.3       5 GLY6        0.0000 
     50 CA        -12.2013   -5.8588   28.3098 C.3       5 GLY6        0.0000 
     51 CA        -11.1680   -6.2186   27.2838 C.3       5 GLY6        0.0000 
     52 CA        -10.1346   -6.5783   26.2577 C.3       5 GLY6        0.0000 
     53 DU        -16.3602   -5.4344   30.5512 H         6 CUB7        0.0000 
     54 DU        -15.3268   -5.7941   29.5251 H         6 CUB7        0.0000 
     55 DU        -14.2935   -6.1539   28.4991 H         6 CUB7        0.0000 
     56 CA        -13.2601   -6.5136   27.4730 C.3       5 GLY6        0.0000 
     57 CA        -12.2268   -6.8734   26.4470 C.3       5 GLY6        0.0000 
     58 CA        -11.1934   -7.2331   25.4210 C.3       5 GLY6        0.0000 
     59 DU        -15.3523   -6.8087   27.6623 H         6 CUB7        0.0000 
     60 DU        -14.3189   -7.1685   26.6363 H         6 CUB7        0.0000 
     61 CA        -13.2856   -7.5282   25.6103 C.3       5 GLY6        0.0000 
@<TRIPOS>BOND
@<TRIPOS>SUBSTRUCTURE
     1 SER1        2 GROUP   
     2 ALA2        4 GROUP   
     3 ASP3       44 GROUP   
     4 PHE5        1 GROUP   
     5 GLY6        3 GROUP   
     6 CUB7       22 GROUP   
@<TRIPOS>SET

