#    Name: 2w2v_GTP_2_INTS_M
#    Modification time : Tue Mar 25 03:32:43 2014

@<TRIPOS>MOLECULE
2w2v_GTP_2_INTS_M
   68     0    12     0     0
SMALL
NO_CHARGES


@<TRIPOS>ATOM
      1 N         -13.2550   -1.8730   28.2685 N.am      2 SEC2        0.0000 
      2 N         -14.1170   -2.8390   28.2740 N.am     10 SEL2        0.0000 
      3 N         -12.3930   -0.9070   28.2630 N.am      6 SEP2        0.0000 
      4 NZ        -16.3150   -1.8290   25.0905 N.4       3 LYC4        0.0000 
      5 NZ        -16.0720   -2.7900   26.7730 N.4      11 LYL4        0.0000 
      6 NZ        -16.5580   -0.8680   23.4080 N.4       7 LYP4        0.0000 
      7 N         -12.4720   -1.7490   25.6545 N.am      2 SEC2        0.0000 
      8 N         -13.7230   -2.6740   25.7820 N.am     10 SEL2        0.0000 
      9 N         -11.2210   -0.8240   25.5270 N.am      6 SEP2        0.0000 
     10 NZ        -15.6735   -1.9020   23.4475 N.4       3 LYC4        0.0000 
     11 NZ        -14.7890   -2.9360   23.4870 N.4      11 LYL4        0.0000 
     12 N         -15.6115   -4.2005   23.2430 N.am      2 SEC2        0.0000 
     13 N         -14.7890   -2.9360   23.4870 N.am     10 SEL2        0.0000 
     14 N         -16.4340   -5.4650   22.9990 N.am      6 SEP2        0.0000 
     15 N         -14.7290   -3.9195   22.2005 N.am      2 SEC2        0.0000 
     16 N         -14.6690   -4.9030   20.9140 N.am      6 SEP2        0.0000 
     17 N         -13.5305   -3.4990   22.5005 N.am      2 SEC2        0.0000 
     18 N         -12.2720   -4.0620   21.5140 N.am      6 SEP2        0.0000 
     19 N         -13.3465   -2.3020   23.1820 N.am      2 SEC2        0.0000 
     20 N         -11.9040   -1.6680   22.8770 N.am      6 SEP2        0.0000 
     21 N         -15.6735   -1.9020   23.4475 N.am      2 SEC2        0.0000 
     22 N         -16.5580   -0.8680   23.4080 N.am      6 SEP2        0.0000 
     23 N         -15.8515   -5.0640   24.1195 N.am      2 SEC2        0.0000 
     24 N         -15.2690   -4.6630   25.2400 N.am     10 SEL2        0.0000 
     25 N         -12.5855   -4.2595   22.8770 N.am      2 SEC2        0.0000 
     26 N         -12.8990   -4.4570   24.2400 N.am     10 SEL2        0.0000 
     27 N          -9.7250   -3.1005   25.7315 N.am      2 SEC2        0.0000 
     28 N         -10.6690   -3.9650   25.3930 N.am     10 SEL2        0.0000 
     29 N          -8.7810   -2.2360   26.0700 N.am      6 SEP2        0.0000 
     30 CA        -13.7905   -6.8095   23.3760 C.3       4 GLC5        0.0000 
     31 CA        -12.1670   -7.1680   24.1040 C.3      12 GLL5        0.0000 
     32 CA        -15.4140   -6.4510   22.6480 C.3       8 GLP5        0.0000 
     33 CA        -11.5690   -5.4635   23.0930 C.3       4 GLC5        0.0000 
     34 CA        -10.9710   -3.7590   22.0820 C.3       8 GLP5        0.0000 
     35 CA        -11.1885   -8.0655   21.7750 C.3       4 GLC5        0.0000 
     36 CA        -11.4460   -8.4980   23.9340 C.3      12 GLL5        0.0000 
     37 CA        -10.9310   -7.6330   19.6160 C.3       8 GLP5        0.0000 
     38 N         -11.2490   -8.5865   21.4010 N.am      2 SEC2        0.0000 
     39 N         -10.7090   -8.4090   22.7360 N.am     10 SEL2        0.0000 
     40 N         -11.7890   -8.7640   20.0660 N.am      6 SEP2        0.0000 
     41 CA         -7.0795   -8.3510   24.2800 C.3       4 GLC5        0.0000 
     42 CA         -9.0900   -8.8520   24.3920 C.3      12 GLL5        0.0000 
     43 CA         -5.0690   -7.8500   24.1680 C.3       8 GLP5        0.0000 
     44 CA        -10.1450   -8.2115   21.2560 C.3       4 GLC5        0.0000 
     45 CA         -9.3590   -8.7900   22.8960 C.3      12 GLL5        0.0000 
     46 CA         -8.0415   -6.8340   19.5310 C.3       4 GLC5        0.0000 
     47 CA         -6.9260   -6.7870   21.0440 C.3      12 GLL5        0.0000 
     48 CA         -9.1570   -6.8810   18.0180 C.3       8 GLP5        0.0000 
     49 CA         -5.8630   -5.0230   21.5055 C.3       4 GLC5        0.0000 
     50 CA         -4.8000   -3.2590   21.9670 C.3       8 GLP5        0.0000 
     51 N          -4.5700   -4.5680   19.7950 N.am      2 SEC2        0.0000 
     52 N          -5.3530   -5.6700   19.8390 N.am     10 SEL2        0.0000 
     53 N          -3.7870   -3.4660   19.7510 N.am      6 SEP2        0.0000 
     54 N          -3.9530   -5.5610   20.4855 N.am      2 SEC2        0.0000 
     55 N          -2.5530   -5.4520   21.1320 N.am      6 SEP2        0.0000 
     56 O          -4.5790   -7.7455   18.6170 O.2       1 ALC1        0.0000 
     57 O          -5.2730   -7.9300   19.7490 O.2       9 ALL1        0.0000 
     58 O          -3.8850   -7.5610   17.4850 O.2       5 ALP1        0.0000 
     59 O          -4.5395   -8.8415   18.6725 O.2       1 ALC1        0.0000 
     60 O          -3.8060   -9.7530   17.5960 O.2       5 ALP1        0.0000 
     61 O          -4.5445  -10.0155   18.6595 O.2       1 ALC1        0.0000 
     62 O          -5.2830  -10.2780   19.7230 O.2       9 ALL1        0.0000 
     63 CA         -9.1900   -7.8230   20.5245 C.3       4 GLC5        0.0000 
     64 CA         -7.4490   -8.0130   21.4330 C.3      12 GLL5        0.0000 
     65 CA         -8.8235   -7.1227   25.3993 C.3       4 GLC5        0.0000 
     66 CA         -7.8780   -5.4530   26.0740 C.3       8 GLP5        0.0000 
     67 CA         -9.6485   -8.4013   26.5547 C.3       4 GLC5        0.0000 
     68 CA         -9.5280   -8.0100   28.3850 C.3       8 GLP5        0.0000 
@<TRIPOS>BOND
@<TRIPOS>SUBSTRUCTURE
     1 ALC1       56 GROUP        1 X    ALC  0     ROOT ALC X 1
     2 SEC2        1 GROUP        1 X    SEC  0     **** SEC X 2
     3 LYC4        4 GROUP        1 X    LYC  0     **** LYC X 4
     4 GLC5       30 GROUP        1 X    GLC  0     **** GLC X 6
     5 ALP1       58 GROUP        1 Y    ALP  0     ROOT ALP Y 8
     6 SEP2        3 GROUP        1 Y    SEP  0     **** SEP Y 9
     7 LYP4        6 GROUP        1 Y    LYP  0     **** LYP Y 11
     8 GLP5       32 GROUP        1 Y    GLP  0     **** GLP Y 13
     9 ALL1       57 GROUP        1 Z    ALL  0     ROOT ALL Z 15
    10 SEL2        2 GROUP        1 Z    SEL  0     **** SEL Z 16
    11 LYL4        5 GROUP        1 Z    LYL  0     **** LYL Z 18
    12 GLL5       31 GROUP        1 Z    GLL  0     **** GLL Z 20
@<TRIPOS>SET

