#    Name: 2w2v_GTP_2_ligand
#    Modification time : Tue Mar 25 03:32:43 2014

@<TRIPOS>MOLECULE
2w2v_GTP_2_ligand
   44    46     1     0     0
SMALL
NO_CHARGES


@<TRIPOS>ATOM
      1 PG        -14.6780   -2.2410   27.0040 P.3       1 GTP500      0.0000 
      2 O1G       -14.1170   -2.8390   28.2740 O.co2     1 GTP500      0.0000 
      3 O2G       -14.7370   -0.7330   27.1080 O.co2     1 GTP500      0.0000 
      4 O3G       -16.0720   -2.7900   26.7730 O.co2     1 GTP500      0.0000 
      5 O3B       -13.7230   -2.6740   25.7820 O.3       1 GTP500      0.0000 
      6 PB        -14.2490   -3.7070   24.6700 P.3       1 GTP500      0.0000 
      7 O1B       -14.7890   -2.9360   23.4870 O.co2     1 GTP500      0.0000 
      8 O2B       -15.2690   -4.6630   25.2400 O.co2     1 GTP500      0.0000 
      9 O3A       -12.8990   -4.4570   24.2400 O.3       1 GTP500      0.0000 
     10 PA        -11.8550   -4.8940   25.3840 P.3       1 GTP500      0.0000 
     11 O1A       -10.6690   -3.9650   25.3930 O.co2     1 GTP500      0.0000 
     12 O2A       -12.5250   -4.9230   26.7410 O.co2     1 GTP500      0.0000 
     13 O5'       -11.4000   -6.3790   24.9790 O.3       1 GTP500      0.0000 
     14 C5'       -12.1670   -7.1680   24.1040 C.3       1 GTP500      0.0000 
     15 C4'       -11.4460   -8.4980   23.9340 C.3       1 GTP500      0.0000 
     16 O4'       -10.7090   -8.4090   22.7360 O.3       1 GTP500      0.0000 
     17 C3'       -10.4480   -8.7330   25.0570 C.3       1 GTP500      0.0000 
     18 O3'       -10.7550   -9.9230   25.7440 O.3       1 GTP500      0.0000 
     19 C2'        -9.0900   -8.8520   24.3920 C.3       1 GTP500      0.0000 
     20 O2'        -8.4500  -10.0580   24.7410 O.3       1 GTP500      0.0000 
     21 C1'        -9.3590   -8.7900   22.8960 C.3       1 GTP500      0.0000 
     22 N9         -8.5010   -7.7650   22.2740 N.pl3     1 GTP500      0.0000 
     23 C8         -8.6380   -6.4050   22.3700 C.2       1 GTP500      0.0000 
     24 N7         -7.6650   -5.8200   21.6330 N.2       1 GTP500      0.0000 
     25 C5         -6.9260   -6.7870   21.0440 C.2       1 GTP500      0.0000 
     26 C6         -5.8280   -6.7480   20.1930 C.2       1 GTP500      0.0000 
     27 O6         -5.3530   -5.6700   19.8390 O.2       1 GTP500      0.0000 
     28 N1         -5.2730   -7.9300   19.7490 N.am      1 GTP500      0.0000 
     29 C2         -5.8110   -9.1360   20.1480 C.2       1 GTP500      0.0000 
     30 N2         -5.2830  -10.2780   19.7230 N.pl3     1 GTP500      0.0000 
     31 N3         -6.9010   -9.1670   20.9910 N.2       1 GTP500      0.0000 
     32 C4         -7.4490   -8.0130   21.4330 C.2       1 GTP500      0.0000 
     33 H         -12.2689   -6.7167   23.1163 H         1 GTP500      0.0000 
     34 H         -13.1629   -7.3777   24.4961 H         1 GTP500      0.0000 
     35 H         -12.1516   -9.2838   23.9122 H         1 GTP500      0.0000 
     36 H         -10.4408   -7.8722   25.6854 H         1 GTP500      0.0000 
     37 H          -8.5163   -7.9808   24.6558 H         1 GTP500      0.0000 
     38 H          -9.1640   -9.7468   22.4763 H         1 GTP500      0.0000 
     39 H          -9.3162   -5.9508   22.8791 H         1 GTP500      0.0000 
     40 H          -4.4562   -7.9124   19.1191 H         1 GTP500      0.0000 
     41 H          -5.7316  -11.1143   20.0380 H         1 GTP500      0.0000 
     42 H          -4.4845  -10.1984   19.1263 H         1 GTP500      0.0000 
     43 H          -9.9030  -10.4466   25.7479 H         1 GTP500      0.0000 
     44 H          -7.4993   -9.8042   24.9190 H         1 GTP500      0.0000 
@<TRIPOS>BOND
     1    2    1 ar   
     2    3    1 ar   
     3    4    1 ar   
     4    5    1 1    
     5    6    5 1    
     6    7    6 ar   
     7    8    6 ar   
     8    9    6 1    
     9   10    9 1    
    10   11   10 ar   
    11   12   10 ar   
    12   13   10 1    
    13   14   13 1    
    14   15   14 1    
    15   33   14 1    
    16   34   14 1    
    17   16   15 1    
    18   17   15 1    
    19   35   15 1    
    20   21   16 1    
    21   18   17 1    
    22   19   17 1    
    23   36   17 1    
    24   43   18 1    
    25   20   19 1    
    26   21   19 1    
    27   37   19 1    
    28   44   20 1    
    29   22   21 1    
    30   38   21 1    
    31   23   22 1    
    32   32   22 1    
    33   24   23 2    
    34   39   23 1    
    35   25   24 1    
    36   26   25 1    
    37   32   25 2    
    38   27   26 2    
    39   28   26 am   
    40   29   28 1    
    41   40   28 1    
    42   30   29 1    
    43   31   29 2    
    44   41   30 1    
    45   42   30 1    
    46   32   31 1    
@<TRIPOS>SUBSTRUCTURE
     1 GTP500      1 GROUP   
@<TRIPOS>SET

