#    Name: 3cs4_COV_1_INTS_M
#    Modification time : Mon Mar 24 22:15:16 2014

@<TRIPOS>MOLECULE
3cs4_COV_1_INTS_M
  123     0     9     0     0
SMALL
NO_CHARGES


@<TRIPOS>ATOM
      1 CA         14.3300   17.2010   37.5125 C.3       3 GLC5        0.0000 
      2 CA         14.1320   17.3850   35.6280 C.3       9 GLL5        0.0000 
      3 CA         14.5280   17.0170   39.3970 C.3       6 GLP5        0.0000 
      4 CA         15.6030   18.5845   36.4005 C.3       3 GLC5        0.0000 
      5 CA         17.0740   19.7840   37.1730 C.3       6 GLP5        0.0000 
      6 CA         16.0760   15.4230   35.9035 C.3       3 GLC5        0.0000 
      7 CA         14.8360   16.3110   34.7460 C.3       9 GLL5        0.0000 
      8 CA         17.3160   14.5350   37.0610 C.3       6 GLP5        0.0000 
      9 CA          3.9075   25.4980   30.9560 C.3       3 GLC5        0.0000 
     10 CA          4.7530   25.7770   32.4180 C.3       9 GLL5        0.0000 
     11 CA          3.0620   25.2190   29.4940 C.3       6 GLP5        0.0000 
     12 CA          3.2560   27.1665   32.1110 C.3       3 GLC5        0.0000 
     13 CA          1.7590   28.5560   31.8040 C.3       6 GLP5        0.0000 
     14 CA          2.3450   25.3365   35.0975 C.3       3 GLC5        0.0000 
     15 CA          3.9180   24.1470   34.1130 C.3       9 GLL5        0.0000 
     16 CA          0.7720   26.5260   36.0820 C.3       6 GLP5        0.0000 
     17 CA          2.3450   22.8630   34.6035 C.3       3 GLC5        0.0000 
     18 CA          0.7720   21.5790   35.0940 C.3       6 GLP5        0.0000 
     19 CA         17.1495   15.6795   34.9970 C.3       3 GLC5        0.0000 
     20 CA         15.9080   16.9350   33.8050 C.3       9 GLL5        0.0000 
     21 CA         18.3910   14.4240   36.1890 C.3       6 GLP5        0.0000 
     22 CA         17.0565   15.6335   33.1000 C.3       3 GLC5        0.0000 
     23 CA         18.2050   14.3320   32.3950 C.3       6 GLP5        0.0000 
     24 CA         13.3905   17.4850   32.2040 C.3       3 GLC5        0.0000 
     25 CA         15.3370   18.1000   32.9360 C.3       9 GLL5        0.0000 
     26 CA         11.4440   16.8700   31.4720 C.3       6 GLP5        0.0000 
     27 CA         15.5530   23.6760   33.9135 C.3       3 GLC5        0.0000 
     28 CA         13.8550   22.8000   33.5880 C.3       9 GLL5        0.0000 
     29 CA         17.2510   24.5520   34.2390 C.3       6 GLP5        0.0000 
     30 CA         15.7530   23.7570   32.4755 C.3       3 GLC5        0.0000 
     31 CA         14.1750   23.1450   32.1100 C.3       9 GLL5        0.0000 
     32 CA         17.3310   24.3690   32.8410 C.3       6 GLP5        0.0000 
     33 CA         12.4890   17.6910   33.1125 C.3       3 GLC5        0.0000 
     34 CA         13.5340   18.5120   34.7530 C.3       9 GLL5        0.0000 
     35 CA         14.8360   19.7130   35.7485 C.3       3 GLC5        0.0000 
     36 CA         16.1380   20.9140   36.7440 C.3       6 GLP5        0.0000 
     37 CA         11.6255   23.0965   29.9935 C.3       3 GLC5        0.0000 
     38 CA         12.8950   23.6270   31.3340 C.3       9 GLL5        0.0000 
     39 CA         10.3560   22.5660   28.6530 C.3       6 GLP5        0.0000 
     40 CA         10.7325   24.7750   30.4235 C.3       3 GLC5        0.0000 
     41 CA         12.0430   24.6710   32.1460 C.3       9 GLL5        0.0000 
     42 CA          9.4220   24.8790   28.7010 C.3       6 GLP5        0.0000 
     43 CA         12.3535   26.4405   31.4125 C.3       3 GLC5        0.0000 
     44 CA         12.6640   28.2100   30.6790 C.3       6 GLP5        0.0000 
     45 CA         15.0005   24.8610   34.5695 C.3       3 GLC5        0.0000 
     46 CA         13.1690   23.9650   34.3220 C.3       9 GLL5        0.0000 
     47 CA         16.8320   25.7570   34.8170 C.3       6 GLP5        0.0000 
     48 CA         12.1385   24.8880   38.1525 C.3       3 GLC5        0.0000 
     49 CA         11.6080   24.8140   36.0540 C.3       9 GLL5        0.0000 
     50 CA         12.6690   24.9620   40.2510 C.3       6 GLP5        0.0000 
     51 CA          9.2955   22.0685   34.0180 C.3       3 GLC5        0.0000 
     52 CA         10.7550   23.0340   33.6710 C.3       9 GLL5        0.0000 
     53 CA          7.8360   21.1030   34.3650 C.3       6 GLP5        0.0000 
     54 CA         11.4970   18.5650   33.1450 C.3       3 GLC5        0.0000 
     55 CA         12.2170   18.8910   34.8650 C.3       9 GLL5        0.0000 
     56 CA         10.7770   18.2390   31.4250 C.3       6 GLP5        0.0000 
     57 CA         11.0225   17.5185   35.6910 C.3       3 GLC5        0.0000 
     58 CA          9.8280   16.1460   36.5170 C.3       6 GLP5        0.0000 
     59 CA         11.6600   19.8420   36.3880 C.3       3 GLC5        0.0000 
     60 CA         11.1030   20.7930   37.9110 C.3       6 GLP5        0.0000 
     61 N          17.8775   16.4865   35.0295 N.am      2 SEC2        0.0000 
     62 N          16.9860   17.4500   34.6100 N.am      8 SEL2        0.0000 
     63 N          18.7690   15.5230   35.4490 N.am      5 SEP2        0.0000 
     64 O          17.8585   18.3200   33.8840 O.2       1 ALC1        0.0000 
     65 O          16.9860   17.4500   34.6100 O.2       7 ALL1        0.0000 
     66 O          18.7310   19.1900   33.1580 O.2       4 ALP1        0.0000 
     67 CA          8.3045   28.3760   34.1875 C.3       3 GLC5        0.0000 
     68 CA          9.9110   27.4890   35.2220 C.3       9 GLL5        0.0000 
     69 CA          6.6980   29.2630   33.1530 C.3       6 GLP5        0.0000 
     70 CA          9.4250   29.0955   35.9545 C.3       3 GLC5        0.0000 
     71 CA          8.9390   30.7020   36.6870 C.3       6 GLP5        0.0000 
     72 CA         11.9110   27.7720   35.7735 C.3       3 GLC5        0.0000 
     73 CA         13.9110   28.0550   36.3250 C.3       6 GLP5        0.0000 
     74 CA          8.1205   27.5265   36.4650 C.3       3 GLC5        0.0000 
     75 CA          6.3300   27.5640   37.7080 C.3       6 GLP5        0.0000 
     76 CA          8.2565   23.2190   34.7285 C.3       3 GLC5        0.0000 
     77 CA          8.6770   25.3350   35.0920 C.3       9 GLL5        0.0000 
     78 CA          8.3590   24.7200   37.1025 C.3       3 GLC5        0.0000 
     79 CA          8.0410   24.1050   39.1130 C.3       6 GLP5        0.0000 
     80 CA          7.1075   22.9070   34.2365 C.3       3 GLC5        0.0000 
     81 CA          6.3790   24.7110   34.1080 C.3       9 GLL5        0.0000 
     82 CA          8.8785   25.3245   30.7470 C.3       3 GLC5        0.0000 
     83 CA          8.3350   25.7700   32.7930 C.3       9 GLL5        0.0000 
     84 N          13.1450   15.4815   37.0675 N.am      2 SEC2        0.0000 
     85 N          13.1030   16.7490   36.3830 N.am      8 SEL2        0.0000 
     86 N          13.1870   14.2140   37.7520 N.am      5 SEP2        0.0000 
     87 O          11.8705   16.4545   35.8690 O.2       1 ALC1        0.0000 
     88 O          13.1030   16.7490   36.3830 O.2       7 ALL1        0.0000 
     89 O          10.6380   16.1600   35.3550 O.2       4 ALP1        0.0000 
     90 N           5.0420   26.4605   36.0745 N.am      2 SEC2        0.0000 
     91 N           4.6770   26.3300   34.7360 N.am      8 SEL2        0.0000 
     92 N           5.4070   26.5910   37.4130 N.am      5 SEP2        0.0000 
     93 O           5.2515   27.5690   34.4240 O.2       1 ALC1        0.0000 
     94 O           4.6770   26.3300   34.7360 O.2       7 ALL1        0.0000 
     95 O           5.8260   28.8080   34.1120 O.2       4 ALP1        0.0000 
     96 CA         10.3265   28.1205   33.2735 C.3       3 GLC5        0.0000 
     97 CA         10.7480   29.4400   31.6840 C.3       6 GLP5        0.0000 
     98 CA          5.7758   27.3873   33.1392 C.3       3 GLC5        0.0000 
     99 CA          4.9540   25.2460   33.8330 C.3       9 GLL5        0.0000 
    100 CA         17.6567   17.8657   33.0868 C.3       3 GLC5        0.0000 
    101 CA         19.6910   18.2140   32.8030 C.3       6 GLP5        0.0000 
    102 CA         16.5003   17.6182   31.6878 C.3       3 GLC5        0.0000 
    103 CA         17.3780   17.7190   30.0050 C.3       6 GLP5        0.0000 
    104 CA         14.6647   16.0688   32.1609 C.3       3 GLC5        0.0000 
    105 CA         13.9750   14.7760   30.7160 C.3       6 GLP5        0.0000 
    106 CA         13.1828   19.5303   32.2325 C.3       3 GLC5        0.0000 
    107 CA         14.5260   19.1220   33.7560 C.3       9 GLL5        0.0000 
    108 CA         11.7200   19.2740   30.8250 C.3       6 GLP5        0.0000 
    109 CA         15.3918   20.3503   35.1920 C.3       3 GLC5        0.0000 
    110 CA         16.2045   21.7535   33.8487 C.3       3 GLC5        0.0000 
    111 CA         14.7650   20.4510   33.5240 C.3       9 GLL5        0.0000 
    112 CA         17.9630   22.4740   33.8500 C.3       6 GLP5        0.0000 
    113 CA         15.0645   21.5607   35.3117 C.3       3 GLC5        0.0000 
    114 CA         14.1270   21.6150   34.1710 C.3       9 GLL5        0.0000 
    115 CA         14.4445   23.4495   29.9845 C.3       3 GLC5        0.0000 
    116 CA         15.3540   23.5130   28.2470 C.3       6 GLP5        0.0000 
    117 CA         11.6562   22.5585   36.9353 C.3       3 GLC5        0.0000 
    118 CA         12.8110   23.8340   35.8650 C.3       9 GLL5        0.0000 
    119 CA         12.8491   26.4693   35.8146 C.3       3 GLC5        0.0000 
    120 CA         11.3650   25.4430   34.6490 C.3       9 GLL5        0.0000 
    121 CA          7.2222   26.5435   36.1510 C.3       3 GLC5        0.0000 
    122 CA          7.3208   27.5018   33.2987 C.3       3 GLC5        0.0000 
    123 CA          7.5520   25.7110   34.0960 C.3       9 GLL5        0.0000 
@<TRIPOS>BOND
@<TRIPOS>SUBSTRUCTURE
     1 ALC1       64 GROUP        1 X    ALC  0     ROOT ALC X 1
     2 SEC2       61 GROUP        1 X    SEC  0     **** SEC X 2
     3 GLC5        1 GROUP        1 X    GLC  0     **** GLC X 6
     4 ALP1       66 GROUP        1 Y    ALP  0     ROOT ALP Y 8
     5 SEP2       63 GROUP        1 Y    SEP  0     **** SEP Y 9
     6 GLP5        3 GROUP        1 Y    GLP  0     **** GLP Y 13
     7 ALL1       65 GROUP        1 Z    ALL  0     ROOT ALL Z 15
     8 SEL2       62 GROUP        1 Z    SEL  0     **** SEL Z 16
     9 GLL5        2 GROUP        1 Z    GLL  0     **** GLL Z 20
@<TRIPOS>SET

