#    Name: 3cs4_COV_1_ligand
#    Modification time : Mon Mar 24 22:15:16 2014

@<TRIPOS>MOLECULE
3cs4_COV_1_ligand
   74    77     1     0     0
SMALL
NO_CHARGES


@<TRIPOS>ATOM
      1 C1         14.1320   17.3850   35.6280 C.3       1 COV1        0.0000 
      2 C20         9.8990   26.1130   34.5040 C.3       1 COV1        0.0000 
      3 C2         14.8360   16.3110   34.7460 C.3       1 COV1        0.0000 
      4 C25         4.9540   25.2460   33.8330 C.3       1 COV1        0.0000 
      5 C26         4.7530   25.7770   32.4180 C.3       1 COV1        0.0000 
      6 C27         3.9180   24.1470   34.1130 C.3       1 COV1        0.0000 
      7 C3         15.9080   16.9350   33.8050 C.3       1 COV1        0.0000 
      8 C4         15.3370   18.1000   32.9360 C.3       1 COV1        0.0000 
      9 C5         14.5260   19.1220   33.7560 C.2       1 COV1        0.0000 
     10 C6         14.7650   20.4510   33.5240 C.2       1 COV1        0.0000 
     11 C7         14.1270   21.6150   34.1710 C.2       1 COV1        0.0000 
     12 C8         13.8550   22.8000   33.5880 C.2       1 COV1        0.0000 
     13 C9         14.1750   23.1450   32.1100 C.3       1 COV1        0.0000 
     14 C10        13.5340   18.5120   34.7530 C.2       1 COV1        0.0000 
     15 C11        12.8950   23.6270   31.3340 C.3       1 COV1        0.0000 
     16 C12        12.0430   24.6710   32.1460 C.3       1 COV1        0.0000 
     17 C13        11.7520   24.2950   33.6730 C.3       1 COV1        0.0000 
     18 C14        13.1690   23.9650   34.3220 C.3       1 COV1        0.0000 
     19 C15        12.8110   23.8340   35.8650 C.3       1 COV1        0.0000 
     20 C16        11.6080   24.8140   36.0540 C.3       1 COV1        0.0000 
     21 C17        11.3650   25.4430   34.6490 C.3       1 COV1        0.0000 
     22 C18        10.7550   23.0340   33.6710 C.3       1 COV1        0.0000 
     23 C19        12.2170   18.8910   34.8650 C.2       1 COV1        0.0000 
     24 O3         16.9860   17.4500   34.6100 O.3       1 COV1        0.0000 
     25 C21         9.9110   27.4890   35.2220 C.3       1 COV1        0.0000 
     26 C22         8.6770   25.3350   35.0920 C.3       1 COV1        0.0000 
     27 C23         7.5520   25.7110   34.0960 C.3       1 COV1        0.0000 
     28 C24         6.3790   24.7110   34.1080 C.3       1 COV1        0.0000 
     29 C28         8.3350   25.7700   32.7930 C.3       1 COV1        0.0000 
     30 O1         13.1030   16.7490   36.3830 O.3       1 COV1        0.0000 
     31 O21         9.5940   26.3330   33.1200 O.3       1 COV1        0.0000 
     32 O25         4.6770   26.3300   34.7360 O.3       1 COV1        0.0000 
     33 H          14.8815   17.8182   36.2697 H         1 COV1        0.0000 
     34 H          14.0862   15.8060   34.1406 H         1 COV1        0.0000 
     35 H          15.3175   15.5827   35.3952 H         1 COV1        0.0000 
     36 H          16.2613   16.1661   33.1407 H         1 COV1        0.0000 
     37 H          14.6974   17.6714   32.1600 H         1 COV1        0.0000 
     38 H          16.1724   18.6099   32.4490 H         1 COV1        0.0000 
     39 H          15.5016   20.7198   32.7865 H         1 COV1        0.0000 
     40 H          13.8763   21.4546   35.1957 H         1 COV1        0.0000 
     41 H          14.5676   22.2640   31.6123 H         1 COV1        0.0000 
     42 H          14.9154   23.9379   32.0783 H         1 COV1        0.0000 
     43 H          12.2718   22.7619   31.1169 H         1 COV1        0.0000 
     44 H          13.2062   24.0843   30.3970 H         1 COV1        0.0000 
     45 H          11.0758   24.8061   31.6435 H         1 COV1        0.0000 
     46 H          12.5617   25.6390   32.1317 H         1 COV1        0.0000 
     47 H          13.7392   24.8892   34.2089 H         1 COV1        0.0000 
     48 H          13.6312   24.1633   36.4313 H         1 COV1        0.0000 
     49 H          12.5023   22.8495   36.0578 H         1 COV1        0.0000 
     50 H          11.8800   25.5741   36.7391 H         1 COV1        0.0000 
     51 H          10.7519   24.2647   36.3480 H         1 COV1        0.0000 
     52 H          12.1166   26.2327   34.5407 H         1 COV1        0.0000 
     53 H           8.4520   25.7114   36.0422 H         1 COV1        0.0000 
     54 H           8.8660   24.3068   35.0443 H         1 COV1        0.0000 
     55 H           7.2288   26.6978   34.3433 H         1 COV1        0.0000 
     56 H           6.5973   23.9034   33.3647 H         1 COV1        0.0000 
     57 H           6.3704   24.1903   35.0985 H         1 COV1        0.0000 
     58 H           7.7791   26.3828   32.0942 H         1 COV1        0.0000 
     59 H           8.4226   24.7618   32.4075 H         1 COV1        0.0000 
     60 H           5.4075   26.4998   32.1961 H         1 COV1        0.0000 
     61 H           4.8663   25.0583   31.7320 H         1 COV1        0.0000 
     62 H           3.8383   26.1610   32.2919 H         1 COV1        0.0000 
     63 H           4.0022   23.3850   33.4709 H         1 COV1        0.0000 
     64 H           4.0183   23.7677   35.0328 H         1 COV1        0.0000 
     65 H           2.9821   24.4912   34.0383 H         1 COV1        0.0000 
     66 H          11.1528   22.2468   33.1997 H         1 COV1        0.0000 
     67 H          10.5299   22.7371   34.5990 H         1 COV1        0.0000 
     68 H           9.8913   23.2442   33.2129 H         1 COV1        0.0000 
     69 H          10.1255   27.3986   36.1945 H         1 COV1        0.0000 
     70 H          10.5909   28.1075   34.8281 H         1 COV1        0.0000 
     71 H           9.0252   27.9486   35.1588 H         1 COV1        0.0000 
     72 H          17.5099   18.0389   33.9946 H         1 COV1        0.0000 
     73 H          12.3255   16.6842   35.7574 H         1 COV1        0.0000 
     74 H           4.9625   27.2880   34.7670 H         1 COV1        0.0000 
@<TRIPOS>BOND
     1    3    1 1    
     2   14    1 1    
     3   30    1 1    
     4   33    1 1    
     5   21    2 1    
     6   25    2 1    
     7   26    2 1    
     8   31    2 1    
     9    7    3 1    
    10   34    3 1    
    11   35    3 1    
    12    5    4 1    
    13    6    4 1    
    14   28    4 1    
    15   32    4 1    
    16   60    5 1    
    17   61    5 1    
    18   62    5 1    
    19   63    6 1    
    20   64    6 1    
    21   65    6 1    
    22    8    7 1    
    23   24    7 1    
    24   36    7 1    
    25    9    8 1    
    26   37    8 1    
    27   38    8 1    
    28   10    9 2    
    29   14    9 1    
    30   11   10 1    
    31   39   10 1    
    32   12   11 2    
    33   40   11 1    
    34   13   12 1    
    35   18   12 1    
    36   15   13 1    
    37   41   13 1    
    38   42   13 1    
    39   23   14 2    
    40   16   15 1    
    41   43   15 1    
    42   44   15 1    
    43   17   16 1    
    44   45   16 1    
    45   46   16 1    
    46   18   17 1    
    47   21   17 1    
    48   22   17 1    
    49   19   18 1    
    50   47   18 1    
    51   20   19 1    
    52   48   19 1    
    53   49   19 1    
    54   21   20 1    
    55   50   20 1    
    56   51   20 1    
    57   52   21 1    
    58   66   22 1    
    59   67   22 1    
    60   68   22 1    
    61   72   24 1    
    62   69   25 1    
    63   70   25 1    
    64   71   25 1    
    65   27   26 1    
    66   53   26 1    
    67   54   26 1    
    68   28   27 1    
    69   29   27 1    
    70   55   27 1    
    71   56   28 1    
    72   57   28 1    
    73   31   29 1    
    74   58   29 1    
    75   59   29 1    
    76   73   30 1    
    77   74   32 1    
@<TRIPOS>SUBSTRUCTURE
     1 COV1        1 GROUP   
@<TRIPOS>SET

