#    Name: 3qgi_33F_1_INTS_M
#    Modification time : Mon Apr  7 19:33:28 2014

@<TRIPOS>MOLECULE
3qgi_33F_1_INTS_M
  124     0     9     0     0
SMALL
NO_CHARGES


@<TRIPOS>ATOM
      1 CA          5.7345   32.0265   49.7540 C.3       3 GLC5        0.0000 
      2 CA          7.5310   33.1940   49.1560 C.3       9 GLL5        0.0000 
      3 CA          3.9380   30.8590   50.3520 C.3       6 GLP5        0.0000 
      4 CA          7.4320   31.0740   49.6215 C.3       3 GLC5        0.0000 
      5 CA          7.3330   28.9540   50.0870 C.3       6 GLP5        0.0000 
      6 CA         10.3430   33.9420   52.9385 C.3       3 GLC5        0.0000 
      7 CA          9.0940   34.3620   51.1850 C.3       9 GLL5        0.0000 
      8 CA         11.5920   33.5220   54.6920 C.3       6 GLP5        0.0000 
      9 CA          7.3790   45.1590   46.8815 C.3       3 GLC5        0.0000 
     10 CA          7.3010   43.2080   46.1420 C.3       9 GLL5        0.0000 
     11 CA          7.4570   47.1100   47.6210 C.3       6 GLP5        0.0000 
     12 CA         11.3695   41.8030   45.7610 C.3       3 GLC5        0.0000 
     13 CA          9.3240   41.9060   45.6130 C.3       9 GLL5        0.0000 
     14 CA         13.4150   41.7000   45.9090 C.3       6 GLP5        0.0000 
     15 CA         10.0755   39.3825   47.0305 C.3       3 GLC5        0.0000 
     16 CA          8.9380   40.9270   46.5560 C.3       9 GLL5        0.0000 
     17 CA         11.2130   37.8380   47.5050 C.3       6 GLP5        0.0000 
     18 CA          1.4515   35.0080   46.0570 C.3       3 GLC5        0.0000 
     19 CA          1.6790   35.4210   44.2150 C.3       9 GLL5        0.0000 
     20 CA          1.2240   34.5950   47.8990 C.3       6 GLP5        0.0000 
     21 CA          5.4090   38.2465   43.3425 C.3       3 GLC5        0.0000 
     22 CA          5.9470   38.0460   45.3190 C.3       9 GLL5        0.0000 
     23 CA          4.8710   38.4470   41.3660 C.3       6 GLP5        0.0000 
     24 CA          8.4555   37.0660   47.3995 C.3       3 GLC5        0.0000 
     25 CA          6.5630   37.8280   46.7200 C.3       9 GLL5        0.0000 
     26 CA         10.3480   36.3040   48.0790 C.3       6 GLP5        0.0000 
     27 CA         -4.2630   35.5515   41.6420 C.3       3 GLC5        0.0000 
     28 CA         -2.6180   35.8880   42.7910 C.3       9 GLL5        0.0000 
     29 CA         -5.9080   35.2150   40.4930 C.3       6 GLP5        0.0000 
     30 CA         -4.3705   37.0525   43.3715 C.3       3 GLC5        0.0000 
     31 CA         -6.1230   38.2170   43.9520 C.3       6 GLP5        0.0000 
     32 CA         -1.4690   35.3545   41.3985 C.3       3 GLC5        0.0000 
     33 CA         -0.3200   34.8210   40.0060 C.3       6 GLP5        0.0000 
     34 CA         -3.9125   32.8455   46.0875 C.3       3 GLC5        0.0000 
     35 CA         -1.9830   32.6950   45.0280 C.3       9 GLL5        0.0000 
     36 CA         -5.8420   32.9960   47.1470 C.3       6 GLP5        0.0000 
     37 CA         -2.0850   33.1035   46.9200 C.3       3 GLC5        0.0000 
     38 CA         -2.1870   33.5120   48.8120 C.3       6 GLP5        0.0000 
     39 CA         -3.1850   31.3975   44.3100 C.3       3 GLC5        0.0000 
     40 CA         -4.3870   30.1000   43.5920 C.3       6 GLP5        0.0000 
     41 CA          4.5295   34.2535   48.1000 C.3       3 GLC5        0.0000 
     42 CA          5.8360   35.0730   49.3270 C.3       9 GLL5        0.0000 
     43 CA          3.2230   33.4340   46.8730 C.3       6 GLP5        0.0000 
     44 CA         -4.7505   34.4985   42.6320 C.3       3 GLC5        0.0000 
     45 CA         -2.9660   34.7910   43.8060 C.3       9 GLL5        0.0000 
     46 CA         -6.5350   34.2060   41.4580 C.3       6 GLP5        0.0000 
     47 CA         -1.0520   34.3240   42.0065 C.3       3 GLC5        0.0000 
     48 CA         -1.7840   33.8270   44.0070 C.3       9 GLL5        0.0000 
     49 O          -1.3335   34.9765   45.7710 O.2       1 ALC1        0.0000 
     50 O          -0.6130   34.6530   44.3250 O.2       7 ALL1        0.0000 
     51 O          -2.0540   35.3000   47.2170 O.2       4 ALP1        0.0000 
     52 O           5.9370   36.9000   49.9440 O.2       1 ALC1        0.0000 
     53 O           6.0730   36.2990   48.5840 O.2       7 ALL1        0.0000 
     54 O           5.8010   37.5010   51.3040 O.2       4 ALP1        0.0000 
     55 N           0.6105   32.1075   43.1870 N.am      2 SEC2        0.0000 
     56 N           0.8420   33.4860   43.0600 N.am      8 SEL2        0.0000 
     57 N           0.3790   30.7290   43.3140 N.am      5 SEP2        0.0000 
     58 N           0.1490   33.5855   41.9015 N.am      2 SEC2        0.0000 
     59 N          -0.5440   33.6850   40.7430 N.am      5 SEP2        0.0000 
     60 CA         12.0560   35.8540   51.9445 C.3       3 GLC5        0.0000 
     61 CA         12.1350   34.3630   51.1580 C.3       9 GLL5        0.0000 
     62 CA         11.9770   37.3450   52.7310 C.3       6 GLP5        0.0000 
     63 CA         14.1115   33.6030   50.7945 C.3       3 GLC5        0.0000 
     64 CA         16.0880   32.8430   50.4310 C.3       6 GLP5        0.0000 
     65 CA         13.5015   32.9195   52.8505 C.3       3 GLC5        0.0000 
     66 CA         12.8770   32.3010   51.0730 C.3       9 GLL5        0.0000 
     67 CA         14.1260   33.5380   54.6280 C.3       6 GLP5        0.0000 
     68 CA         14.4825   32.5720   50.7520 C.3       3 GLC5        0.0000 
     69 CA         10.4795   45.8355   46.2980 C.3       3 GLC5        0.0000 
     70 CA         11.0330   44.3000   45.1230 C.3       9 GLL5        0.0000 
     71 CA          9.9260   47.3710   47.4730 C.3       6 GLP5        0.0000 
     72 CA         12.5035   42.8745   43.0920 C.3       3 GLC5        0.0000 
     73 CA         10.5740   43.2470   43.2710 C.3       9 GLL5        0.0000 
     74 CA         14.4330   42.5020   42.9130 C.3       6 GLP5        0.0000 
     75 CA         10.7700   41.1530   43.4265 C.3       3 GLC5        0.0000 
     76 CA         10.9660   39.0590   43.5820 C.3       6 GLP5        0.0000 
     77 CA          9.6140   42.8215   41.9350 C.3       3 GLC5        0.0000 
     78 CA          8.6540   42.3960   40.5990 C.3       6 GLP5        0.0000 
     79 CA          9.5655   46.3520   42.0780 C.3       3 GLC5        0.0000 
     80 CA         10.1830   45.3890   43.4250 C.3       9 GLL5        0.0000 
     81 CA          8.9480   47.3150   40.7310 C.3       6 GLP5        0.0000 
     82 CA          9.5535   35.9297   52.1957 C.3       3 GLC5        0.0000 
     83 CA         10.6110   37.1840   53.4100 C.3       6 GLP5        0.0000 
     84 CA          8.3675   33.4447   52.4963 C.3       3 GLC5        0.0000 
     85 CA          8.2390   32.2140   54.0110 C.3       6 GLP5        0.0000 
     86 CA          8.6818   32.5403   52.0400 C.3       3 GLC5        0.0000 
     87 CA          9.5170   33.1580   50.5810 C.3       9 GLL5        0.0000 
     88 CA          9.1212   30.8553   50.1865 C.3       3 GLC5        0.0000 
     89 CA          9.1180   28.8440   50.3040 C.3       6 GLP5        0.0000 
     90 CA         10.0485   40.2377   44.8332 C.3       3 GLC5        0.0000 
     91 CA         10.5155   41.8342   47.5842 C.3       3 GLC5        0.0000 
     92 CA         11.9000   42.2520   49.0840 C.3       6 GLP5        0.0000 
     93 CA          8.5497   42.2225   48.6975 C.3       3 GLC5        0.0000 
     94 CA          7.7300   41.1050   47.2580 C.3       9 GLL5        0.0000 
     95 CA          9.7790   42.7720   50.2280 C.3       6 GLP5        0.0000 
     96 CA          4.8105   34.2755   43.7627 C.3       3 GLC5        0.0000 
     97 CA          3.9850   36.1710   44.1420 C.3       9 GLL5        0.0000 
     98 CA          6.1310   32.8480   43.5780 C.3       6 GLP5        0.0000 
     99 CA          4.2070   37.4612   42.9149 C.3       3 GLC5        0.0000 
    100 CA          3.5960   37.2480   44.9800 C.3       9 GLL5        0.0000 
    101 CA          7.8280   37.1460   45.2477 C.3       3 GLC5        0.0000 
    102 CA          9.4010   36.3550   44.4760 C.3       6 GLP5        0.0000 
    103 CA         -0.3703   32.7570   45.7398 C.3       3 GLC5        0.0000 
    104 CA          1.1430   32.2530   46.9620 C.3       6 GLP5        0.0000 
    105 CA         -0.9998   31.8245   43.2733 C.3       3 GLC5        0.0000 
    106 CA         -0.1160   30.3880   42.0290 C.3       6 GLP5        0.0000 
    107 CA         13.1732   31.1600   51.5685 C.3       3 GLC5        0.0000 
    108 CA         11.8920   33.1310   50.6510 C.3       9 GLL5        0.0000 
    109 CA         13.9620   29.6040   52.2750 C.3       6 GLP5        0.0000 
    110 CA         11.8027   33.6345   52.7982 C.3       3 GLC5        0.0000 
    111 CA         13.7875   32.7788   49.5990 C.3       3 GLC5        0.0000 
    112 CA         12.0020   33.2220   49.3210 C.3       9 GLL5        0.0000 
    113 CA         15.6280   32.3810   49.2120 C.3       6 GLP5        0.0000 
    114 CA         12.0075   42.9790   45.2602 C.3       3 GLC5        0.0000 
    115 CA          8.9565   44.0378   42.4728 C.3       3 GLC5        0.0000 
    116 CA         10.1670   44.2160   44.1000 C.3       9 GLL5        0.0000 
    117 CA          7.7380   43.2730   41.1830 C.3       6 GLP5        0.0000 
    118 CA         11.1945   35.0369   49.3255 C.3       3 GLC5        0.0000 
    119 CA         11.4590   44.6224   42.4136 C.3       3 GLC5        0.0000 
    120 CA         12.5330   44.6740   41.1440 C.3       6 GLP5        0.0000 
    121 CA         11.8783   45.5358   45.0521 C.3       3 GLC5        0.0000 
    122 CA         13.3650   46.2480   46.0860 C.3       6 GLP5        0.0000 
    123 CA          9.3316   35.0414   49.1246 C.3       3 GLC5        0.0000 
    124 CA          7.1160   34.3970   49.7620 C.3       9 GLL5        0.0000 
@<TRIPOS>BOND
@<TRIPOS>SUBSTRUCTURE
     1 ALC1       49 GROUP        1 X    ALC  0     ROOT ALC X 1
     2 SEC2       55 GROUP        1 X    SEC  0     **** SEC X 2
     3 GLC5        1 GROUP        1 X    GLC  0     **** GLC X 6
     4 ALP1       51 GROUP        1 Y    ALP  0     ROOT ALP Y 8
     5 SEP2       57 GROUP        1 Y    SEP  0     **** SEP Y 9
     6 GLP5        3 GROUP        1 Y    GLP  0     **** GLP Y 13
     7 ALL1       50 GROUP        1 Z    ALL  0     ROOT ALL Z 15
     8 SEL2       56 GROUP        1 Z    SEL  0     **** SEL Z 16
     9 GLL5        2 GROUP        1 Z    GLL  0     **** GLL Z 20
@<TRIPOS>SET

