#    Name: 3qgi_33F_1_ligand
#    Modification time : Mon Apr  7 19:33:28 2014

@<TRIPOS>MOLECULE
3qgi_33F_1_ligand
   78    81     1     0     0
SMALL
NO_CHARGES


@<TRIPOS>ATOM
      1 C1          7.5310   33.1940   49.1560 C.ar      1 33F601      0.0000 
      2 C2          7.8980   34.9890   50.7780 C.ar      1 33F601      0.0000 
      3 C3          8.7320   32.5750   49.5570 C.ar      1 33F601      0.0000 
      4 C4          9.0940   34.3620   51.1850 C.ar      1 33F601      0.0000 
      5 C5          7.3010   43.2080   46.1420 C.ar      1 33F601      0.0000 
      6 C6          9.3240   41.9060   45.6130 C.ar      1 33F601      0.0000 
      7 C7          6.9110   42.2410   47.0760 C.ar      1 33F601      0.0000 
      8 C8          8.9380   40.9270   46.5560 C.ar      1 33F601      0.0000 
      9 C9          2.9950   35.2350   43.7530 C.ar      1 33F601      0.0000 
     10 C10         3.9850   36.1710   44.1420 C.ar      1 33F601      0.0000 
     11 C11         7.1160   34.3970   49.7620 C.ar      1 33F601      0.0000 
     12 C12         9.5170   33.1580   50.5810 C.ar      1 33F601      0.0000 
     13 C13         8.5070   43.0550   45.4140 C.ar      1 33F601      0.0000 
     14 C14         7.7300   41.1050   47.2580 C.ar      1 33F601      0.0000 
     15 C15         1.6790   35.4210   44.2150 C.ar      1 33F601      0.0000 
     16 C16         3.5960   37.2480   44.9800 C.ar      1 33F601      0.0000 
     17 C17         0.6000   34.4460   43.8040 C.2       1 33F601      0.0000 
     18 C18         6.3430   36.4050   47.2690 C.2       1 33F601      0.0000 
     19 C19         4.1280   39.3180   46.2690 C.3       1 33F601      0.0000 
     20 C20         4.6410   39.1550   47.7060 C.3       1 33F601      0.0000 
     21 C21         5.9470   38.0460   45.3190 C.3       1 33F601      0.0000 
     22 C22         6.5630   37.8280   46.7200 C.3       1 33F601      0.0000 
     23 C23        -2.6180   35.8880   42.7910 C.3       1 33F601      0.0000 
     24 C24        -1.9830   32.6950   45.0280 C.3       1 33F601      0.0000 
     25 C25         5.8360   35.0730   49.3270 C.3       1 33F601      0.0000 
     26 C26        -2.9660   34.7910   43.8060 C.3       1 33F601      0.0000 
     27 C27        -1.7840   33.8270   44.0070 C.3       1 33F601      0.0000 
     28 C28        11.8920   33.1310   50.6510 C.3       1 33F601      0.0000 
     29 C29        10.1670   44.2160   44.1000 C.3       1 33F601      0.0000 
     30 N30         1.3600   36.4700   45.0160 N.ar      1 33F601      0.0000 
     31 N31         2.3060   37.3540   45.4070 N.ar      1 33F601      0.0000 
     32 N32         4.4890   38.1870   45.4090 N.3       1 33F601      0.0000 
     33 N33         6.0900   38.8780   47.6640 N.pl3     1 33F601      0.0000 
     34 N34        -0.6130   34.6530   44.3250 N.am      1 33F601      0.0000 
     35 N35         6.0730   36.2990   48.5840 N.am      1 33F601      0.0000 
     36 O36         0.8420   33.4860   43.0600 O.2       1 33F601      0.0000 
     37 O37         6.4210   35.4310   46.5330 O.2       1 33F601      0.0000 
     38 O38         6.4820   40.6380   49.4870 O.2       1 33F601      0.0000 
     39 O39         8.3880   39.0700   48.7440 O.2       1 33F601      0.0000 
     40 O40        10.6960   32.6200   51.0550 O.3       1 33F601      0.0000 
     41 O41         8.9020   44.0000   44.4960 O.3       1 33F601      0.0000 
     42 F42        12.0020   33.2220   49.3210 F         1 33F601      0.0000 
     43 F43        12.1350   34.3630   51.1580 F         1 33F601      0.0000 
     44 F44        12.8770   32.3010   51.0730 F         1 33F601      0.0000 
     45 F45        11.0330   44.3000   45.1230 F         1 33F601      0.0000 
     46 F46        10.5740   43.2470   43.2710 F         1 33F601      0.0000 
     47 F47        10.1830   45.3890   43.4250 F         1 33F601      0.0000 
     48 S48         7.2190   39.9000   48.4520 S.o2      1 33F601      0.0000 
     49 H           6.9581   32.7685   48.4222 H         1 33F601      0.0000 
     50 H           7.6007   35.8596   51.2118 H         1 33F601      0.0000 
     51 H           9.0373   31.7095   49.1126 H         1 33F601      0.0000 
     52 H           9.6627   34.7844   51.9272 H         1 33F601      0.0000 
     53 H           6.7164   44.0337   45.9784 H         1 33F601      0.0000 
     54 H          10.1807   41.7949   45.0764 H         1 33F601      0.0000 
     55 H           6.0584   42.3488   47.6140 H         1 33F601      0.0000 
     56 H           9.5191   40.1153   46.7221 H         1 33F601      0.0000 
     57 H           3.2328   34.4542   43.1580 H         1 33F601      0.0000 
     58 H           4.9377   36.0755   43.8331 H         1 33F601      0.0000 
     59 H           4.5394   40.2590   45.8667 H         1 33F601      0.0000 
     60 H           3.0326   39.4396   46.3117 H         1 33F601      0.0000 
     61 H           4.1045   38.3343   48.1715 H         1 33F601      0.0000 
     62 H           4.4391   40.0727   48.2493 H         1 33F601      0.0000 
     63 H           6.2203   37.1903   44.6955 H         1 33F601      0.0000 
     64 H           6.4016   38.9424   44.8884 H         1 33F601      0.0000 
     65 H           7.6648   37.9590   46.5978 H         1 33F601      0.0000 
     66 H           5.2279   35.2768   50.2296 H         1 33F601      0.0000 
     67 H           5.2551   34.3547   48.7167 H         1 33F601      0.0000 
     68 H          -3.8259   34.2295   43.4466 H         1 33F601      0.0000 
     69 H          -3.2160   35.2511   44.7597 H         1 33F601      0.0000 
     70 H          -1.5923   33.3572   43.0148 H         1 33F601      0.0000 
     71 H          -0.7936   35.4351   45.0038 H         1 33F601      0.0000 
     72 H           6.0185   37.1909   49.1810 H         1 33F601      0.0000 
     73 H          -1.8368   36.4361   43.0898 H         1 33F601      0.0000 
     74 H          -2.3833   35.5060   41.8971 H         1 33F601      0.0000 
     75 H          -3.3812   36.5183   42.6491 H         1 33F601      0.0000 
     76 H          -1.1730   32.1130   45.0998 H         1 33F601      0.0000 
     77 H          -2.1712   33.0497   45.9438 H         1 33F601      0.0000 
     78 H          -2.7490   32.1019   44.7803 H         1 33F601      0.0000 
@<TRIPOS>BOND
     1    3    1 ar   
     2   11    1 ar   
     3   49    1 1    
     4    4    2 ar   
     5   11    2 ar   
     6   50    2 1    
     7   12    3 ar   
     8   51    3 1    
     9   12    4 ar   
    10   52    4 1    
    11    7    5 ar   
    12   13    5 ar   
    13   53    5 1    
    14    8    6 ar   
    15   13    6 ar   
    16   54    6 1    
    17   14    7 ar   
    18   55    7 1    
    19   14    8 ar   
    20   56    8 1    
    21   10    9 ar   
    22   15    9 ar   
    23   57    9 1    
    24   16   10 ar   
    25   58   10 1    
    26   25   11 1    
    27   40   12 1    
    28   41   13 1    
    29   48   14 1    
    30   17   15 1    
    31   30   15 ar   
    32   31   16 ar   
    33   32   16 1    
    34   34   17 am   
    35   36   17 2    
    36   22   18 1    
    37   35   18 am   
    38   37   18 2    
    39   20   19 1    
    40   32   19 1    
    41   59   19 1    
    42   60   19 1    
    43   33   20 1    
    44   61   20 1    
    45   62   20 1    
    46   22   21 1    
    47   32   21 1    
    48   63   21 1    
    49   64   21 1    
    50   33   22 1    
    51   65   22 1    
    52   26   23 1    
    53   73   23 1    
    54   74   23 1    
    55   75   23 1    
    56   27   24 1    
    57   76   24 1    
    58   77   24 1    
    59   78   24 1    
    60   35   25 1    
    61   66   25 1    
    62   67   25 1    
    63   27   26 1    
    64   68   26 1    
    65   69   26 1    
    66   34   27 1    
    67   70   27 1    
    68   40   28 1    
    69   42   28 1    
    70   43   28 1    
    71   44   28 1    
    72   41   29 1    
    73   45   29 1    
    74   46   29 1    
    75   47   29 1    
    76   31   30 ar   
    77   48   33 1    
    78   71   34 1    
    79   72   35 1    
    80   48   38 2    
    81   48   39 2    
@<TRIPOS>SUBSTRUCTURE
     1 33F601      1 GROUP   
@<TRIPOS>SET

