#    Name: 3mcv_MCV_1_INTS_M
#    Modification time : Mon Mar 24 22:59:18 2014

@<TRIPOS>MOLECULE
3mcv_MCV_1_INTS_M
   50     0     6     0     0
SMALL
NO_CHARGES


@<TRIPOS>ATOM
      1 CA         11.6125  -10.0790   14.6905 C.3       2 GLC5        0.0000 
      2 CA         10.6060  -12.0650   14.5530 C.3       6 GLL5        0.0000 
      3 CA         12.6190   -8.0930   14.8280 C.3       4 GLP5        0.0000 
      4 CA         11.0185  -12.4525   16.1195 C.3       2 GLC5        0.0000 
      5 CA         11.4310  -12.8400   17.6860 C.3       4 GLP5        0.0000 
      6 CA          9.9690  -10.7315   13.6450 C.3       2 GLC5        0.0000 
      7 CA          9.3320   -9.3980   12.7370 C.3       4 GLP5        0.0000 
      8 CA          9.8945  -12.6980   16.2435 C.3       2 GLC5        0.0000 
      9 CA          8.3580  -12.5560   14.8010 C.3       6 GLL5        0.0000 
     10 CA          8.8450  -10.9770   13.7690 C.3       2 GLC5        0.0000 
     11 CA         10.6535  -13.5280   15.8010 C.3       2 GLC5        0.0000 
     12 CA          9.8760  -14.2160   13.9160 C.3       6 GLL5        0.0000 
     13 CA          7.0375  -17.1710   18.6330 C.3       2 GLC5        0.0000 
     14 CA          6.2380  -19.1570   19.2960 C.3       6 GLL5        0.0000 
     15 CA          7.8370  -15.1850   17.9700 C.3       4 GLP5        0.0000 
     16 CA          7.0910  -17.8860   20.5310 C.3       2 GLC5        0.0000 
     17 CA          7.9440  -16.6150   21.7660 C.3       4 GLP5        0.0000 
     18 CA          6.4000  -20.4410   17.6655 C.3       2 GLC5        0.0000 
     19 CA          6.5620  -21.7250   16.0350 C.3       4 GLP5        0.0000 
     20 CA          1.7390  -16.3900   12.9790 C.3       2 GLC5        0.0000 
     21 CA          1.9490  -15.8290   14.9520 C.3       6 GLL5        0.0000 
     22 CA          1.5290  -16.9510   11.0060 C.3       4 GLP5        0.0000 
     23 CA          0.6725  -16.9245   15.6105 C.3       2 GLC5        0.0000 
     24 CA         -0.6040  -18.0200   16.2690 C.3       4 GLP5        0.0000 
     25 CA         -0.0360  -15.5635   13.9535 C.3       2 GLC5        0.0000 
     26 CA         -2.0210  -15.2980   12.9550 C.3       4 GLP5        0.0000 
     27 O          11.6765   -9.8850   15.2775 O.2       1 ALC1        0.0000 
     28 O          11.5590  -11.1720   14.6970 O.2       5 ALL1        0.0000 
     29 O          11.7940   -8.5980   15.8580 O.2       3 ALP1        0.0000 
     30 O          12.5015  -12.1640   13.9710 O.2       1 ALC1        0.0000 
     31 O          13.4440  -13.1560   13.2450 O.2       3 ALP1        0.0000 
     32 CA          4.3025  -17.3085   12.2970 C.3       2 GLC5        0.0000 
     33 CA          5.9520  -16.6480   13.6650 C.3       6 GLL5        0.0000 
     34 CA          2.6530  -17.9690   10.9290 C.3       4 GLP5        0.0000 
     35 CA          8.1860  -15.9150   15.5620 C.3       2 GLC5        0.0000 
     36 CA          7.3820  -16.0920   13.7050 C.3       6 GLL5        0.0000 
     37 CA          8.9900  -15.7380   17.4190 C.3       4 GLP5        0.0000 
     38 CA          6.9560  -14.2645   12.6265 C.3       2 GLC5        0.0000 
     39 CA          6.5300  -12.4370   11.5480 C.3       4 GLP5        0.0000 
     40 CA          3.5063  -16.7205   18.4305 C.3       2 GLC5        0.0000 
     41 CA          4.4820  -17.9590   17.5000 C.3       6 GLL5        0.0000 
     42 CA          2.9500  -15.8420   19.7840 C.3       4 GLP5        0.0000 
     43 CA          7.3072  -18.5567   14.5128 C.3       2 GLC5        0.0000 
     44 CA          6.2500  -17.8250   15.8770 C.3       6 GLL5        0.0000 
     45 CA          8.7830  -19.6500   13.5740 C.3       4 GLP5        0.0000 
     46 CA          6.2913  -19.8840   16.2655 C.3       2 GLC5        0.0000 
     47 CA          5.3868  -18.4205   13.1997 C.3       2 GLC5        0.0000 
     48 CA          5.4130  -17.1020   15.0260 C.3       6 GLL5        0.0000 
     49 CA          5.0910  -19.9660   12.0540 C.3       4 GLP5        0.0000 
     50 CA          7.7250  -18.0100   13.6295 C.3       2 GLC5        0.0000 
@<TRIPOS>BOND
@<TRIPOS>SUBSTRUCTURE
     1 ALC1       27 GROUP        1 X    ALC  0     ROOT ALC X 1
     2 GLC5        1 GROUP        1 X    GLC  0     **** GLC X 6
     3 ALP1       29 GROUP        1 Y    ALP  0     ROOT ALP Y 8
     4 GLP5        3 GROUP        1 Y    GLP  0     **** GLP Y 13
     5 ALL1       28 GROUP        1 Z    ALL  0     ROOT ALL Z 15
     6 GLL5        2 GROUP        1 Z    GLL  0     **** GLL Z 20
@<TRIPOS>SET

