#    Name: 3mcv_MCV_1_ligand
#    Modification time : Mon Mar 24 22:59:18 2014

@<TRIPOS>MOLECULE
3mcv_MCV_1_ligand
   41    43     1     0     0
SMALL
NO_CHARGES


@<TRIPOS>ATOM
      1 N1         10.8590  -13.3160   14.0600 N.ar      1 MCV300      0.0000 
      2 C2         10.6060  -12.0650   14.5530 C.ar      1 MCV300      0.0000 
      3 N3          9.3770  -11.6910   14.9310 N.ar      1 MCV300      0.0000 
      4 C4          8.3580  -12.5560   14.8010 C.ar      1 MCV300      0.0000 
      5 C5          8.5730  -13.8700   14.2990 C.ar      1 MCV300      0.0000 
      6 C6          9.8760  -14.2160   13.9160 C.ar      1 MCV300      0.0000 
      7 CAA         6.2380  -19.1570   19.2960 C.3       1 MCV300      0.0000 
      8 CAB         1.9490  -15.8290   14.9520 C.3       1 MCV300      0.0000 
      9 NAC        11.5590  -11.1720   14.6970 N.pl3     1 MCV300      0.0000 
     10 NAD        10.1520  -15.4450   13.4150 N.pl3     1 MCV300      0.0000 
     11 CAE         4.4820  -17.9590   17.5000 C.ar      1 MCV300      0.0000 
     12 CAF         3.6430  -17.2390   16.6540 C.ar      1 MCV300      0.0000 
     13 CAG         6.2920  -14.0230   14.7150 C.2       1 MCV300      0.0000 
     14 CAH         6.2500  -17.8250   15.8770 C.ar      1 MCV300      0.0000 
     15 CAI         5.9520  -16.6480   13.6650 C.3       1 MCV300      0.0000 
     16 CAJ         7.3820  -16.0920   13.7050 C.3       1 MCV300      0.0000 
     17 OAM         6.6670  -18.9390   17.9170 O.3       1 MCV300      0.0000 
     18 OAN         3.3330  -16.1040   14.5460 O.3       1 MCV300      0.0000 
     19 SAO         6.7430  -12.4250   15.2290 S.3       1 MCV300      0.0000 
     20 CAP         5.7910  -18.2610   17.1150 C.ar      1 MCV300      0.0000 
     21 CAR         5.4130  -17.1020   15.0260 C.ar      1 MCV300      0.0000 
     22 CAT         7.3920  -14.6570   14.2530 C.2       1 MCV300      0.0000 
     23 CAU         4.1050  -16.8090   15.4230 C.ar      1 MCV300      0.0000 
     24 H          11.2853  -10.2969   15.0961 H         1 MCV300      0.0000 
     25 H          12.4710  -11.4490   14.3943 H         1 MCV300      0.0000 
     26 H           9.3822  -16.0809   13.3602 H         1 MCV300      0.0000 
     27 H          11.1010  -15.6070   13.1446 H         1 MCV300      0.0000 
     28 H           4.1368  -18.2733   18.4193 H         1 MCV300      0.0000 
     29 H           2.6793  -17.0285   16.9481 H         1 MCV300      0.0000 
     30 H           5.4072  -14.2036   14.8252 H         1 MCV300      0.0000 
     31 H           7.2154  -18.0363   15.5835 H         1 MCV300      0.0000 
     32 H           5.9219  -17.5010   12.9668 H         1 MCV300      0.0000 
     33 H           5.2814  -15.8743   13.2558 H         1 MCV300      0.0000 
     34 H           7.7949  -16.0933   12.6999 H         1 MCV300      0.0000 
     35 H           7.9936  -16.7227   14.3444 H         1 MCV300      0.0000 
     36 H           6.9239  -19.6584   19.8235 H         1 MCV300      0.0000 
     37 H           6.0732  -18.2945   19.7744 H         1 MCV300      0.0000 
     38 H           5.3897  -19.6844   19.3421 H         1 MCV300      0.0000 
     39 H           1.9088  -15.3004   15.7999 H         1 MCV300      0.0000 
     40 H           1.4550  -15.3064   14.2571 H         1 MCV300      0.0000 
     41 H           1.4331  -16.6715   15.1070 H         1 MCV300      0.0000 
@<TRIPOS>BOND
     1    2    1 ar   
     2    6    1 ar   
     3    3    2 ar   
     4    9    2 1    
     5    4    3 ar   
     6    5    4 ar   
     7   19    4 1    
     8    6    5 ar   
     9   22    5 1    
    10   10    6 1    
    11   17    7 1    
    12   36    7 1    
    13   37    7 1    
    14   38    7 1    
    15   18    8 1    
    16   39    8 1    
    17   40    8 1    
    18   41    8 1    
    19   24    9 1    
    20   25    9 1    
    21   26   10 1    
    22   27   10 1    
    23   12   11 ar   
    24   20   11 ar   
    25   28   11 1    
    26   23   12 ar   
    27   29   12 1    
    28   19   13 1    
    29   22   13 2    
    30   30   13 1    
    31   20   14 ar   
    32   21   14 ar   
    33   31   14 1    
    34   16   15 1    
    35   21   15 1    
    36   32   15 1    
    37   33   15 1    
    38   22   16 1    
    39   34   16 1    
    40   35   16 1    
    41   20   17 1    
    42   23   18 1    
    43   23   21 ar   
@<TRIPOS>SUBSTRUCTURE
     1 MCV300      1 GROUP   
@<TRIPOS>SET

