#    Name: 2wi4_ZZ4_1_INTS_M
#    Modification time : Tue Mar 25 04:22:57 2014

@<TRIPOS>MOLECULE
2wi4_ZZ4_1_INTS_M
   52     0     6     0     0
SMALL
NO_CHARGES


@<TRIPOS>ATOM
      1 CA          7.8845   11.7185   21.6980 C.3       2 GLC5        0.0000 
      2 CA          6.3250   11.0900   22.6650 C.3       6 GLL5        0.0000 
      3 CA          9.4440   12.3470   20.7310 C.3       4 GLP5        0.0000 
      4 CA          1.6190   13.6875   26.2785 C.3       2 GLC5        0.0000 
      5 CA          1.8470   13.7130   24.5380 C.3       6 GLL5        0.0000 
      6 CA          1.3910   13.6620   28.0190 C.3       4 GLP5        0.0000 
      7 CA          2.6535   14.1295   22.7660 C.3       2 GLC5        0.0000 
      8 CA          3.4600   14.5460   20.9940 C.3       4 GLP5        0.0000 
      9 CA          1.3545   15.3745   25.4395 C.3       2 GLC5        0.0000 
     10 CA          0.8620   17.0360   26.3410 C.3       4 GLP5        0.0000 
     11 CA         -0.0180   14.2645   25.3780 C.3       2 GLC5        0.0000 
     12 CA         -1.8830   14.8160   26.2180 C.3       4 GLP5        0.0000 
     13 CA          0.4790   15.0405   23.4495 C.3       2 GLC5        0.0000 
     14 CA         -0.8890   16.3680   22.3610 C.3       4 GLP5        0.0000 
     15 CA          0.0655   10.1980   22.8215 C.3       2 GLC5        0.0000 
     16 CA          0.6450   10.8050   24.8340 C.3       6 GLL5        0.0000 
     17 CA         -0.5140    9.5910   20.8090 C.3       4 GLP5        0.0000 
     18 CA         -2.3100    9.0495   26.4600 C.3       2 GLC5        0.0000 
     19 CA         -0.9470   10.1490   26.5920 C.3       6 GLL5        0.0000 
     20 CA         -3.6730    7.9500   26.3280 C.3       4 GLP5        0.0000 
     21 CA          0.3025   10.7585   28.1070 C.3       2 GLC5        0.0000 
     22 CA          1.5520   11.3680   29.6220 C.3       4 GLP5        0.0000 
     23 CA         -2.0240   12.1175   26.7080 C.3       2 GLC5        0.0000 
     24 CA         -3.1010   14.0860   26.8240 C.3       4 GLP5        0.0000 
     25 CA         -1.0820   10.4100   22.7140 C.3       2 GLC5        0.0000 
     26 CA         -1.6500   11.2290   24.6190 C.3       6 GLL5        0.0000 
     27 CA         -2.6615    9.5895   25.4735 C.3       2 GLC5        0.0000 
     28 CA         -2.3755   12.6575   25.7215 C.3       2 GLC5        0.0000 
     29 O          -3.9570   11.8300   24.0630 O.2       1 ALC1        0.0000 
     30 O          -2.6740   11.7350   23.8880 O.2       5 ALL1        0.0000 
     31 O          -5.2400   11.9250   24.2380 O.2       3 ALP1        0.0000 
     32 CA          5.4100   11.1843   24.8983 C.3       2 GLC5        0.0000 
     33 CA          4.6490   11.0350   23.3060 C.3       6 GLL5        0.0000 
     34 CA          5.3330   11.3060   26.8110 C.3       4 GLP5        0.0000 
     35 CA          4.4646   11.9473   21.7277 C.3       2 GLC5        0.0000 
     36 CA          3.9970   12.2220   23.6250 C.3       6 GLL5        0.0000 
     37 CA          4.5540   12.5670   20.0270 C.3       4 GLP5        0.0000 
     38 CA          2.4173   11.8935   26.2807 C.3       2 GLC5        0.0000 
     39 CA          2.7010   12.1900   24.1220 C.3       6 GLL5        0.0000 
     40 CA          2.4680   12.2530   28.3480 C.3       4 GLP5        0.0000 
     41 CA          1.4872   11.3745   26.9205 C.3       2 GLC5        0.0000 
     42 CA          4.4870    8.6573   27.9420 C.3       2 GLC5        0.0000 
     43 CA          2.2810    8.0480   28.3000 C.3       6 GLL5        0.0000 
     44 CA          6.0510    9.0060   27.6370 C.3       4 GLP5        0.0000 
     45 CA          5.2588    8.2625   28.5213 C.3       2 GLC5        0.0000 
     46 CA          4.5940    8.0430   28.9670 C.3       6 GLL5        0.0000 
     47 CA          4.6156    9.0578   30.5581 C.3       2 GLC5        0.0000 
     48 CA          3.5650    8.5690   28.1940 C.3       6 GLL5        0.0000 
     49 CA          5.0220   10.4650   31.9040 C.3       4 GLP5        0.0000 
     50 CA          2.0132    9.5111   29.1670 C.3       2 GLC5        0.0000 
     51 CA          4.1791   11.2845   25.3777 C.3       2 GLC5        0.0000 
     52 CA          2.0320   10.8780   24.3050 C.3       6 GLL5        0.0000 
@<TRIPOS>BOND
@<TRIPOS>SUBSTRUCTURE
     1 ALC1       29 GROUP        1 X    ALC  0     ROOT ALC X 1
     2 GLC5        1 GROUP        1 X    GLC  0     **** GLC X 6
     3 ALP1       31 GROUP        1 Y    ALP  0     ROOT ALP Y 8
     4 GLP5        3 GROUP        1 Y    GLP  0     **** GLP Y 13
     5 ALL1       30 GROUP        1 Z    ALL  0     ROOT ALL Z 15
     6 GLL5        2 GROUP        1 Z    GLL  0     **** GLL Z 20
@<TRIPOS>SET

