#    Name: 2wi4_ZZ4_1_ligand
#    Modification time : Tue Mar 25 04:22:57 2014

@<TRIPOS>MOLECULE
2wi4_ZZ4_1_ligand
   34    36     1     0     0
SMALL
NO_CHARGES


@<TRIPOS>ATOM
      1 CL1         6.3250   11.0900   22.6650 Cl        1 ZZ41224     0.0000 
      2 C2          4.6490   11.0350   23.3060 C.ar      1 ZZ41224     0.0000 
      3 C1          4.0200    9.8040   23.4780 C.ar      1 ZZ41224     0.0000 
      4 C5          2.7220    9.7200   23.9730 C.ar      1 ZZ41224     0.0000 
      5 C3          3.9970   12.2220   23.6250 C.ar      1 ZZ41224     0.0000 
      6 C4          2.7010   12.1900   24.1220 C.ar      1 ZZ41224     0.0000 
      7 CL2         1.8470   13.7130   24.5380 Cl        1 ZZ41224     0.0000 
      8 C6          2.0320   10.8780   24.3050 C.ar      1 ZZ41224     0.0000 
      9 C7          0.6450   10.8050   24.8340 C.ar      1 ZZ41224     0.0000 
     10 N1         -0.3910   11.3010   24.1270 N.ar      1 ZZ41224     0.0000 
     11 C9          0.3680   10.1870   26.1520 C.ar      1 ZZ41224     0.0000 
     12 C10        -0.9470   10.1490   26.5920 C.ar      1 ZZ41224     0.0000 
     13 N3         -1.9140   10.6660   25.8230 N.ar      1 ZZ41224     0.0000 
     14 C8         -1.6500   11.2290   24.6190 C.ar      1 ZZ41224     0.0000 
     15 N2         -2.6740   11.7350   23.8880 N.pl3     1 ZZ41224     0.0000 
     16 N4          1.4030    9.6560   26.9300 N.2       1 ZZ41224     0.0000 
     17 N5          1.2450    8.5780   27.5220 N.2       1 ZZ41224     0.0000 
     18 C13         2.2810    8.0480   28.3000 C.ar      1 ZZ41224     0.0000 
     19 C14         3.5650    8.5690   28.1940 C.ar      1 ZZ41224     0.0000 
     20 C15         4.5940    8.0430   28.9670 C.ar      1 ZZ41224     0.0000 
     21 C16         4.3390    6.9950   29.8440 C.ar      1 ZZ41224     0.0000 
     22 C11         3.0550    6.4740   29.9490 C.ar      1 ZZ41224     0.0000 
     23 C12         2.0260    7.0000   29.1770 C.ar      1 ZZ41224     0.0000 
     24 H           4.5285    8.9350   23.2327 H         1 ZZ41224     0.0000 
     25 H           2.2764    8.8016   24.0920 H         1 ZZ41224     0.0000 
     26 H           4.4761   13.1223   23.4922 H         1 ZZ41224     0.0000 
     27 H          -1.1564    9.7204   27.5092 H         1 ZZ41224     0.0000 
     28 H          -3.5855   11.6511   24.2905 H         1 ZZ41224     0.0000 
     29 H          -2.4270   12.1474   23.0111 H         1 ZZ41224     0.0000 
     30 H           3.7542    9.3432   27.5443 H         1 ZZ41224     0.0000 
     31 H           5.5440    8.4294   28.8899 H         1 ZZ41224     0.0000 
     32 H           5.1006    6.6055   30.4149 H         1 ZZ41224     0.0000 
     33 H           2.8660    5.6988   30.5983 H         1 ZZ41224     0.0000 
     34 H           1.0759    6.6140   29.2544 H         1 ZZ41224     0.0000 
@<TRIPOS>BOND
     1    2    1 1    
     2    3    2 ar   
     3    5    2 ar   
     4    4    3 ar   
     5   24    3 1    
     6    8    4 ar   
     7   25    4 1    
     8    6    5 ar   
     9   26    5 1    
    10    7    6 1    
    11    8    6 ar   
    12    9    8 1    
    13   10    9 ar   
    14   11    9 ar   
    15   14   10 ar   
    16   12   11 ar   
    17   16   11 1    
    18   13   12 ar   
    19   27   12 1    
    20   14   13 ar   
    21   15   14 1    
    22   28   15 1    
    23   29   15 1    
    24   17   16 2    
    25   18   17 1    
    26   19   18 ar   
    27   23   18 ar   
    28   20   19 ar   
    29   30   19 1    
    30   21   20 ar   
    31   31   20 1    
    32   22   21 ar   
    33   32   21 1    
    34   23   22 ar   
    35   33   22 1    
    36   34   23 1    
@<TRIPOS>SUBSTRUCTURE
     1 ZZ41224     1 GROUP   
@<TRIPOS>SET

