#    Name: 3dak_ANP_2_INTS_M
#    Modification time : Mon Mar 24 23:00:35 2014

@<TRIPOS>MOLECULE
3dak_ANP_2_INTS_M
   49     0    12     0     0
SMALL
NO_CHARGES


@<TRIPOS>ATOM
      1 NZ        -14.5665   -3.2915   59.7730 N.4       3 LYC4        0.0000 
      2 NZ        -14.8210   -4.6560   58.8570 N.4      11 LYL4        0.0000 
      3 NZ        -14.3120   -1.9270   60.6890 N.4       7 LYP4        0.0000 
      4 N         -14.5665   -3.2915   59.7730 N.am      2 SEC2        0.0000 
      5 N         -14.8210   -4.6560   58.8570 N.am     10 SEL2        0.0000 
      6 N         -14.3120   -1.9270   60.6890 N.am      6 SEP2        0.0000 
      7 NZ        -16.5255   -9.9740   55.9235 N.4       3 LYC4        0.0000 
      8 NZ        -15.4910   -9.2350   55.1590 N.4      11 LYL4        0.0000 
      9 NZ        -17.5600  -10.7130   56.6880 N.4       7 LYP4        0.0000 
     10 N         -16.5255   -9.9740   55.9235 N.am      2 SEC2        0.0000 
     11 N         -15.4910   -9.2350   55.1590 N.am     10 SEL2        0.0000 
     12 N         -17.5600  -10.7130   56.6880 N.am      6 SEP2        0.0000 
     13 NZ        -15.7590  -10.9200   56.4210 N.4       3 LYC4        0.0000 
     14 NZ        -13.9580  -11.1270   56.1540 N.4      11 LYL4        0.0000 
     15 CA        -14.7360  -10.9170   52.6860 C.3       4 GLC5        0.0000 
     16 CA        -13.9080   -9.4840   52.8820 C.3      12 GLL5        0.0000 
     17 CA        -15.5640  -12.3500   52.4900 C.3       8 GLP5        0.0000 
     18 CA        -12.7335   -9.5705   49.6355 C.3       4 GLC5        0.0000 
     19 CA        -12.9560   -9.0690   51.7770 C.3      12 GLL5        0.0000 
     20 CA        -12.5110  -10.0720   47.4940 C.3       8 GLP5        0.0000 
     21 CA        -11.5475  -10.2795   51.5845 C.3       4 GLC5        0.0000 
     22 CA        -10.1390  -11.4900   51.3920 C.3       8 GLP5        0.0000 
     23 CA        -13.8280  -10.8995   51.5280 C.3       4 GLC5        0.0000 
     24 CA        -14.7000  -12.7300   51.2790 C.3       8 GLP5        0.0000 
     25 CA        -13.4210   -9.0550   48.8160 C.3       4 GLC5        0.0000 
     26 CA        -14.3310   -8.0380   50.1380 C.3      12 GLL5        0.0000 
     27 CA        -14.8385  -10.1450   50.0520 C.3       4 GLC5        0.0000 
     28 CA        -15.3460  -12.2520   49.9660 C.3       8 GLP5        0.0000 
     29 CA        -18.7755  -10.7945   47.5880 C.3       4 GLC5        0.0000 
     30 CA        -18.8580   -8.8950   48.0950 C.3      12 GLL5        0.0000 
     31 CA        -18.6930  -12.6940   47.0810 C.3       8 GLP5        0.0000 
     32 O         -20.9455   -9.5970   47.2450 O.2       1 ALC1        0.0000 
     33 O         -20.1290   -9.2690   48.3760 O.2       9 ALL1        0.0000 
     34 O         -21.7620   -9.9250   46.1140 O.2       5 ALP1        0.0000 
     35 N         -18.9535   -8.3060   45.4945 N.am      2 SEC2        0.0000 
     36 N         -18.4510   -8.5900   46.8390 N.am     10 SEL2        0.0000 
     37 N         -19.4560   -8.0220   44.1500 N.am      6 SEP2        0.0000 
     38 CA        -17.0725   -9.6525   45.2705 C.3       4 GLC5        0.0000 
     39 CA        -17.1740   -8.2240   46.5760 C.3      12 GLL5        0.0000 
     40 CA        -16.9710  -11.0810   43.9650 C.3       8 GLP5        0.0000 
     41 CA        -18.2375   -7.4260   45.1660 C.3       4 GLC5        0.0000 
     42 CA        -19.3010   -6.6280   43.7560 C.3       8 GLP5        0.0000 
     43 CA        -18.1110   -6.8035   47.8310 C.3       4 GLC5        0.0000 
     44 CA        -19.0480   -5.3830   49.0860 C.3       8 GLP5        0.0000 
     45 CA        -16.2525  -10.4240   49.4827 C.3       4 GLC5        0.0000 
     46 CA        -17.8450   -8.8020   49.1800 C.3      12 GLL5        0.0000 
     47 CA        -19.0048  -10.3397   49.7067 C.3       4 GLC5        0.0000 
     48 CA        -19.6580  -11.8310   50.7760 C.3       8 GLP5        0.0000 
     49 CA        -18.2301   -7.0011   48.9071 C.3       4 GLC5        0.0000 
@<TRIPOS>BOND
@<TRIPOS>SUBSTRUCTURE
     1 ALC1       32 GROUP        1 X    ALC  0     ROOT ALC X 1
     2 SEC2        4 GROUP        1 X    SEC  0     **** SEC X 2
     3 LYC4        1 GROUP        1 X    LYC  0     **** LYC X 4
     4 GLC5       15 GROUP        1 X    GLC  0     **** GLC X 6
     5 ALP1       34 GROUP        1 Y    ALP  0     ROOT ALP Y 8
     6 SEP2        6 GROUP        1 Y    SEP  0     **** SEP Y 9
     7 LYP4        3 GROUP        1 Y    LYP  0     **** LYP Y 11
     8 GLP5       17 GROUP        1 Y    GLP  0     **** GLP Y 13
     9 ALL1       33 GROUP        1 Z    ALL  0     ROOT ALL Z 15
    10 SEL2        5 GROUP        1 Z    SEL  0     **** SEL Z 16
    11 LYL4        2 GROUP        1 Z    LYL  0     **** LYL Z 18
    12 GLL5       16 GROUP        1 Z    GLL  0     **** GLL Z 20
@<TRIPOS>SET

