#    Name: 3dak_ANP_2_ligand
#    Modification time : Mon Mar 24 23:00:35 2014

@<TRIPOS>MOLECULE
3dak_ANP_2_ligand
   43    45     1     0     0
SMALL
NO_CHARGES


@<TRIPOS>ATOM
      1 PG        -14.9470   -5.8120   57.8720 P.3       1 ANP1        0.0000 
      2 O1G       -14.8210   -4.6560   58.8570 O.co2     1 ANP1        0.0000 
      3 O2G       -15.5410   -7.0680   58.4950 O.co2     1 ANP1        0.0000 
      4 O3G       -15.6090   -5.4180   56.5640 O.co2     1 ANP1        0.0000 
      5 PB        -12.9340   -7.1740   55.9420 P.3       1 ANP1        0.0000 
      6 O1B       -11.4480   -7.1340   55.6380 O.co2     1 ANP1        0.0000 
      7 O2B       -13.8690   -6.6970   54.8500 O.co2     1 ANP1        0.0000 
      8 N3B       -13.2900   -6.2430   57.4040 N.4       1 ANP1        0.0000 
      9 PA        -14.1150   -9.7970   55.4440 P.3       1 ANP1        0.0000 
     10 O1A       -15.4910   -9.2350   55.1590 O.co2     1 ANP1        0.0000 
     11 O2A       -13.9580  -11.1270   56.1540 O.co2     1 ANP1        0.0000 
     12 O3A       -13.2780   -8.7180   56.3230 O.3       1 ANP1        0.0000 
     13 O5'       -13.2620   -9.8660   54.0780 O.3       1 ANP1        0.0000 
     14 C5'       -13.9080   -9.4840   52.8820 C.3       1 ANP1        0.0000 
     15 C4'       -12.9560   -9.0690   51.7770 C.3       1 ANP1        0.0000 
     16 O4'       -13.6470   -9.2460   50.5440 O.3       1 ANP1        0.0000 
     17 C3'       -12.7130   -7.5790   51.8120 C.3       1 ANP1        0.0000 
     18 O3'       -11.5760   -7.3220   50.9890 O.3       1 ANP1        0.0000 
     19 C2'       -13.9710   -6.9880   51.1930 C.3       1 ANP1        0.0000 
     20 O2'       -13.6970   -5.6850   50.6660 O.3       1 ANP1        0.0000 
     21 C1'       -14.3310   -8.0380   50.1380 C.3       1 ANP1        0.0000 
     22 N9        -15.7840   -8.3650   49.9750 N.pl3     1 ANP1        0.0000 
     23 C8        -16.6070   -8.7480   50.9660 C.2       1 ANP1        0.0000 
     24 N7        -17.8450   -9.0130   50.5070 N.2       1 ANP1        0.0000 
     25 C5        -17.8450   -8.8020   49.1800 C.ar      1 ANP1        0.0000 
     26 C6        -18.8580   -8.8950   48.0950 C.ar      1 ANP1        0.0000 
     27 N6        -20.1290   -9.2690   48.3760 N.pl3     1 ANP1        0.0000 
     28 N1        -18.4510   -8.5900   46.8390 N.ar      1 ANP1        0.0000 
     29 C2        -17.1740   -8.2240   46.5760 C.ar      1 ANP1        0.0000 
     30 N3        -16.2040   -8.1110   47.5110 N.ar      1 ANP1        0.0000 
     31 C4        -16.4730   -8.3900   48.8190 C.ar      1 ANP1        0.0000 
     32 H         -14.6109   -8.6332   53.0516 H         1 ANP1        0.0000 
     33 H         -14.5438  -10.3092   52.4800 H         1 ANP1        0.0000 
     34 H         -12.0676   -9.5891   51.8176 H         1 ANP1        0.0000 
     35 H         -12.6149   -7.2648   52.7959 H         1 ANP1        0.0000 
     36 H         -14.7288   -7.0000   51.9436 H         1 ANP1        0.0000 
     37 H         -13.9176   -7.7153   49.1862 H         1 ANP1        0.0000 
     38 H         -16.3388   -8.8259   51.9132 H         1 ANP1        0.0000 
     39 H         -20.7608   -9.2974   47.6014 H         1 ANP1        0.0000 
     40 H         -20.3231   -9.4836   49.3332 H         1 ANP1        0.0000 
     41 H         -16.9160   -8.0099   45.5588 H         1 ANP1        0.0000 
     42 H         -11.6128   -8.0183   50.2723 H         1 ANP1        0.0000 
     43 H         -12.7002   -5.6058   50.6773 H         1 ANP1        0.0000 
@<TRIPOS>BOND
     1    2    1 ar   
     2    3    1 ar   
     3    4    1 ar   
     4    8    1 1    
     5    6    5 ar   
     6    7    5 ar   
     7    8    5 1    
     8   12    5 1    
     9   10    9 ar   
    10   11    9 ar   
    11   12    9 1    
    12   13    9 1    
    13   14   13 1    
    14   15   14 1    
    15   32   14 1    
    16   33   14 1    
    17   16   15 1    
    18   17   15 1    
    19   34   15 1    
    20   21   16 1    
    21   18   17 1    
    22   19   17 1    
    23   35   17 1    
    24   42   18 1    
    25   20   19 1    
    26   21   19 1    
    27   36   19 1    
    28   43   20 1    
    29   22   21 1    
    30   37   21 1    
    31   23   22 1    
    32   31   22 1    
    33   24   23 2    
    34   38   23 1    
    35   25   24 1    
    36   26   25 ar   
    37   31   25 ar   
    38   27   26 1    
    39   28   26 ar   
    40   39   27 1    
    41   40   27 1    
    42   29   28 ar   
    43   30   29 ar   
    44   41   29 1    
    45   31   30 ar   
@<TRIPOS>SUBSTRUCTURE
     1 ANP1        1 GROUP   
@<TRIPOS>SET

