#    Name: 3udd_34M_1_INTS_M
#    Modification time : Mon Mar 24 22:10:22 2014

@<TRIPOS>MOLECULE
3udd_34M_1_INTS_M
   69     0     6     0     0
SMALL
NO_CHARGES


@<TRIPOS>ATOM
      1 CA        -22.3080   -3.8495    9.5980 C.3       2 GLC5        0.0000 
      2 CA        -23.9700   -3.1720   10.6020 C.3       6 GLL5        0.0000 
      3 CA        -20.6460   -4.5270    8.5940 C.3       4 GLP5        0.0000 
      4 CA        -22.6990   -1.9050    9.9000 C.3       2 GLC5        0.0000 
      5 CA        -21.4280   -0.6380    9.1980 C.3       4 GLP5        0.0000 
      6 CA        -24.4335   -5.0555   13.4835 C.3       2 GLC5        0.0000 
      7 CA        -24.0280   -3.6140   12.3730 C.3       6 GLL5        0.0000 
      8 CA        -24.8390   -6.4970   14.5940 C.3       4 GLP5        0.0000 
      9 N         -22.9140   -1.4880   16.5425 N.am      1 SEC2        0.0000 
     10 N         -22.5120   -1.6960   15.1040 N.am      5 SEL2        0.0000 
     11 N         -23.3160   -1.2800   17.9810 N.am      3 SEP2        0.0000 
     12 CA        -23.1145    0.8560   13.7975 C.3       2 GLC5        0.0000 
     13 CA        -21.3910    0.2990   14.1490 C.3       6 GLL5        0.0000 
     14 CA        -24.8380    1.4130   13.4460 C.3       4 GLP5        0.0000 
     15 CA        -22.8395    1.9585   13.3035 C.3       2 GLC5        0.0000 
     16 CA        -21.3850    1.1230   13.0090 C.3       6 GLL5        0.0000 
     17 CA        -24.2940    2.7940   13.5980 C.3       4 GLP5        0.0000 
     18 CA        -18.1790    3.6570   13.5525 C.3       2 GLC5        0.0000 
     19 CA        -19.5260    5.0570   13.3690 C.3       6 GLL5        0.0000 
     20 CA        -16.8320    2.2570   13.7360 C.3       4 GLP5        0.0000 
     21 N         -26.4025   -7.4005   11.1645 N.am      1 SEC2        0.0000 
     22 N         -25.9920   -6.4060    9.9520 N.am      5 SEL2        0.0000 
     23 N         -26.8130   -8.3950   12.3770 N.am      3 SEP2        0.0000 
     24 CA        -27.9230   -6.0080    7.1010 C.3       2 GLC5        0.0000 
     25 CA        -26.2870   -6.7560    7.5960 C.3       6 GLL5        0.0000 
     26 CA        -29.5590   -5.2600    6.6060 C.3       4 GLP5        0.0000 
     27 CA        -26.8160   -8.2050    8.9590 C.3       2 GLC5        0.0000 
     28 CA        -27.3450   -9.6540   10.3220 C.3       4 GLP5        0.0000 
     29 CA        -25.4115   -7.2410    5.8975 C.3       2 GLC5        0.0000 
     30 CA        -24.5360   -7.7260    4.1990 C.3       4 GLP5        0.0000 
     31 CA        -26.3600   -5.5360    5.7705 C.3       2 GLC5        0.0000 
     32 CA        -26.4330   -4.3160    3.9450 C.3       4 GLP5        0.0000 
     33 CA        -21.6265   -0.9830    4.4915 C.3       2 GLC5        0.0000 
     34 CA        -23.4980   -0.5030    4.1560 C.3       6 GLL5        0.0000 
     35 CA        -19.7550   -1.4630    4.8270 C.3       4 GLP5        0.0000 
     36 CA        -22.7985    0.3065    5.9300 C.3       2 GLC5        0.0000 
     37 CA        -22.0990    1.1160    7.7040 C.3       4 GLP5        0.0000 
     38 CA        -22.5575   -1.8105    2.9905 C.3       2 GLC5        0.0000 
     39 CA        -21.6170   -3.1180    1.8250 C.3       4 GLP5        0.0000 
     40 CA        -25.0695   -1.8745    3.4715 C.3       2 GLC5        0.0000 
     41 CA        -26.6410   -3.2460    2.7870 C.3       4 GLP5        0.0000 
     42 CA        -19.9802   -1.0257   14.6352 C.3       2 GLC5        0.0000 
     43 CA        -18.8300   -2.5740   14.5110 C.3       4 GLP5        0.0000 
     44 CA        -22.1085    1.2552   16.6980 C.3       2 GLC5        0.0000 
     45 CA        -20.8700    0.7460   15.3700 C.3       6 GLL5        0.0000 
     46 CA        -23.6640    1.1380   17.9930 C.3       4 GLP5        0.0000 
     47 CA        -22.1475    2.3803   15.0425 C.3       2 GLC5        0.0000 
     48 CA        -23.7420    3.3880   14.6820 C.3       4 GLP5        0.0000 
     49 CA        -22.1058    2.9937   14.1860 C.3       2 GLC5        0.0000 
     50 CA        -20.1890    2.8280   14.3000 C.3       6 GLL5        0.0000 
     51 CA        -20.2035    0.5325   11.9678 C.3       2 GLC5        0.0000 
     52 CA        -20.7500    2.3710   13.0800 C.3       6 GLL5        0.0000 
     53 CA        -19.3380   -0.4760   10.6060 C.3       4 GLP5        0.0000 
     54 CA        -18.6566    2.3246   13.8550 C.3       2 GLC5        0.0000 
     55 CA        -26.8528   -3.7700    8.1133 C.3       2 GLC5        0.0000 
     56 CA        -24.6530   -4.1600    7.6690 C.3       6 GLL5        0.0000 
     57 CA        -28.7820   -4.0200    8.6730 C.3       4 GLP5        0.0000 
     58 CA        -25.3023   -4.3685    5.5840 C.3       2 GLC5        0.0000 
     59 CA        -22.7832   -6.1208    5.5150 C.3       2 GLC5        0.0000 
     60 CA        -23.2590   -3.9210    5.6810 C.3       6 GLL5        0.0000 
     61 CA        -22.0920   -7.9400    4.8010 C.3       4 GLP5        0.0000 
     62 CA        -22.1806   -4.3490    7.5230 C.3       2 GLC5        0.0000 
     63 CA        -22.5703   -3.1978    3.6968 C.3       2 GLC5        0.0000 
     64 CA        -24.9783   -3.7967    4.7568 C.3       2 GLC5        0.0000 
     65 CA        -23.7880   -2.6340    5.4560 C.3       6 GLL5        0.0000 
     66 CA        -21.9091   -2.9379    5.8673 C.3       2 GLC5        0.0000 
     67 CA        -20.1870   -2.4080    5.8920 C.3       4 GLP5        0.0000 
     68 CA        -25.7017   -3.4045    5.4215 C.3       2 GLC5        0.0000 
     69 CA        -24.7470   -2.1060    6.3580 C.3       6 GLL5        0.0000 
@<TRIPOS>BOND
@<TRIPOS>SUBSTRUCTURE
     1 SEC2        9 GROUP        1 X    SEC  0     ROOT SEC X 2
     2 GLC5        1 GROUP        1 X    GLC  0     **** GLC X 6
     3 SEP2       11 GROUP        1 Y    SEP  0     ROOT SEP Y 9
     4 GLP5        3 GROUP        1 Y    GLP  0     **** GLP Y 13
     5 SEL2       10 GROUP        1 Z    SEL  0     ROOT SEL Z 16
     6 GLL5        2 GROUP        1 Z    GLL  0     **** GLL Z 20
@<TRIPOS>SET

