#    Name: 3udd_34M_1_ligand
#    Modification time : Mon Mar 24 22:10:22 2014

@<TRIPOS>MOLECULE
3udd_34M_1_ligand
   48    51     1     0     0
SMALL
NO_CHARGES


@<TRIPOS>ATOM
      1 S1        -23.9700   -3.1720   10.6020 S.3       1 34M1        0.0000 
      2 C2        -24.0280   -3.6140   12.3730 C.3       1 34M1        0.0000 
      3 C5        -23.3060   -2.6320   13.2250 C.2       1 34M1        0.0000 
      4 N6        -22.6890   -1.5880   12.9300 N.2       1 34M1        0.0000 
      5 C7        -22.1330   -1.0080   14.0980 C.2       1 34M1        0.0000 
      6 N8        -22.5120   -1.6960   15.1040 N.2       1 34M1        0.0000 
      7 O9        -23.2660   -2.7610   14.5660 O.3       1 34M1        0.0000 
      8 C10       -21.3910    0.2990   14.1490 C.ar      1 34M1        0.0000 
      9 C11       -20.8700    0.7460   15.3700 C.ar      1 34M1        0.0000 
     10 C13       -20.2360    1.9990   15.4360 C.ar      1 34M1        0.0000 
     11 C15       -20.1890    2.8280   14.3000 C.ar      1 34M1        0.0000 
     12 C16       -20.7500    2.3710   13.0800 C.ar      1 34M1        0.0000 
     13 C18       -21.3850    1.1230   13.0090 C.ar      1 34M1        0.0000 
     14 O20       -19.5310    4.0720   14.4280 O.3       1 34M1        0.0000 
     15 C21       -19.5260    5.0570   13.3690 C.3       1 34M1        0.0000 
     16 C25       -24.8900   -4.5650   10.0290 C.2       1 34M1        0.0000 
     17 N26       -25.0700   -4.8720    8.7550 N.pl3     1 34M1        0.0000 
     18 C27       -25.7690   -5.9780    8.7820 C.2       1 34M1        0.0000 
     19 N28       -25.9920   -6.4060    9.9520 N.2       1 34M1        0.0000 
     20 N29       -25.3740   -5.4420   10.8030 N.2       1 34M1        0.0000 
     21 C30       -26.2870   -6.7560    7.5960 C.3       1 34M1        0.0000 
     22 C34       -24.6530   -4.1600    7.6690 C.ar      1 34M1        0.0000 
     23 C35       -23.6900   -4.6820    6.7770 C.ar      1 34M1        0.0000 
     24 C37       -23.2590   -3.9210    5.6810 C.ar      1 34M1        0.0000 
     25 C39       -23.7880   -2.6340    5.4560 C.ar      1 34M1        0.0000 
     26 C40       -24.7470   -2.1060    6.3580 C.ar      1 34M1        0.0000 
     27 C42       -25.1940   -2.8800    7.4380 C.ar      1 34M1        0.0000 
     28 O44       -23.2710   -1.9070    4.3830 O.3       1 34M1        0.0000 
     29 C45       -23.4980   -0.5030    4.1560 C.3       1 34M1        0.0000 
     30 H         -23.5971   -4.6008   12.3605 H         1 34M1        0.0000 
     31 H         -25.0897   -3.6638   12.5455 H         1 34M1        0.0000 
     32 H         -20.9490    0.1676   16.2074 H         1 34M1        0.0000 
     33 H         -19.8072    2.3097   16.3125 H         1 34M1        0.0000 
     34 H         -20.6868    2.9648   12.2454 H         1 34M1        0.0000 
     35 H         -21.8333    0.8174   12.1506 H         1 34M1        0.0000 
     36 H         -23.3086   -5.6189    6.9352 H         1 34M1        0.0000 
     37 H         -22.5556   -4.2997    5.0380 H         1 34M1        0.0000 
     38 H         -25.1075   -1.1608    6.2143 H         1 34M1        0.0000 
     39 H         -25.9191   -2.5149    8.0654 H         1 34M1        0.0000 
     40 H         -19.0159    5.8774   13.6273 H         1 34M1        0.0000 
     41 H         -19.1065    4.7020   12.5335 H         1 34M1        0.0000 
     42 H         -20.4517    5.3504   13.1304 H         1 34M1        0.0000 
     43 H         -25.5444   -7.0667    7.0026 H         1 34M1        0.0000 
     44 H         -26.7960   -7.5690    7.8788 H         1 34M1        0.0000 
     45 H         -26.9028   -6.2063    7.0315 H         1 34M1        0.0000 
     46 H         -23.1660    0.0547    4.9168 H         1 34M1        0.0000 
     47 H         -23.0334   -0.1802    3.3314 H         1 34M1        0.0000 
     48 H         -24.4702   -0.2973    4.0442 H         1 34M1        0.0000 
@<TRIPOS>BOND
     1    2    1 1    
     2   16    1 1    
     3    3    2 1    
     4   30    2 1    
     5   31    2 1    
     6    4    3 2    
     7    7    3 1    
     8    5    4 1    
     9    6    5 2    
    10    8    5 1    
    11    7    6 1    
    12    9    8 ar   
    13   13    8 ar   
    14   10    9 ar   
    15   32    9 1    
    16   11   10 ar   
    17   33   10 1    
    18   12   11 ar   
    19   14   11 1    
    20   13   12 ar   
    21   34   12 1    
    22   35   13 1    
    23   15   14 1    
    24   40   15 1    
    25   41   15 1    
    26   42   15 1    
    27   17   16 1    
    28   20   16 2    
    29   18   17 1    
    30   22   17 1    
    31   19   18 2    
    32   21   18 1    
    33   20   19 1    
    34   43   21 1    
    35   44   21 1    
    36   45   21 1    
    37   23   22 ar   
    38   27   22 ar   
    39   24   23 ar   
    40   36   23 1    
    41   25   24 ar   
    42   37   24 1    
    43   26   25 ar   
    44   28   25 1    
    45   27   26 ar   
    46   38   26 1    
    47   39   27 1    
    48   29   28 1    
    49   46   29 1    
    50   47   29 1    
    51   48   29 1    
@<TRIPOS>SUBSTRUCTURE
     1 34M1        1 GROUP   
@<TRIPOS>SET

