#    Name: 3lpk_Z76_2_INTS_M
#    Modification time : Mon Mar 24 22:01:04 2014

@<TRIPOS>MOLECULE
3lpk_Z76_2_INTS_M
  117     0    12     0     0
SMALL
NO_CHARGES


@<TRIPOS>ATOM
      1 CA         16.2100   31.3675   60.9300 C.3       4 GLC5        0.0000 
      2 CA         16.3380   29.9440   59.3520 C.3      12 GLL5        0.0000 
      3 CA         16.0820   32.7910   62.5080 C.3       8 GLP5        0.0000 
      4 CA         14.9575   33.8405   52.7780 C.3       4 GLC5        0.0000 
      5 CA         16.4880   34.3580   53.6450 C.3      12 GLL5        0.0000 
      6 CA         13.4270   33.3230   51.9110 C.3       8 GLP5        0.0000 
      7 CA         15.9975   35.3250   52.3510 C.3       4 GLC5        0.0000 
      8 CA         15.5070   36.2920   51.0570 C.3       8 GLP5        0.0000 
      9 N          13.7520   32.7890   59.8455 N.am      2 SEC2        0.0000 
     10 N          13.9420   31.8180   58.9030 N.am     10 SEL2        0.0000 
     11 N          13.5620   33.7600   60.7880 N.am      6 SEP2        0.0000 
     12 N          12.6895   32.5250   58.8745 N.am      2 SEC2        0.0000 
     13 N          11.4370   33.2320   58.8460 N.am      6 SEP2        0.0000 
     14 CA         19.3810   30.8060   53.7075 C.3       4 GLC5        0.0000 
     15 CA         20.5650   31.9250   53.1430 C.3      12 GLL5        0.0000 
     16 CA         18.1970   29.6870   54.2720 C.3       8 GLP5        0.0000 
     17 CA         21.2630   30.3290   52.7665 C.3       4 GLC5        0.0000 
     18 CA         21.9610   28.7330   52.3900 C.3       8 GLP5        0.0000 
     19 CA         20.9675   32.8550   51.9080 C.3       4 GLC5        0.0000 
     20 CA         21.3700   33.7850   50.6730 C.3       8 GLP5        0.0000 
     21 O          18.3705   34.4710   58.3305 O.2       1 ALC1        0.0000 
     22 O          19.5810   33.6010   58.2020 O.2       9 ALL1        0.0000 
     23 O          17.1600   35.3410   58.4590 O.2       5 ALP1        0.0000 
     24 N          21.0060   30.3515   57.3555 N.am      2 SEC2        0.0000 
     25 N          20.9150   31.7910   58.0640 N.am     10 SEL2        0.0000 
     26 N          21.0970   28.9120   56.6470 N.am      6 SEP2        0.0000 
     27 OD1        20.5225   36.6485   61.4355 O.co2     3 ASC3        0.0000 
     28 OD1        22.0100   35.3910   61.3010 O.co2    11 ASL3        0.0000 
     29 OD1        19.0350   37.9060   61.5700 O.co2     7 ASP3        0.0000 
     30 OD1        20.7855   35.6515   61.8135 O.co2     3 ASC3        0.0000 
     31 OD1        19.5610   35.9120   62.3260 O.co2     7 ASP3        0.0000 
     32 O          21.0820   37.6415   58.7840 O.2       1 ALC1        0.0000 
     33 O          22.1480   36.2830   58.5610 O.2       9 ALL1        0.0000 
     34 O          20.0160   39.0000   59.0070 O.2       5 ALP1        0.0000 
     35 O          21.7745   37.4050   57.9655 O.2       1 ALC1        0.0000 
     36 O          21.4010   38.5270   57.3700 O.2       5 ALP1        0.0000 
     37 CA         20.4770   29.5220   59.4805 C.3       4 GLC5        0.0000 
     38 CA         18.7840   30.2990   59.4410 C.3      12 GLL5        0.0000 
     39 CA         22.1700   28.7450   59.5200 C.3       8 GLP5        0.0000 
     40 N          12.6285   33.7060   58.1730 N.am      2 SEC2        0.0000 
     41 N          13.8200   34.1800   57.5000 N.am     10 SEL2        0.0000 
     42 N          24.2810   30.6780   58.4365 N.am      2 SEC2        0.0000 
     43 N          25.0210   31.6440   59.1550 N.am     10 SEL2        0.0000 
     44 N          23.5410   29.7120   57.7180 N.am      6 SEP2        0.0000 
     45 N          24.0585   30.4315   59.8300 N.am      2 SEC2        0.0000 
     46 N          23.0960   29.2190   60.5050 N.am      6 SEP2        0.0000 
     47 CA         11.7645   34.3870   54.9580 C.3       4 GLC5        0.0000 
     48 CA         13.4670   33.6750   56.2210 C.3      12 GLL5        0.0000 
     49 CA         10.0620   35.0990   53.6950 C.3       8 GLP5        0.0000 
     50 CA         13.4470   33.4990   54.0660 C.3       4 GLC5        0.0000 
     51 CA         17.3725   28.9645   62.4910 C.3       4 GLC5        0.0000 
     52 CA         17.7810   28.3070   60.5960 C.3      12 GLL5        0.0000 
     53 CA         16.9640   29.6220   64.3860 C.3       8 GLP5        0.0000 
     54 CA         18.7545   36.5300   57.8335 C.3       4 GLC5        0.0000 
     55 CA         20.2650   35.3900   56.6660 C.3      12 GLL5        0.0000 
     56 CA         17.2440   37.6700   59.0010 C.3       8 GLP5        0.0000 
     57 CA         23.5490   34.2180   57.7720 C.3       4 GLC5        0.0000 
     58 CA         23.1830   33.9510   59.6860 C.3      12 GLL5        0.0000 
     59 CA         23.9150   34.4850   55.8580 C.3       8 GLP5        0.0000 
     60 CA         22.3720   36.8290   62.0265 C.3       4 GLC5        0.0000 
     61 CA         22.6490   34.6380   62.3860 C.3      12 GLL5        0.0000 
     62 CA         22.0950   39.0200   61.6670 C.3       8 GLP5        0.0000 
     63 CA         22.4175   35.3920   64.0745 C.3       4 GLC5        0.0000 
     64 CA         22.1860   36.1460   65.7630 C.3       8 GLP5        0.0000 
     65 CA         27.9115   35.3515   54.9605 C.3       4 GLC5        0.0000 
     66 CA         27.5070   35.6000   56.6070 C.3      12 GLL5        0.0000 
     67 CA         28.3160   35.1030   53.3140 C.3       8 GLP5        0.0000 
     68 CA         25.8370   35.6455   55.9155 C.3       4 GLC5        0.0000 
     69 CA         24.1670   35.6910   55.2240 C.3       8 GLP5        0.0000 
     70 CA         29.7005   35.9020   56.6300 C.3       4 GLC5        0.0000 
     71 CA         31.8940   36.2040   56.6530 C.3       8 GLP5        0.0000 
     72 CA         12.6210   36.8170   56.4695 C.3       4 GLC5        0.0000 
     73 CA         13.4930   35.5600   57.6150 C.3      12 GLL5        0.0000 
     74 CA         11.7490   38.0740   55.3240 C.3       8 GLP5        0.0000 
     75 CA         14.6720   35.0920   59.2065 C.3       4 GLC5        0.0000 
     76 CA         15.8510   34.6240   60.7980 C.3       8 GLP5        0.0000 
     77 CA         12.8140   34.6780   59.3660 C.3       4 GLC5        0.0000 
     78 CA         12.1350   33.7960   61.1170 C.3       8 GLP5        0.0000 
     79 CA         30.0950   35.9965   57.8155 C.3       4 GLC5        0.0000 
     80 CA         28.2960   35.7890   58.9780 C.3      12 GLL5        0.0000 
     81 CA         25.7010   32.5840   57.2855 C.3       4 GLC5        0.0000 
     82 CA         26.5600   34.1330   58.4100 C.3      12 GLL5        0.0000 
     83 CA         24.8420   31.0350   56.1610 C.3       8 GLP5        0.0000 
     84 CA         17.9440   30.6393   56.9453 C.3       4 GLC5        0.0000 
     85 CA         17.3510   31.8910   58.2300 C.3      12 GLL5        0.0000 
     86 CA         19.1160   29.7700   55.4910 C.3       8 GLP5        0.0000 
     87 CA         16.3115   33.0662   59.5987 C.3       4 GLC5        0.0000 
     88 CA         18.9140   30.3305   57.2707 C.3       4 GLC5        0.0000 
     89 CA         18.6400   31.4830   58.6600 C.3      12 GLL5        0.0000 
     90 CA         19.6112   28.1893   60.1040 C.3       4 GLC5        0.0000 
     91 CA         17.6320   29.5300   59.7880 C.3      12 GLL5        0.0000 
     92 CA         21.5160   27.4600   60.0160 C.3       8 GLP5        0.0000 
     93 CA         16.7360   30.5160   54.6748 C.3       4 GLC5        0.0000 
     94 CA         15.6680   31.4370   55.7180 C.3      12 GLL5        0.0000 
     95 CA         13.7932   32.3618   53.2740 C.3       4 GLC5        0.0000 
     96 CA         14.8820   31.2530   54.4370 C.3      12 GLL5        0.0000 
     97 CA         22.2587   34.8155   56.7014 C.3       4 GLC5        0.0000 
     98 CA         20.7030   34.4680   57.8210 C.3      12 GLL5        0.0000 
     99 CA         20.5720   36.6732   55.0470 C.3       4 GLC5        0.0000 
    100 CA         21.1820   38.3520   54.0020 C.3       8 GLP5        0.0000 
    101 CA         17.4262   36.3986   54.1885 C.3       4 GLC5        0.0000 
    102 CA         18.3170   34.8570   55.1080 C.3      12 GLL5        0.0000 
    103 CA         17.1360   38.2500   53.9040 C.3       8 GLP5        0.0000 
    104 CA         18.1618   31.6530   53.9845 C.3       4 GLC5        0.0000 
    105 CA         17.7440   34.1170   54.0310 C.3      12 GLL5        0.0000 
    106 CA         19.6260   31.5008   54.9000 C.3       4 GLC5        0.0000 
    107 CA         19.8480   32.8630   53.7710 C.3      12 GLL5        0.0000 
    108 CA         21.9961   32.4840   54.9945 C.3       4 GLC5        0.0000 
    109 CA         23.6770   31.9710   55.8370 C.3       8 GLP5        0.0000 
    110 CA         24.7533   35.3582   63.0625 C.3       4 GLC5        0.0000 
    111 CA         24.0260   34.1710   61.9380 C.3      12 GLL5        0.0000 
    112 CA         26.1690   36.3120   63.9630 C.3       8 GLP5        0.0000 
    113 CA         26.0020   36.9660   57.5407 C.3       4 GLC5        0.0000 
    114 CA         27.4530   35.1700   58.0120 C.3      12 GLL5        0.0000 
    115 CA         24.5240   38.5470   57.7720 C.3       8 GLP5        0.0000 
    116 CA         29.2415   37.0990   60.6803 C.3       4 GLC5        0.0000 
    117 CA         30.2110   38.6160   61.7020 C.3       8 GLP5        0.0000 
@<TRIPOS>BOND
@<TRIPOS>SUBSTRUCTURE
     1 ALC1       21 GROUP        1 X    ALC  0     ROOT ALC X 1
     2 SEC2        9 GROUP        1 X    SEC  0     **** SEC X 2
     3 ASC3       27 GROUP        1 X    ASC  0     **** ASC X 3
     4 GLC5        1 GROUP        1 X    GLC  0     **** GLC X 6
     5 ALP1       23 GROUP        1 Y    ALP  0     ROOT ALP Y 8
     6 SEP2       11 GROUP        1 Y    SEP  0     **** SEP Y 9
     7 ASP3       29 GROUP        1 Y    ASP  0     **** ASP Y 10
     8 GLP5        3 GROUP        1 Y    GLP  0     **** GLP Y 13
     9 ALL1       22 GROUP        1 Z    ALL  0     ROOT ALL Z 15
    10 SEL2       10 GROUP        1 Z    SEL  0     **** SEL Z 16
    11 ASL3       28 GROUP        1 Z    ASL  0     **** ASL Z 17
    12 GLL5        2 GROUP        1 Z    GLL  0     **** GLL Z 20
@<TRIPOS>SET

