#    Name: 3lpk_Z76_2_ligand
#    Modification time : Mon Mar 24 22:01:04 2014

@<TRIPOS>MOLECULE
3lpk_Z76_2_ligand
   89    93     1     0     0
SMALL
NO_CHARGES


@<TRIPOS>ATOM
      1 C1         16.3380   29.9440   59.3520 C.ar      1 Z76456      0.0000 
      2 F1         16.4880   34.3580   53.6450 F         1 Z76456      0.0000 
      3 N1         14.6870   31.7010   56.7660 N.am      1 Z76456      0.0000 
      4 O1         13.9420   31.8180   58.9030 O.2       1 Z76456      0.0000 
      5 S1         25.4030   32.4420   60.2800 S.o2      1 Z76456      0.0000 
      6 C2         16.1930   31.1260   58.5690 C.ar      1 Z76456      0.0000 
      7 F2         20.5650   31.9250   53.1430 F         1 Z76456      0.0000 
      8 N2         19.5810   33.6010   58.2020 N.am      1 Z76456      0.0000 
      9 O2         20.9150   31.7910   58.0640 O.2       1 Z76456      0.0000 
     10 C3         17.3510   31.8910   58.2300 C.ar      1 Z76456      0.0000 
     11 N3         22.0100   35.3910   61.3010 N.4       1 Z76456      0.0000 
     12 O3         22.1480   36.2830   58.5610 O.3       1 Z76456      0.0000 
     13 C4         18.6400   31.4830   58.6600 C.ar      1 Z76456      0.0000 
     14 N4         23.9340   33.2740   60.7670 N.pl3     1 Z76456      0.0000 
     15 C5         18.7840   30.2990   59.4410 C.ar      1 Z76456      0.0000 
     16 O5         13.8200   34.1800   57.5000 O.3       1 Z76456      0.0000 
     17 C6         17.6320   29.5300   59.7880 C.ar      1 Z76456      0.0000 
     18 O6         25.9020   31.8180   61.4680 O.2       1 Z76456      0.0000 
     19 C7         14.8600   31.5680   58.1210 C.2       1 Z76456      0.0000 
     20 O7         25.0210   31.6440   59.1550 O.2       1 Z76456      0.0000 
     21 C8         13.3920   32.1410   56.2530 C.3       1 Z76456      0.0000 
     22 C9         15.6680   31.4370   55.7180 C.3       1 Z76456      0.0000 
     23 C10        14.8820   31.2530   54.4370 C.3       1 Z76456      0.0000 
     24 C11        13.4370   31.5480   54.8370 C.3       1 Z76456      0.0000 
     25 C12        13.4670   33.6750   56.2210 C.3       1 Z76456      0.0000 
     26 C14        17.7810   28.3070   60.5960 C.3       1 Z76456      0.0000 
     27 C15        19.8120   32.2780   58.2880 C.2       1 Z76456      0.0000 
     28 C16        20.7030   34.4680   57.8210 C.3       1 Z76456      0.0000 
     29 C17        21.1770   35.3360   59.0260 C.3       1 Z76456      0.0000 
     30 C18        20.2650   35.3900   56.6660 C.3       1 Z76456      0.0000 
     31 C19        19.6590   34.5990   55.5180 C.ar      1 Z76456      0.0000 
     32 C20        18.3170   34.8570   55.1080 C.ar      1 Z76456      0.0000 
     33 C21        17.7440   34.1170   54.0310 C.ar      1 Z76456      0.0000 
     34 C22        18.5090   33.1210   53.3630 C.ar      1 Z76456      0.0000 
     35 C23        19.8480   32.8630   53.7710 C.ar      1 Z76456      0.0000 
     36 C24        20.4240   33.6000   54.8470 C.ar      1 Z76456      0.0000 
     37 C25        23.1830   33.9510   59.6860 C.3       1 Z76456      0.0000 
     38 C27        24.0260   34.1710   61.9380 C.3       1 Z76456      0.0000 
     39 C28        22.6490   34.6380   62.3860 C.3       1 Z76456      0.0000 
     40 C29        21.8210   34.4950   60.1470 C.3       1 Z76456      0.0000 
     41 C32        27.5070   35.6000   56.6070 C.3       1 Z76456      0.0000 
     42 C34        13.4930   35.5600   57.6150 C.3       1 Z76456      0.0000 
     43 C35        27.3570   34.3420   60.7360 C.ar      1 Z76456      0.0000 
     44 C36        28.2480   35.3750   60.3390 C.ar      1 Z76456      0.0000 
     45 C37        28.2960   35.7890   58.9780 C.ar      1 Z76456      0.0000 
     46 C38        27.4530   35.1700   58.0120 C.ar      1 Z76456      0.0000 
     47 C39        26.5600   34.1330   58.4100 C.ar      1 Z76456      0.0000 
     48 C40        26.5140   33.7200   59.7720 C.ar      1 Z76456      0.0000 
     49 H          15.5191   29.3948   59.6005 H         1 Z76456      0.0000 
     50 H          18.6897   34.0376   58.3814 H         1 Z76456      0.0000 
     51 H          17.2452   32.7407   57.6715 H         1 Z76456      0.0000 
     52 H          19.7046   30.0020   59.7507 H         1 Z76456      0.0000 
     53 H          12.6176   31.7868   56.7870 H         1 Z76456      0.0000 
     54 H          16.2217   30.5329   55.9218 H         1 Z76456      0.0000 
     55 H          16.3431   32.2708   55.5976 H         1 Z76456      0.0000 
     56 H          14.9602   30.2471   54.1007 H         1 Z76456      0.0000 
     57 H          15.2007   31.9581   53.7074 H         1 Z76456      0.0000 
     58 H          13.0071   32.2590   54.1397 H         1 Z76456      0.0000 
     59 H          12.8619   30.6284   54.8179 H         1 Z76456      0.0000 
     60 H          14.2016   33.9513   55.4514 H         1 Z76456      0.0000 
     61 H          12.4867   34.0442   55.8880 H         1 Z76456      0.0000 
     62 H          21.5403   33.8843   57.4822 H         1 Z76456      0.0000 
     63 H          20.3161   35.8406   59.4320 H         1 Z76456      0.0000 
     64 H          21.1356   35.9433   56.3096 H         1 Z76456      0.0000 
     65 H          19.5318   36.1036   57.0458 H         1 Z76456      0.0000 
     66 H          17.7685   35.5687   55.5836 H         1 Z76456      0.0000 
     67 H          18.1004   32.5942   52.5955 H         1 Z76456      0.0000 
     68 H          21.3807   33.4133   55.1361 H         1 Z76456      0.0000 
     69 H          23.0067   33.2549   58.8488 H         1 Z76456      0.0000 
     70 H          23.7688   34.7944   59.2835 H         1 Z76456      0.0000 
     71 H          24.6320   35.0528   61.6954 H         1 Z76456      0.0000 
     72 H          24.5093   33.6541   62.7764 H         1 Z76456      0.0000 
     73 H          22.0546   33.7626   62.6514 H         1 Z76456      0.0000 
     74 H          22.7654   35.2619   63.2733 H         1 Z76456      0.0000 
     75 H          21.1761   33.6931   60.3892 H         1 Z76456      0.0000 
     76 H          27.3204   34.0458   61.7089 H         1 Z76456      0.0000 
     77 H          28.8523   35.8196   61.0267 H         1 Z76456      0.0000 
     78 H          28.9348   36.5297   58.6944 H         1 Z76456      0.0000 
     79 H          25.9573   33.6894   57.7226 H         1 Z76456      0.0000 
     80 H          18.7368   28.1324   60.8327 H         1 Z76456      0.0000 
     81 H          17.2723   28.3651   61.4550 H         1 Z76456      0.0000 
     82 H          17.4466   27.4987   60.1114 H         1 Z76456      0.0000 
     83 H          28.4175   35.4714   56.2140 H         1 Z76456      0.0000 
     84 H          26.8663   35.0862   56.0365 H         1 Z76456      0.0000 
     85 H          27.2782   36.5682   56.5059 H         1 Z76456      0.0000 
     86 H          13.7344   35.9252   58.5141 H         1 Z76456      0.0000 
     87 H          13.9739   36.1135   56.9350 H         1 Z76456      0.0000 
     88 H          12.5147   35.7219   57.4859 H         1 Z76456      0.0000 
     89 H          21.6125   37.0357   58.1781 H         1 Z76456      0.0000 
@<TRIPOS>BOND
     1    6    1 ar   
     2   17    1 ar   
     3   49    1 1    
     4   33    2 1    
     5   19    3 am   
     6   21    3 1    
     7   22    3 1    
     8   19    4 2    
     9   14    5 1    
    10   18    5 2    
    11   20    5 2    
    12   48    5 1    
    13   10    6 ar   
    14   19    6 1    
    15   35    7 1    
    16   27    8 am   
    17   28    8 1    
    18   50    8 1    
    19   27    9 2    
    20   13   10 ar   
    21   51   10 1    
    22   39   11 1    
    23   40   11 1    
    24   29   12 1    
    25   89   12 1    
    26   15   13 ar   
    27   27   13 1    
    28   37   14 1    
    29   38   14 1    
    30   17   15 ar   
    31   52   15 1    
    32   25   16 1    
    33   42   16 1    
    34   26   17 1    
    35   24   21 1    
    36   25   21 1    
    37   53   21 1    
    38   23   22 1    
    39   54   22 1    
    40   55   22 1    
    41   24   23 1    
    42   56   23 1    
    43   57   23 1    
    44   58   24 1    
    45   59   24 1    
    46   60   25 1    
    47   61   25 1    
    48   80   26 1    
    49   81   26 1    
    50   82   26 1    
    51   29   28 1    
    52   30   28 1    
    53   62   28 1    
    54   40   29 1    
    55   63   29 1    
    56   31   30 1    
    57   64   30 1    
    58   65   30 1    
    59   32   31 ar   
    60   36   31 ar   
    61   33   32 ar   
    62   66   32 1    
    63   34   33 ar   
    64   35   34 ar   
    65   67   34 1    
    66   36   35 ar   
    67   68   36 1    
    68   40   37 1    
    69   69   37 1    
    70   70   37 1    
    71   39   38 1    
    72   71   38 1    
    73   72   38 1    
    74   73   39 1    
    75   74   39 1    
    76   75   40 1    
    77   46   41 1    
    78   83   41 1    
    79   84   41 1    
    80   85   41 1    
    81   86   42 1    
    82   87   42 1    
    83   88   42 1    
    84   44   43 ar   
    85   48   43 ar   
    86   76   43 1    
    87   45   44 ar   
    88   77   44 1    
    89   46   45 ar   
    90   78   45 1    
    91   47   46 ar   
    92   48   47 ar   
    93   79   47 1    
@<TRIPOS>SUBSTRUCTURE
     1 Z76456      1 GROUP   
@<TRIPOS>SET

