#    Name: 3b1d_PLS_1_INTS_M
#    Modification time : Mon Mar 24 18:34:04 2014

@<TRIPOS>MOLECULE
3b1d_PLS_1_INTS_M
   78     0    12     0     0
SMALL
NO_CHARGES


@<TRIPOS>ATOM
      1 CA         22.1855   68.5410   65.8555 C.3       4 GLC5        0.0000 
      2 CA         21.9660   66.8610   65.2350 C.3      12 GLL5        0.0000 
      3 CA         22.4050   70.2210   66.4760 C.3       8 GLP5        0.0000 
      4 CA         19.4525   67.4795   63.8655 C.3       4 GLC5        0.0000 
      5 CA         20.6130   66.3050   64.7790 C.3      12 GLL5        0.0000 
      6 CA         18.2920   68.6540   62.9520 C.3       8 GLP5        0.0000 
      7 CA         19.1425   67.0910   66.0120 C.3       4 GLC5        0.0000 
      8 CA         17.6720   67.8770   67.2450 C.3       8 GLP5        0.0000 
      9 N          21.1970   64.1820   64.3975 N.am      2 SEC2        0.0000 
     10 N          20.4080   64.9710   65.2350 N.am     10 SEL2        0.0000 
     11 N          21.9860   63.3930   63.5600 N.am      6 SEP2        0.0000 
     12 NZ         23.2090   67.0875   68.4895 N.4       3 LYC4        0.0000 
     13 NZ         21.4920   67.0120   67.5270 N.4      11 LYL4        0.0000 
     14 NZ         24.1170   67.5450   70.2750 N.4       7 LYP4        0.0000 
     15 N          20.9195   68.3285   67.6185 N.am      2 SEC2        0.0000 
     16 N          21.4920   67.0120   67.5270 N.am     10 SEL2        0.0000 
     17 N          20.3470   69.6450   67.7100 N.am      6 SEP2        0.0000 
     18 N          22.1810   67.4160   68.7630 N.am      2 SEC2        0.0000 
     19 N          22.8700   67.8200   69.9990 N.am      6 SEP2        0.0000 
     20 NZ         23.5480   66.3550   66.9800 N.4      11 LYL4        0.0000 
     21 N          25.1235   66.3155   66.8630 N.am      2 SEC2        0.0000 
     22 N          23.5480   66.3550   66.9800 N.am     10 SEL2        0.0000 
     23 N          26.6990   66.2760   66.7460 N.am      6 SEP2        0.0000 
     24 N          24.1905   66.5975   68.1980 N.am      2 SEC2        0.0000 
     25 N          24.8330   66.8400   69.4160 N.am      6 SEP2        0.0000 
     26 N          23.2090   67.0875   68.4895 N.am      2 SEC2        0.0000 
     27 N          27.1110   63.8745   60.5245 N.am      2 SEC2        0.0000 
     28 N          26.1340   64.4260   61.1180 N.am     10 SEL2        0.0000 
     29 N          28.0880   63.3230   59.9310 N.am      6 SEP2        0.0000 
     30 CA         26.6820   63.4750   63.3480 C.3       4 GLC5        0.0000 
     31 CA         27.9380   64.7840   62.7950 C.3      12 GLL5        0.0000 
     32 CA         25.4260   62.1660   63.9010 C.3       8 GLP5        0.0000 
     33 CA         28.2470   62.6910   62.4040 C.3       4 GLC5        0.0000 
     34 CA         28.5560   60.5980   62.0130 C.3       8 GLP5        0.0000 
     35 CA         29.5360   64.5370   63.2195 C.3       4 GLC5        0.0000 
     36 CA         31.1340   64.2900   63.6440 C.3       8 GLP5        0.0000 
     37 CA         28.5310   65.5885   64.7165 C.3       4 GLC5        0.0000 
     38 CA         29.1240   66.3930   66.6380 C.3       8 GLP5        0.0000 
     39 N          26.3095   66.3315   65.4355 N.am      2 SEC2        0.0000 
     40 N          25.9200   66.3870   64.1250 N.am     10 SEL2        0.0000 
     41 O          26.6175   67.5510   64.0290 O.2       1 ALC1        0.0000 
     42 O          25.9200   66.3870   64.1250 O.2       9 ALL1        0.0000 
     43 O          27.3150   68.7150   63.9330 O.2       5 ALP1        0.0000 
     44 CA         23.2550   64.9650   63.6650 C.3       4 GLC5        0.0000 
     45 CA         23.2820   66.8460   63.2250 C.3      12 GLL5        0.0000 
     46 CA         23.2280   63.0840   64.1050 C.3       8 GLP5        0.0000 
     47 CA         25.4425   64.1585   58.8695 C.3       4 GLC5        0.0000 
     48 CA         24.9070   64.6120   60.6120 C.3      12 GLL5        0.0000 
     49 CA         25.9780   63.7050   57.1270 C.3       8 GLP5        0.0000 
     50 CA         22.8830   64.3390   62.4290 C.3       4 GLC5        0.0000 
     51 CA         22.5380   65.5940   60.7530 C.3      12 GLL5        0.0000 
     52 CA         22.2480   67.6175   61.2055 C.3       4 GLC5        0.0000 
     53 CA         21.9580   69.6410   61.6580 C.3       8 GLP5        0.0000 
     54 N          21.7705   62.8265   57.8005 N.am      2 SEC2        0.0000 
     55 N          20.7550   63.8230   58.2580 N.am     10 SEL2        0.0000 
     56 N          22.7860   61.8300   57.3430 N.am      6 SEP2        0.0000 
     57 N          22.0850   64.9715   56.4505 N.am      2 SEC2        0.0000 
     58 N          21.6390   65.9740   57.3800 N.am     10 SEL2        0.0000 
     59 N          22.5310   63.9690   55.5210 N.am      6 SEP2        0.0000 
     60 N          20.0270   66.8385   60.3475 N.am      2 SEC2        0.0000 
     61 N          20.2360   66.1080   59.2160 N.am     10 SEL2        0.0000 
     62 N          19.8180   67.5690   61.4790 N.am      6 SEP2        0.0000 
     63 CA         22.3873   65.0040   65.2155 C.3       4 GLC5        0.0000 
     64 CA         23.4850   63.4250   65.4240 C.3       8 GLP5        0.0000 
     65 CA         27.1335   66.3762   61.4417 C.3       4 GLC5        0.0000 
     66 CA         26.5000   65.0130   62.2580 C.3      12 GLL5        0.0000 
     67 CA         27.0480   67.8540   60.3570 C.3       8 GLP5        0.0000 
     68 CA         25.9972   66.8730   61.5413 C.3       4 GLC5        0.0000 
     69 CA         25.5880   65.7910   62.9670 C.3      12 GLL5        0.0000 
     70 CA         27.4337   67.1119   62.9754 C.3       4 GLC5        0.0000 
     71 CA         28.4640   68.8790   63.2040 C.3       8 GLP5        0.0000 
     72 CA         22.8757   68.0303   62.2563 C.3       4 GLC5        0.0000 
     73 CA         24.3050   65.9930   62.4840 C.3      12 GLL5        0.0000 
     74 CA         22.9684   63.3510   60.5784 C.3       4 GLC5        0.0000 
     75 CA         23.9600   65.3840   61.2970 C.3      12 GLL5        0.0000 
     76 CA         22.4510   61.4060   60.3030 C.3       8 GLP5        0.0000 
     77 CA         23.9739   66.6435   59.7939 C.3       4 GLC5        0.0000 
     78 CA         24.4620   67.9910   58.7340 C.3       8 GLP5        0.0000 
@<TRIPOS>BOND
@<TRIPOS>SUBSTRUCTURE
     1 ALC1       41 GROUP        1 X    ALC  0     ROOT ALC X 1
     2 SEC2        9 GROUP        1 X    SEC  0     **** SEC X 2
     3 LYC4       12 GROUP        1 X    LYC  0     **** LYC X 4
     4 GLC5        1 GROUP        1 X    GLC  0     **** GLC X 6
     5 ALP1       43 GROUP        1 Y    ALP  0     ROOT ALP Y 8
     6 SEP2       11 GROUP        1 Y    SEP  0     **** SEP Y 9
     7 LYP4       14 GROUP        1 Y    LYP  0     **** LYP Y 11
     8 GLP5        3 GROUP        1 Y    GLP  0     **** GLP Y 13
     9 ALL1       42 GROUP        1 Z    ALL  0     ROOT ALL Z 15
    10 SEL2       10 GROUP        1 Z    SEL  0     **** SEL Z 16
    11 LYL4       13 GROUP        1 Z    LYL  0     **** LYL Z 18
    12 GLL5        2 GROUP        1 Z    GLL  0     **** GLL Z 20
@<TRIPOS>SET

