#    Name: 3b1d_PLS_1_ligand
#    Modification time : Mon Mar 24 18:34:04 2014

@<TRIPOS>MOLECULE
3b1d_PLS_1_ligand
   35    35     1     0     0
SMALL
NO_CHARGES


@<TRIPOS>ATOM
      1 N          23.0400   66.3190   64.4050 N.4       1 PLS501      0.0000 
      2 CA         21.9660   66.8610   65.2350 C.3       1 PLS501      0.0000 
      3 CB         20.6130   66.3050   64.7790 C.3       1 PLS501      0.0000 
      4 OG         20.4080   64.9710   65.2350 O.3       1 PLS501      0.0000 
      5 C          22.3830   66.7740   66.6990 C.2       1 PLS501      0.0000 
      6 O          21.4920   67.0120   67.5270 O.co2     1 PLS501      0.0000 
      7 OXT        23.5480   66.3550   66.9800 O.co2     1 PLS501      0.0000 
      8 N1         26.1340   64.4260   61.1180 N.ar      1 PLS501      0.0000 
      9 C2         26.5000   65.0130   62.2580 C.ar      1 PLS501      0.0000 
     10 C2A        27.9380   64.7840   62.7950 C.3       1 PLS501      0.0000 
     11 C3         25.5880   65.7910   62.9670 C.ar      1 PLS501      0.0000 
     12 O3         25.9200   66.3870   64.1250 O.3       1 PLS501      0.0000 
     13 C4         24.3050   65.9930   62.4840 C.ar      1 PLS501      0.0000 
     14 C4A        23.2820   66.8460   63.2250 C.3       1 PLS501      0.0000 
     15 C5         23.9600   65.3840   61.2970 C.ar      1 PLS501      0.0000 
     16 C6         24.9070   64.6120   60.6120 C.ar      1 PLS501      0.0000 
     17 C5A        22.5380   65.5940   60.7530 C.3       1 PLS501      0.0000 
     18 O4P        22.4950   65.2440   59.4760 O.3       1 PLS501      0.0000 
     19 P          21.1810   65.2760   58.5060 P.3       1 PLS501      0.0000 
     20 O1P        20.7550   63.8230   58.2580 O.co2     1 PLS501      0.0000 
     21 O2P        21.6390   65.9740   57.3800 O.co2     1 PLS501      0.0000 
     22 O3P        20.2360   66.1080   59.2160 O.co2     1 PLS501      0.0000 
     23 H          21.9418   67.9801   64.9872 H         1 PLS501      0.0000 
     24 H          20.5850   66.3682   63.6764 H         1 PLS501      0.0000 
     25 H          19.8314   66.9894   65.1549 H         1 PLS501      0.0000 
     26 H          23.7062   67.8731   63.2577 H         1 PLS501      0.0000 
     27 H          22.3948   66.9084   62.5579 H         1 PLS501      0.0000 
     28 H          24.6289   64.1899   59.7028 H         1 PLS501      0.0000 
     29 H          22.2945   66.6588   60.9452 H         1 PLS501      0.0000 
     30 H          21.8709   65.0031   61.4132 H         1 PLS501      0.0000 
     31 H          28.6311   65.0999   62.1471 H         1 PLS501      0.0000 
     32 H          28.0958   65.2715   63.6538 H         1 PLS501      0.0000 
     33 H          28.1195   63.8162   62.9697 H         1 PLS501      0.0000 
     34 H          19.4318   64.9166   65.4451 H         1 PLS501      0.0000 
     35 H          26.1108   67.3379   63.8812 H         1 PLS501      0.0000 
@<TRIPOS>BOND
     1    2    1 1    
     2   14    1 1    
     3    3    2 1    
     4    5    2 1    
     5   23    2 1    
     6    4    3 1    
     7   24    3 1    
     8   25    3 1    
     9   34    4 1    
    10    6    5 ar   
    11    7    5 ar   
    12    9    8 ar   
    13   16    8 ar   
    14   10    9 1    
    15   11    9 ar   
    16   31   10 1    
    17   32   10 1    
    18   33   10 1    
    19   12   11 1    
    20   13   11 ar   
    21   35   12 1    
    22   14   13 1    
    23   15   13 ar   
    24   26   14 1    
    25   27   14 1    
    26   16   15 ar   
    27   17   15 1    
    28   28   16 1    
    29   18   17 1    
    30   29   17 1    
    31   30   17 1    
    32   19   18 1    
    33   20   19 ar   
    34   21   19 ar   
    35   22   19 ar   
@<TRIPOS>SUBSTRUCTURE
     1 PLS501      1 GROUP   
@<TRIPOS>SET

