#    Name: 3og7_032_1_INTS_M
#    Modification time : Tue Mar 25 04:33:39 2014

@<TRIPOS>MOLECULE
3og7_032_1_INTS_M
   74     0     9     0     0
SMALL
NO_CHARGES


@<TRIPOS>ATOM
      1 CA          0.2665   -0.2745  -17.2905 C.3       3 GLC5        0.0000 
      2 CA          1.9340   -1.2310  -18.3570 C.3       9 GLL5        0.0000 
      3 CA         -1.4010    0.6820  -16.2240 C.3       6 GLP5        0.0000 
      4 CA         -2.8185   -4.7885  -20.9665 C.3       3 GLC5        0.0000 
      5 CA         -2.2070   -2.7780  -20.3740 C.3       9 GLL5        0.0000 
      6 CA         -3.4300   -6.7990  -21.5590 C.3       6 GLP5        0.0000 
      7 CA          6.0855   -2.6080  -16.5100 C.3       3 GLC5        0.0000 
      8 CA          6.3090   -1.9530  -18.3330 C.3       9 GLL5        0.0000 
      9 CA          5.8620   -3.2630  -14.6870 C.3       6 GLP5        0.0000 
     10 N           5.6160   -1.0985  -16.1010 N.am      2 SEC2        0.0000 
     11 N           5.3540   -1.3930  -17.5580 N.am      8 SEL2        0.0000 
     12 N           5.8780   -0.8040  -14.6440 N.am      5 SEP2        0.0000 
     13 O           2.6980   -0.0990  -16.4000 O.2       1 ALC1        0.0000 
     14 O           2.9990   -0.9880  -17.5350 O.2       7 ALL1        0.0000 
     15 O           2.3970    0.7900  -15.2650 O.2       4 ALP1        0.0000 
     16 CA          4.9975   -2.3685  -16.4005 C.3       3 GLC5        0.0000 
     17 CA          4.1330   -1.4740  -18.1140 C.3       9 GLL5        0.0000 
     18 CA         -1.0470   -2.0395  -22.4705 C.3       3 GLC5        0.0000 
     19 CA          0.0730   -2.0290  -20.5490 C.3       9 GLL5        0.0000 
     20 CA         -2.1670   -2.0500  -24.3920 C.3       6 GLP5        0.0000 
     21 CA         -0.3340   -2.6085  -18.7110 C.3       3 GLC5        0.0000 
     22 CA         -0.7410   -3.1880  -16.8730 C.3       6 GLP5        0.0000 
     23 CA          2.0735    0.3820  -21.8940 C.3       3 GLC5        0.0000 
     24 CA          0.4770    0.2870  -20.7820 C.3       9 GLL5        0.0000 
     25 CA          3.6700    0.4770  -23.0060 C.3       6 GLP5        0.0000 
     26 CA          1.5515    1.1465  -19.6070 C.3       3 GLC5        0.0000 
     27 CA          2.6260    2.0060  -18.4320 C.3       6 GLP5        0.0000 
     28 CA         -0.5835   -3.7525  -18.5990 C.3       3 GLC5        0.0000 
     29 CA         -0.4260   -4.3170  -20.3250 C.3       9 GLL5        0.0000 
     30 CA          0.7855   -5.3665  -19.5045 C.3       3 GLC5        0.0000 
     31 CA          1.9970   -6.4160  -18.6840 C.3       6 GLP5        0.0000 
     32 CA         -1.2695   -5.7155  -19.1640 C.3       3 GLC5        0.0000 
     33 CA         -2.1130   -7.1140  -18.0030 C.3       6 GLP5        0.0000 
     34 CA         -1.9280   -5.5580  -20.9420 C.3       3 GLC5        0.0000 
     35 N          -6.5050   -5.4840  -20.5330 N.am      2 SEC2        0.0000 
     36 N          -5.5100   -4.8280  -20.0310 N.am      8 SEL2        0.0000 
     37 N          -7.5000   -6.1400  -21.0350 N.am      5 SEP2        0.0000 
     38 CA         -5.1800   -0.7475  -19.1950 C.3       3 GLC5        0.0000 
     39 CA         -4.9970   -2.7740  -18.5710 C.3       9 GLL5        0.0000 
     40 CA         -5.3630    1.2790  -19.8190 C.3       6 GLP5        0.0000 
     41 CA         -3.7645   -1.1970  -17.8810 C.3       3 GLC5        0.0000 
     42 CA         -2.5320    0.3800  -17.1910 C.3       6 GLP5        0.0000 
     43 CA         -5.3635   -5.3955  -16.9080 C.3       3 GLC5        0.0000 
     44 CA         -5.0160   -3.7200  -17.3780 C.3       9 GLL5        0.0000 
     45 CA         -5.7110   -7.0710  -16.4380 C.3       6 GLP5        0.0000 
     46 CA         -5.4195   -1.5695  -15.2505 C.3       3 GLC5        0.0000 
     47 CA         -4.2770   -3.0960  -16.2050 C.3       9 GLL5        0.0000 
     48 CA         -6.5620   -0.0430  -14.2960 C.3       6 GLP5        0.0000 
     49 CA         -3.4045   -1.3580  -16.6980 C.3       3 GLC5        0.0000 
     50 CA         -5.5615   -4.7620  -16.0950 C.3       3 GLC5        0.0000 
     51 CA         -6.8460   -6.4280  -15.9850 C.3       6 GLP5        0.0000 
     52 CA          8.4535   -2.6620  -22.6915 C.3       3 GLC5        0.0000 
     53 CA          9.4540   -4.1760  -21.7350 C.3       9 GLL5        0.0000 
     54 CA          8.0640   -0.8130  -23.6400 C.3       6 GLP5        0.0000 
     55 CA          0.7043   -2.3733  -17.8985 C.3       3 GLC5        0.0000 
     56 CA         -2.4822   -0.8698  -18.8062 C.3       3 GLC5        0.0000 
     57 CA         -2.1295   -2.1191  -22.4123 C.3       3 GLC5        0.0000 
     58 CA         -2.6580   -1.4610  -20.4690 C.3       9 GLL5        0.0000 
     59 CA         -1.4165   -2.6881  -18.6527 C.3       3 GLC5        0.0000 
     60 CA         -3.7815    0.1692  -20.1788 C.3       3 GLC5        0.0000 
     61 CA         -1.7982   -0.0950  -18.9098 C.3       3 GLC5        0.0000 
     62 CA         -1.7420   -0.4200  -20.6080 C.3       9 GLL5        0.0000 
     63 CA          3.5020   -0.8144  -21.3038 C.3       3 GLC5        0.0000 
     64 CA          3.7810   -2.0440  -19.3350 C.3       9 GLL5        0.0000 
     65 CA          7.6357   -2.2672  -22.1610 C.3       3 GLC5        0.0000 
     66 CA          7.2690   -3.1240  -20.3170 C.3       9 GLL5        0.0000 
     67 CA         -1.0279    0.5663  -22.2431 C.3       3 GLC5        0.0000 
     68 CA         -1.7620    1.2740  -23.7810 C.3       6 GLP5        0.0000 
     69 CA         -6.7097   -3.3900  -18.0213 C.3       3 GLC5        0.0000 
     70 CA         -8.4130   -3.5330  -18.0680 C.3       6 GLP5        0.0000 
     71 CA         -2.6937   -3.2980  -16.8323 C.3       3 GLC5        0.0000 
     72 CA          8.5613   -1.7692  -22.1568 C.3       3 GLC5        0.0000 
     73 CA          8.5140   -2.4650  -20.3230 C.3       9 GLL5        0.0000 
     74 CA          2.8396    0.1736  -18.6281 C.3       3 GLC5        0.0000 
@<TRIPOS>BOND
@<TRIPOS>SUBSTRUCTURE
     1 ALC1       13 GROUP        1 X    ALC  0     ROOT ALC X 1
     2 SEC2       10 GROUP        1 X    SEC  0     **** SEC X 2
     3 GLC5        1 GROUP        1 X    GLC  0     **** GLC X 6
     4 ALP1       15 GROUP        1 Y    ALP  0     ROOT ALP Y 8
     5 SEP2       12 GROUP        1 Y    SEP  0     **** SEP Y 9
     6 GLP5        3 GROUP        1 Y    GLP  0     **** GLP Y 13
     7 ALL1       14 GROUP        1 Z    ALL  0     ROOT ALL Z 15
     8 SEL2       11 GROUP        1 Z    SEL  0     **** SEL Z 16
     9 GLL5        2 GROUP        1 Z    GLL  0     **** GLL Z 20
@<TRIPOS>SET

