#    Name: 3og7_032_1_ligand
#    Modification time : Tue Mar 25 04:33:39 2014

@<TRIPOS>MOLECULE
3og7_032_1_ligand
   51    54     1     0     0
SMALL
NO_CHARGES


@<TRIPOS>ATOM
      1 C10         9.4540   -4.1760  -21.7350 C.ar      1 0321        0.0000 
      2 C15         1.9340   -1.2310  -18.3570 C.2       1 0321        0.0000 
      3 C17         1.5160   -2.3160  -20.5970 C.2       1 0321        0.0000 
      4 C20        -0.8450   -3.0530  -20.4180 C.ar      1 0321        0.0000 
      5 C21        -2.2070   -2.7780  -20.3740 C.ar      1 0321        0.0000 
      6 C22        -2.6580   -1.4610  -20.4690 C.ar      1 0321        0.0000 
      7 C24        -0.3870   -0.7200  -20.6490 C.ar      1 0321        0.0000 
      8 C01         6.1300   -2.5620  -19.5770 C.ar      1 0321        0.0000 
      9 C02         6.3090   -1.9530  -18.3330 C.ar      1 0321        0.0000 
     10 N03         5.3540   -1.3930  -17.5580 N.ar      1 0321        0.0000 
     11 C04         4.8250   -2.6070  -20.0890 C.ar      1 0321        0.0000 
     12 N14         2.9990   -0.9880  -17.5350 N.pl3     1 0321        0.0000 
     13 C16         2.3650   -1.8860  -19.4910 C.2       1 0321        0.0000 
     14 C05         3.7810   -2.0440  -19.3350 C.ar      1 0321        0.0000 
     15 C06         4.1330   -1.4740  -18.1140 C.ar      1 0321        0.0000 
     16 C07         7.2690   -3.1240  -20.3170 C.ar      1 0321        0.0000 
     17 C18         0.0730   -2.0290  -20.5490 C.ar      1 0321        0.0000 
     18 C23        -1.7420   -0.4200  -20.6080 C.ar      1 0321        0.0000 
     19 F25         0.4770    0.2870  -20.7820 F         1 0321        0.0000 
     20 F26        -0.4260   -4.3170  -20.3250 F         1 0321        0.0000 
     21 N27        -3.1160   -3.8770  -20.2300 N.pl3     1 0321        0.0000 
     22 S28        -4.8030   -3.5710  -20.1630 S.o2      1 0321        0.0000 
     23 O29        -5.5100   -4.8280  -20.0310 O.2       1 0321        0.0000 
     24 O30        -5.2060   -2.5980  -21.1570 O.2       1 0321        0.0000 
     25 C31        -4.9970   -2.7740  -18.5710 C.3       1 0321        0.0000 
     26 C32        -5.0160   -3.7200  -17.3780 C.3       1 0321        0.0000 
     27 C33        -4.2770   -3.0960  -16.2050 C.3       1 0321        0.0000 
     28 C08         7.1460   -4.3190  -21.0470 C.ar      1 0321        0.0000 
     29 C09         8.2320   -4.8460  -21.7510 C.ar      1 0321        0.0000 
     30 C11         9.6030   -2.9860  -21.0240 C.ar      1 0321        0.0000 
     31 C12         8.5140   -2.4650  -20.3230 C.ar      1 0321        0.0000 
     32 CL13       10.7950   -4.8200  -22.6010 Cl        1 0321        0.0000 
     33 O19         1.9420   -2.8980  -21.5920 O.2       1 0321        0.0000 
     34 H           1.0193   -0.9847  -18.1772 H         1 0321        0.0000 
     35 H          -3.6643   -1.2598  -20.4364 H         1 0321        0.0000 
     36 H           7.3273   -1.9364  -17.9652 H         1 0321        0.0000 
     37 H           4.6363   -3.0386  -20.9888 H         1 0321        0.0000 
     38 H           2.9526   -0.5426  -16.6804 H         1 0321        0.0000 
     39 H          -2.0640    0.5456  -20.6783 H         1 0321        0.0000 
     40 H          -2.9038   -4.8208  -20.1612 H         1 0321        0.0000 
     41 H          -5.9241   -2.2236  -18.6920 H         1 0321        0.0000 
     42 H          -4.1638   -2.0795  -18.5497 H         1 0321        0.0000 
     43 H          -4.5347   -4.6552  -17.6524 H         1 0321        0.0000 
     44 H          -6.0458   -3.9185  -17.0923 H         1 0321        0.0000 
     45 H           6.2398   -4.8111  -21.0610 H         1 0321        0.0000 
     46 H           8.1288   -5.7196  -22.2752 H         1 0321        0.0000 
     47 H          10.5020   -2.4984  -21.0156 H         1 0321        0.0000 
     48 H           8.6173   -1.5819  -19.7983 H         1 0321        0.0000 
     49 H          -3.3211   -2.9045  -16.4277 H         1 0321        0.0000 
     50 H          -4.6913   -2.2307  -15.9230 H         1 0321        0.0000 
     51 H          -4.2770   -3.6956  -15.4047 H         1 0321        0.0000 
@<TRIPOS>BOND
     1   29    1 ar   
     2   30    1 ar   
     3   32    1 1    
     4   12    2 1    
     5   13    2 2    
     6   34    2 1    
     7   13    3 1    
     8   17    3 1    
     9   33    3 2    
    10    5    4 ar   
    11   17    4 ar   
    12   20    4 1    
    13    6    5 ar   
    14   21    5 1    
    15   18    6 ar   
    16   35    6 1    
    17   17    7 ar   
    18   18    7 ar   
    19   19    7 1    
    20    9    8 ar   
    21   11    8 ar   
    22   16    8 1    
    23   10    9 ar   
    24   36    9 1    
    25   15   10 ar   
    26   14   11 ar   
    27   37   11 1    
    28   15   12 1    
    29   38   12 1    
    30   14   13 1    
    31   15   14 ar   
    32   28   16 ar   
    33   31   16 ar   
    34   39   18 1    
    35   22   21 1    
    36   40   21 1    
    37   23   22 2    
    38   24   22 2    
    39   25   22 1    
    40   26   25 1    
    41   41   25 1    
    42   42   25 1    
    43   27   26 1    
    44   43   26 1    
    45   44   26 1    
    46   49   27 1    
    47   50   27 1    
    48   51   27 1    
    49   29   28 ar   
    50   45   28 1    
    51   46   29 1    
    52   31   30 ar   
    53   47   30 1    
    54   48   31 1    
@<TRIPOS>SUBSTRUCTURE
     1 0321        1 GROUP   
@<TRIPOS>SET

