#    Name: 3pgi_F41_1_INTS_M
#    Modification time : Tue Mar 25 06:32:18 2014

@<TRIPOS>MOLECULE
3pgi_F41_1_INTS_M
   46     0    12     0     0
SMALL
NO_CHARGES


@<TRIPOS>ATOM
      1 CA         -3.3460    0.0480   12.6355 C.3       4 GLC5        0.0000 
      2 CA         -2.5040    0.8930   11.1060 C.3      12 GLL5        0.0000 
      3 CA         -4.1880   -0.7970   14.1650 C.3       8 GLP5        0.0000 
      4 CA         -1.4805    3.2850   12.9385 C.3       4 GLC5        0.0000 
      5 CA         -1.6690    2.0390   11.7050 C.3      12 GLL5        0.0000 
      6 CA         -1.2920    4.5310   14.1720 C.3       8 GLP5        0.0000 
      7 CA         -2.8690    1.2565   13.2005 C.3       4 GLC5        0.0000 
      8 CA         -4.0690    0.4740   14.6960 C.3       8 GLP5        0.0000 
      9 CA         -0.4880    3.5835   12.2710 C.3       4 GLC5        0.0000 
     10 CA         -1.0350    2.9040   10.6050 C.3      12 GLL5        0.0000 
     11 CA          0.0590    4.2630   13.9370 C.3       8 GLP5        0.0000 
     12 OD1        -3.4775    3.7975    9.8650 O.co2     3 ASC3        0.0000 
     13 OD1        -2.0580    3.3730    9.6600 O.co2    11 ASL3        0.0000 
     14 OD1        -4.8970    4.2220   10.0700 O.co2     7 ASP3        0.0000 
     15 O          -3.4775    3.7975    9.8650 O.2       1 ALC1        0.0000 
     16 O          -2.0580    3.3730    9.6600 O.2       9 ALL1        0.0000 
     17 O          -4.8970    4.2220   10.0700 O.2       5 ALP1        0.0000 
     18 CA         -0.7540    3.6665    6.6975 C.3       4 GLC5        0.0000 
     19 CA         -1.5370    4.2810    8.6090 C.3      12 GLL5        0.0000 
     20 CA          0.0290    3.0520    4.7860 C.3       8 GLP5        0.0000 
     21 N          -3.1885    7.0690   10.3960 N.am      2 SEC2        0.0000 
     22 N          -2.2740    6.0350    9.9840 N.am     10 SEL2        0.0000 
     23 N          -4.1030    8.1030   10.8080 N.am      6 SEP2        0.0000 
     24 CA          0.7600    5.6345    6.4410 C.3       4 GLC5        0.0000 
     25 CA          1.0550    6.7540    8.2980 C.3      12 GLL5        0.0000 
     26 CA          0.4650    4.5150    4.5840 C.3       8 GLP5        0.0000 
     27 CA          4.2730   10.5720   10.0940 C.3       4 GLC5        0.0000 
     28 CA          2.5220   10.9090    9.0370 C.3      12 GLL5        0.0000 
     29 CA          6.0240   10.2350   11.1510 C.3       8 GLP5        0.0000 
     30 CA          2.9475   11.9570    7.5405 C.3       4 GLC5        0.0000 
     31 CA          3.3730   13.0050    6.0440 C.3       8 GLP5        0.0000 
     32 CA         -0.6512    0.5675   12.3078 C.3       4 GLC5        0.0000 
     33 CA          0.7840   -0.3310   13.2100 C.3       8 GLP5        0.0000 
     34 CA          0.3815    8.6500    6.6350 C.3       4 GLC5        0.0000 
     35 CA         -0.2580    8.8010    8.4100 C.3      12 GLL5        0.0000 
     36 CA          0.9830    9.1920    4.9490 C.3       8 GLP5        0.0000 
     37 CA         -0.9010    9.1457    9.8925 C.3       4 GLC5        0.0000 
     38 CA         -0.1820    7.4150    8.2320 C.3      12 GLL5        0.0000 
     39 CA         -2.1670    9.5050   11.2990 C.3       8 GLP5        0.0000 
     40 CA          1.2672    9.1630    6.8150 C.3       4 GLC5        0.0000 
     41 CA          0.9500    9.4650    8.6510 C.3      12 GLL5        0.0000 
     42 CA          3.8535    8.4130    7.5340 C.3       4 GLC5        0.0000 
     43 CA          2.1530    8.8030    8.7110 C.3      12 GLL5        0.0000 
     44 CA          5.5020    8.7120    6.4420 C.3       8 GLP5        0.0000 
     45 CA          1.3195    8.1408    6.6843 C.3       4 GLC5        0.0000 
     46 CA          2.2570    7.4250    8.5410 C.3      12 GLL5        0.0000 
@<TRIPOS>BOND
@<TRIPOS>SUBSTRUCTURE
     1 ALC1       15 GROUP        1 X    ALC  0     ROOT ALC X 1
     2 SEC2       21 GROUP        1 X    SEC  0     **** SEC X 2
     3 ASC3       12 GROUP        1 X    ASC  0     **** ASC X 3
     4 GLC5        1 GROUP        1 X    GLC  0     **** GLC X 6
     5 ALP1       17 GROUP        1 Y    ALP  0     ROOT ALP Y 8
     6 SEP2       23 GROUP        1 Y    SEP  0     **** SEP Y 9
     7 ASP3       14 GROUP        1 Y    ASP  0     **** ASP Y 10
     8 GLP5        3 GROUP        1 Y    GLP  0     **** GLP Y 13
     9 ALL1       16 GROUP        1 Z    ALL  0     ROOT ALL Z 15
    10 SEL2       22 GROUP        1 Z    SEL  0     **** SEL Z 16
    11 ASL3       13 GROUP        1 Z    ASL  0     **** ASL Z 17
    12 GLL5        2 GROUP        1 Z    GLL  0     **** GLL Z 20
@<TRIPOS>SET

