#    Name: 3pgi_F41_1_ligand
#    Modification time : Tue Mar 25 06:32:18 2014

@<TRIPOS>MOLECULE
3pgi_F41_1_ligand
   38    40     1     0     0
SMALL
NO_CHARGES


@<TRIPOS>ATOM
      1 C1         -2.5040    0.8930   11.1060 C.3       1 F412001     0.0000 
      2 C2         -1.6690    2.0390   11.7050 C.3       1 F412001     0.0000 
      3 C3         -1.0350    2.9040   10.6050 C.3       1 F412001     0.0000 
      4 N4         -2.0580    3.3730    9.6600 N.4       1 F412001     0.0000 
      5 C5         -2.7980    2.2580    9.0430 C.3       1 F412001     0.0000 
      6 C6         -3.5520    1.4690   10.1310 C.3       1 F412001     0.0000 
      7 C7         -1.5370    4.2810    8.6090 C.3       1 F412001     0.0000 
      8 C8         -1.7560    5.7330    8.9190 C.2       1 F412001     0.0000 
      9 O9         -2.2740    6.0350    9.9840 O.2       1 F412001     0.0000 
     10 N10        -1.3330    6.6140    7.9790 N.am      1 F412001     0.0000 
     11 C11        -0.1820    7.4150    8.2320 C.ar      1 F412001     0.0000 
     12 C12        -0.2580    8.8010    8.4100 C.ar      1 F412001     0.0000 
     13 C13         0.9500    9.4650    8.6510 C.ar      1 F412001     0.0000 
     14 C14         2.1530    8.8030    8.7110 C.ar      1 F412001     0.0000 
     15 C15         2.2570    7.4250    8.5410 C.ar      1 F412001     0.0000 
     16 C16         1.0550    6.7540    8.2980 C.ar      1 F412001     0.0000 
     17 O17         1.0750   10.8240    8.8540 O.3       1 F412001     0.0000 
     18 C18         2.5220   10.9090    9.0370 C.3       1 F412001     0.0000 
     19 O19         3.2250    9.6280    8.9580 O.3       1 F412001     0.0000 
     20 H          -3.0110    0.3657   11.9017 H         1 F412001     0.0000 
     21 H          -1.8524    0.2181   10.5691 H         1 F412001     0.0000 
     22 H          -0.8812    1.6175   12.3275 H         1 F412001     0.0000 
     23 H          -2.3125    2.6622   12.3240 H         1 F412001     0.0000 
     24 H          -0.2788    2.3024   10.0922 H         1 F412001     0.0000 
     25 H          -0.5318    3.7490   11.0839 H         1 F412001     0.0000 
     26 H          -2.8145    3.9671   10.2493 H         1 F412001     0.0000 
     27 H          -2.1185    1.5740    8.5367 H         1 F412001     0.0000 
     28 H          -3.5277    2.6270    8.3237 H         1 F412001     0.0000 
     29 H          -4.2072    2.1311   10.6632 H         1 F412001     0.0000 
     30 H          -4.0956    0.6636    9.6763 H         1 F412001     0.0000 
     31 H          -2.0191    4.0441    7.6411 H         1 F412001     0.0000 
     32 H          -0.4534    4.1035    8.4686 H         1 F412001     0.0000 
     33 H          -1.8172    6.7263    7.0814 H         1 F412001     0.0000 
     34 H          -1.1292    9.2908    8.3672 H         1 F412001     0.0000 
     35 H           3.1293    6.9462    8.5889 H         1 F412001     0.0000 
     36 H           1.0752    5.7197    8.1597 H         1 F412001     0.0000 
     37 H           2.7429   11.3905   10.0238 H         1 F412001     0.0000 
     38 H           2.9507   11.6122    8.2780 H         1 F412001     0.0000 
@<TRIPOS>BOND
     1    2    1 1    
     2    6    1 1    
     3   20    1 1    
     4   21    1 1    
     5    3    2 1    
     6   22    2 1    
     7   23    2 1    
     8    4    3 1    
     9   24    3 1    
    10   25    3 1    
    11    5    4 1    
    12    7    4 1    
    13   26    4 1    
    14    6    5 1    
    15   27    5 1    
    16   28    5 1    
    17   29    6 1    
    18   30    6 1    
    19    8    7 1    
    20   31    7 1    
    21   32    7 1    
    22    9    8 2    
    23   10    8 am   
    24   11   10 1    
    25   33   10 1    
    26   12   11 ar   
    27   16   11 ar   
    28   13   12 ar   
    29   34   12 1    
    30   14   13 ar   
    31   17   13 1    
    32   15   14 ar   
    33   19   14 1    
    34   16   15 ar   
    35   35   15 1    
    36   36   16 1    
    37   18   17 1    
    38   19   18 1    
    39   37   18 1    
    40   38   18 1    
@<TRIPOS>SUBSTRUCTURE
     1 F412001     1 GROUP   
@<TRIPOS>SET

