#    Name: 4lrw_GDP_1_INTS_M
#    Modification time : Tue Apr  8 00:07:19 2014

@<TRIPOS>MOLECULE
4lrw_GDP_1_INTS_M
   72     0    15     0     0
SMALL
NO_CHARGES


@<TRIPOS>ATOM
      1 Zn         17.2425   -3.1100  -40.2840 Zn        4 ZIC7        0.0000 
      2 Zn         16.7870   -3.2080  -41.2290 Zn       14 ZIL7        0.0000 
      3 Zn         17.6980   -3.0120  -39.3390 Zn        9 ZIP7        0.0000 
      4 N          18.1385   -3.3255  -42.1130 N.am      2 SEC2        0.0000 
      5 N          16.7870   -3.2080  -41.2290 N.am     12 SEL2        0.0000 
      6 N          19.4900   -3.4430  -42.9970 N.am      7 SEP2        0.0000 
      7 NZ         14.8850   -0.9810  -41.7275 N.4       3 LYC4        0.0000 
      8 NZ         14.4370   -2.4550  -41.0490 N.4      13 LYL4        0.0000 
      9 NZ         15.3330    0.4930  -42.4060 N.4       8 LYP4        0.0000 
     10 N          13.2375   -2.3915  -41.6060 N.am      2 SEC2        0.0000 
     11 N          14.4370   -2.4550  -41.0490 N.am     12 SEL2        0.0000 
     12 N          12.0380   -2.3280  -42.1630 N.am      7 SEP2        0.0000 
     13 NZ         15.5100   -0.7785  -42.7590 N.4       3 LYC4        0.0000 
     14 NZ         15.6870   -2.0500  -43.1120 N.4      13 LYL4        0.0000 
     15 N          14.2015   -2.4355  -43.9435 N.am      2 SEC2        0.0000 
     16 N          15.6870   -2.0500  -43.1120 N.am     12 SEL2        0.0000 
     17 N          12.7160   -2.8210  -44.7750 N.am      7 SEP2        0.0000 
     18 N          15.3905   -2.9700  -44.3245 N.am      2 SEC2        0.0000 
     19 N          15.0940   -3.8900  -45.5370 N.am      7 SEP2        0.0000 
     20 N          16.6150   -2.4085  -44.0115 N.am      2 SEC2        0.0000 
     21 N          17.5430   -2.7670  -44.9110 N.am      7 SEP2        0.0000 
     22 N          15.5100   -0.7785  -42.7590 N.am      2 SEC2        0.0000 
     23 N          15.3330    0.4930  -42.4060 N.am      7 SEP2        0.0000 
     24 N          15.0330   -4.1530  -44.0595 N.am      2 SEC2        0.0000 
     25 N          14.9720   -4.4160  -42.5820 N.am     12 SEL2        0.0000 
     26 N          18.5160   -5.9350  -43.3595 N.am      2 SEC2        0.0000 
     27 N          17.1300   -5.7990  -42.9100 N.am     12 SEL2        0.0000 
     28 N          19.9020   -6.0710  -43.8090 N.am      7 SEP2        0.0000 
     29 CA         12.6640   -5.4865  -42.6100 C.3       5 GLC5        0.0000 
     30 CA         13.6150   -7.3440  -42.5040 C.3      15 GLL5        0.0000 
     31 CA         11.7130   -3.6290  -42.7160 C.3      10 GLP5        0.0000 
     32 N          12.1535   -7.7570  -45.4900 N.am      2 SEC2        0.0000 
     33 N          13.2530   -8.6440  -44.5080 N.am     12 SEL2        0.0000 
     34 N          11.0540   -6.8700  -46.4720 N.am      7 SEP2        0.0000 
     35 CA         15.0535  -10.7350  -40.9835 C.3       5 GLC5        0.0000 
     36 CA         14.3190   -9.7330  -42.6880 C.3      15 GLL5        0.0000 
     37 CA         15.7880  -11.7370  -39.2790 C.3      10 GLP5        0.0000 
     38 O          14.0870  -11.8645  -41.6350 O.2       1 ALC1        0.0000 
     39 O          13.7200  -10.7520  -41.8830 O.2      11 ALL1        0.0000 
     40 O          14.4540  -12.9770  -41.3870 O.2       6 ALP1        0.0000 
     41 CA         15.6210  -12.2180  -43.0835 C.3       5 GLC5        0.0000 
     42 CA         14.8250  -10.3280  -43.9850 C.3      15 GLL5        0.0000 
     43 CA         16.4170  -14.1080  -42.1820 C.3      10 GLP5        0.0000 
     44 O          16.2480  -11.7970  -43.4990 O.2       1 ALC1        0.0000 
     45 O          14.7660  -11.7550  -43.9250 O.2      11 ALL1        0.0000 
     46 O          17.7300  -11.8390  -43.0730 O.2       6 ALP1        0.0000 
     47 CA         13.0450   -8.3820  -46.2425 C.3       5 GLC5        0.0000 
     48 CA         13.8960   -9.7930  -45.0630 C.3      15 GLL5        0.0000 
     49 CA         12.1940   -6.9710  -47.4220 C.3      10 GLP5        0.0000 
     50 N          16.2550   -6.9875  -48.3220 N.am      2 SEC2        0.0000 
     51 N          16.1170   -8.3400  -47.5840 N.am     12 SEL2        0.0000 
     52 N          16.3930   -5.6350  -49.0600 N.am      7 SEP2        0.0000 
     53 CA         17.6655   -8.8865  -48.5490 C.3       5 GLC5        0.0000 
     54 CA         15.5000   -9.2580  -48.3510 C.3      15 GLL5        0.0000 
     55 CA         19.8310   -8.5150  -48.7470 C.3      10 GLP5        0.0000 
     56 N          17.7350   -9.0370  -50.8090 N.am      2 SEC2        0.0000 
     57 N          16.3510   -9.1380  -50.5680 N.am     12 SEL2        0.0000 
     58 N          19.1190   -8.9360  -51.0500 N.am      7 SEP2        0.0000 
     59 N          15.4465   -7.9615  -51.3635 N.am      2 SEC2        0.0000 
     60 N          14.5420   -6.7850  -52.1590 N.am      7 SEP2        0.0000 
     61 O          14.7480  -11.1075  -51.2855 O.2       1 ALC1        0.0000 
     62 O          14.7560  -10.6760  -50.1630 O.2      11 ALL1        0.0000 
     63 O          14.7400  -11.5390  -52.4080 O.2       6 ALP1        0.0000 
     64 O          13.9275  -11.9095  -51.1050 O.2       1 ALC1        0.0000 
     65 O          13.1150  -12.2800  -49.8020 O.2      11 ALL1        0.0000 
     66 O          13.2620  -12.7800  -51.0340 O.2       1 ALC1        0.0000 
     67 O          13.4090  -13.2800  -52.2660 O.2       6 ALP1        0.0000 
     68 CA         15.5353  -11.4307  -45.3705 C.3       5 GLC5        0.0000 
     69 CA         16.7100  -12.8010  -46.2170 C.3      10 GLP5        0.0000 
     70 CA         13.9698   -8.5160  -48.8462 C.3       5 GLC5        0.0000 
     71 CA         14.5450   -9.9580  -47.4800 C.3      15 GLL5        0.0000 
     72 CA         12.9170   -7.4240  -49.7770 C.3      10 GLP5        0.0000 
@<TRIPOS>BOND
@<TRIPOS>SUBSTRUCTURE
     1 ALC1       38 GROUP        1 X    ALC  0     ROOT ALC X 1
     2 SEC2        4 GROUP        1 X    SEC  0     **** SEC X 2
     3 LYC4        7 GROUP        1 X    LYC  0     **** LYC X 4
     4 ZIC7        1 GROUP        1 X    ZIC  0     **** ZIC X 5
     5 GLC5       29 GROUP        1 X    GLC  0     **** GLC X 6
     6 ALP1       40 GROUP        1 Y    ALP  0     ROOT ALP Y 8
     7 SEP2        6 GROUP        1 Y    SEP  0     **** SEP Y 9
     8 LYP4        9 GROUP        1 Y    LYP  0     **** LYP Y 11
     9 ZIP7        3 GROUP        1 Y    ZIP  0     **** ZIP Y 12
    10 GLP5       31 GROUP        1 Y    GLP  0     **** GLP Y 13
    11 ALL1       39 GROUP        1 Z    ALL  0     ROOT ALL Z 15
    12 SEL2        5 GROUP        1 Z    SEL  0     **** SEL Z 16
    13 LYL4        8 GROUP        1 Z    LYL  0     **** LYL Z 18
    14 ZIL7        2 GROUP        1 Z    ZIL  0     **** ZIL Z 19
    15 GLL5       30 GROUP        1 Z    GLL  0     **** GLL Z 20
@<TRIPOS>SET

