#    Name: 4lrw_GDP_1_ligand
#    Modification time : Tue Apr  8 00:07:19 2014

@<TRIPOS>MOLECULE
4lrw_GDP_1_ligand
   40    42     1     0     0
SMALL
NO_CHARGES


@<TRIPOS>ATOM
      1 PB         15.4880   -3.0180  -41.9750 P.3       1 GDP202      0.0000 
      2 O1B        16.7870   -3.2080  -41.2290 O.co2     1 GDP202      0.0000 
      3 O2B        14.4370   -2.4550  -41.0490 O.co2     1 GDP202      0.0000 
      4 O3B        15.6870   -2.0500  -43.1120 O.co2     1 GDP202      0.0000 
      5 O3A        14.9720   -4.4160  -42.5820 O.3       1 GDP202      0.0000 
      6 PA         15.7360   -5.8110  -42.3320 P.3       1 GDP202      0.0000 
      7 O1A        15.7750   -6.1500  -40.8620 O.co2     1 GDP202      0.0000 
      8 O2A        17.1300   -5.7990  -42.9100 O.co2     1 GDP202      0.0000 
      9 O5'        14.7960   -6.8450  -43.1280 O.3       1 GDP202      0.0000 
     10 C5'        13.6150   -7.3440  -42.5040 C.3       1 GDP202      0.0000 
     11 C4'        13.2710   -8.7080  -43.0810 C.3       1 GDP202      0.0000 
     12 O4'        13.2530   -8.6440  -44.5080 O.3       1 GDP202      0.0000 
     13 C3'        14.3190   -9.7330  -42.6880 C.3       1 GDP202      0.0000 
     14 O3'        13.7200  -10.7520  -41.8830 O.3       1 GDP202      0.0000 
     15 C2'        14.8250  -10.3280  -43.9850 C.3       1 GDP202      0.0000 
     16 O2'        14.7660  -11.7550  -43.9250 O.3       1 GDP202      0.0000 
     17 C1'        13.8960   -9.7930  -45.0630 C.3       1 GDP202      0.0000 
     18 N9         14.6690   -9.4090  -46.2690 N.pl3     1 GDP202      0.0000 
     19 C8         15.6010   -8.4410  -46.3330 C.2       1 GDP202      0.0000 
     20 N7         16.1170   -8.3400  -47.5840 N.2       1 GDP202      0.0000 
     21 C5         15.5000   -9.2580  -48.3510 C.2       1 GDP202      0.0000 
     22 C6         15.5650   -9.6860  -49.7680 C.2       1 GDP202      0.0000 
     23 O6         16.3510   -9.1380  -50.5680 O.2       1 GDP202      0.0000 
     24 N1         14.7560  -10.6760  -50.1630 N.am      1 GDP202      0.0000 
     25 C2         13.8990  -11.2850  -49.3220 C.2       1 GDP202      0.0000 
     26 N2         13.1150  -12.2800  -49.8020 N.pl3     1 GDP202      0.0000 
     27 N3         13.7860  -10.9450  -48.0120 N.2       1 GDP202      0.0000 
     28 C4         14.5450   -9.9580  -47.4800 C.2       1 GDP202      0.0000 
     29 H          12.7572   -6.6815  -42.6700 H         1 GDP202      0.0000 
     30 H          13.7454   -7.4589  -41.4214 H         1 GDP202      0.0000 
     31 H          12.3234   -9.0244  -42.6942 H         1 GDP202      0.0000 
     32 H          15.1179   -9.2362  -42.2008 H         1 GDP202      0.0000 
     33 H          15.8050   -9.9591  -44.1678 H         1 GDP202      0.0000 
     34 H          13.1857  -10.5545  -45.3014 H         1 GDP202      0.0000 
     35 H          15.8766   -7.8774  -45.5767 H         1 GDP202      0.0000 
     36 H          14.7884  -10.9948  -51.1738 H         1 GDP202      0.0000 
     37 H          13.2114  -12.4852  -50.7760 H         1 GDP202      0.0000 
     38 H          12.5093  -12.7212  -49.1399 H         1 GDP202      0.0000 
     39 H          14.0139  -11.6140  -42.2960 H         1 GDP202      0.0000 
     40 H          15.7188  -12.0506  -43.8561 H         1 GDP202      0.0000 
@<TRIPOS>BOND
     1    2    1 ar   
     2    3    1 ar   
     3    4    1 ar   
     4    5    1 1    
     5    6    5 1    
     6    7    6 ar   
     7    8    6 ar   
     8    9    6 1    
     9   10    9 1    
    10   11   10 1    
    11   29   10 1    
    12   30   10 1    
    13   12   11 1    
    14   13   11 1    
    15   31   11 1    
    16   17   12 1    
    17   14   13 1    
    18   15   13 1    
    19   32   13 1    
    20   39   14 1    
    21   16   15 1    
    22   17   15 1    
    23   33   15 1    
    24   40   16 1    
    25   18   17 1    
    26   34   17 1    
    27   19   18 1    
    28   28   18 1    
    29   20   19 2    
    30   35   19 1    
    31   21   20 1    
    32   22   21 1    
    33   28   21 2    
    34   23   22 2    
    35   24   22 am   
    36   25   24 1    
    37   36   24 1    
    38   26   25 1    
    39   27   25 2    
    40   37   26 1    
    41   38   26 1    
    42   28   27 1    
@<TRIPOS>SUBSTRUCTURE
     1 GDP202      1 GROUP   
@<TRIPOS>SET

