#    Name: 3lad_FAD_2_INTS_M
#    Modification time : Mon Mar 24 21:14:50 2014

@<TRIPOS>MOLECULE
3lad_FAD_2_INTS_M
  124     0     9     0     0
SMALL
NO_CHARGES


@<TRIPOS>ATOM
      1 N          29.5005   44.7700   -2.6655 N.am      2 SEC2        0.0000 
      2 N          28.1600   44.1870   -3.2750 N.am      8 SEL2        0.0000 
      3 N          30.8410   45.3530   -2.0560 N.am      5 SEP2        0.0000 
      4 N          28.6575   46.7390   -3.9330 N.am      2 SEC2        0.0000 
      5 N          27.8340   46.0250   -4.9190 N.am      8 SEL2        0.0000 
      6 N          29.4810   47.4530   -2.9470 N.am      5 SEP2        0.0000 
      7 CA         27.7965   44.0555   -8.7020 C.3       3 GLC5        0.0000 
      8 CA         28.7970   43.8550   -6.9410 C.3       9 GLL5        0.0000 
      9 CA         26.7960   44.2560  -10.4630 C.3       6 GLP5        0.0000 
     10 CA         27.1485   44.9460   -7.1515 C.3       3 GLC5        0.0000 
     11 CA         25.5000   46.0370   -7.3620 C.3       6 GLP5        0.0000 
     12 CA         30.1400   42.0805   -8.8145 C.3       3 GLC5        0.0000 
     13 CA         30.1760   43.4610   -7.4290 C.3       9 GLL5        0.0000 
     14 CA         30.1040   40.7000  -10.2000 C.3       6 GLP5        0.0000 
     15 CA         31.4930   44.0070   -5.0400 C.3       3 GLC5        0.0000 
     16 CA         31.1920   44.5510   -7.0730 C.3       9 GLL5        0.0000 
     17 CA         31.7940   43.4630   -3.0070 C.3       6 GLP5        0.0000 
     18 N          33.2855   43.4865   -7.5355 N.am      2 SEC2        0.0000 
     19 N          32.2970   44.0850   -6.3050 N.am      8 SEL2        0.0000 
     20 N          34.2740   42.8880   -8.7660 N.am      5 SEP2        0.0000 
     21 O          33.2855   43.4865   -7.5355 O.2       1 ALC1        0.0000 
     22 O          32.2970   44.0850   -6.3050 O.2       7 ALL1        0.0000 
     23 O          34.2740   42.8880   -8.7660 O.2       4 ALP1        0.0000 
     24 O          33.0660   43.0190   -6.5855 O.2       1 ALC1        0.0000 
     25 O          33.8350   41.9530   -6.8660 O.2       4 ALP1        0.0000 
     26 N          33.6930   44.1025   -8.6045 N.am      2 SEC2        0.0000 
     27 N          33.1120   45.3170   -8.4430 N.am      8 SEL2        0.0000 
     28 CA         30.7275   42.3140   -9.7780 C.3       3 GLC5        0.0000 
     29 CA         31.3510   43.9280   -9.3560 C.3       9 GLL5        0.0000 
     30 CA         32.6475   45.4300  -15.1005 C.3       3 GLC5        0.0000 
     31 CA         31.5930   44.1530  -14.1470 C.3       9 GLL5        0.0000 
     32 CA         33.7020   46.7070  -16.0540 C.3       6 GLP5        0.0000 
     33 O          30.9330   43.9315  -16.3865 O.2       1 ALC1        0.0000 
     34 O          30.9660   44.7460  -15.1460 O.2       7 ALL1        0.0000 
     35 O          30.9000   43.1170  -17.6270 O.2       4 ALP1        0.0000 
     36 N          33.0150   42.8630  -15.6980 N.am      2 SEC2        0.0000 
     37 N          32.5380   43.2070  -14.2930 N.am      8 SEL2        0.0000 
     38 N          33.4920   42.5190  -17.1030 N.am      5 SEP2        0.0000 
     39 CA         31.7040   41.7145  -14.1470 C.3       3 GLC5        0.0000 
     40 CA         33.1250   42.6490  -13.2390 C.3       9 GLL5        0.0000 
     41 CA         30.2830   40.7800  -15.0550 C.3       6 GLP5        0.0000 
     42 CA         33.6790   41.0510  -14.2085 C.3       3 GLC5        0.0000 
     43 CA         34.2330   39.4530  -15.1780 C.3       6 GLP5        0.0000 
     44 CA         34.0205   41.5915  -12.0220 C.3       3 GLC5        0.0000 
     45 CA         34.9160   40.5340  -10.8050 C.3       6 GLP5        0.0000 
     46 CA         34.7560   43.6275  -12.8090 C.3       3 GLC5        0.0000 
     47 CA         36.3870   44.6060  -12.3790 C.3       6 GLP5        0.0000 
     48 CA         34.2865   43.1890  -14.8060 C.3       3 GLC5        0.0000 
     49 CA         35.4480   43.7290  -16.3730 C.3       6 GLP5        0.0000 
     50 N          34.3885   42.8235  -11.4935 N.am      2 SEC2        0.0000 
     51 N          32.8400   42.9530  -11.9740 N.am      8 SEL2        0.0000 
     52 N          35.9370   42.6940  -11.0130 N.am      5 SEP2        0.0000 
     53 CA         31.0010   42.2940  -10.9800 C.3       3 GLC5        0.0000 
     54 CA         31.8980   43.8880  -11.7600 C.3       9 GLL5        0.0000 
     55 CA         33.7540   44.8120  -11.7515 C.3       3 GLC5        0.0000 
     56 CA         35.6100   45.7360  -11.7430 C.3       6 GLP5        0.0000 
     57 N          22.8430   44.1565    2.8905 N.am      2 SEC2        0.0000 
     58 N          23.5070   45.3660    3.8940 N.am      8 SEL2        0.0000 
     59 N          22.1790   42.9470    1.8870 N.am      5 SEP2        0.0000 
     60 N          22.3290   43.2685    3.1665 N.am      2 SEC2        0.0000 
     61 N          22.4790   43.5900    4.4460 N.am      8 SEL2        0.0000 
     62 O          23.5845   43.2860    6.7865 O.2       1 ALC1        0.0000 
     63 O          23.7200   44.4890    6.0880 O.2       7 ALL1        0.0000 
     64 O          23.4490   42.0830    7.4850 O.2       4 ALP1        0.0000 
     65 N          25.5800   46.6285    8.5805 N.am      2 SEC2        0.0000 
     66 N          25.0740   45.6230    7.5620 N.am      8 SEL2        0.0000 
     67 N          26.0860   47.6340    9.5990 N.am      5 SEP2        0.0000 
     68 CA         28.8780   53.1825    3.6745 C.3       3 GLC5        0.0000 
     69 CA         28.3480   51.3120    4.5490 C.3       9 GLL5        0.0000 
     70 CA         29.4080   55.0530    2.8000 C.3       6 GLP5        0.0000 
     71 CA         26.2595   51.5555    0.3580 C.3       3 GLC5        0.0000 
     72 CA         27.6650   50.8170    1.6270 C.3       9 GLL5        0.0000 
     73 CA         24.8540   52.2940   -0.9110 C.3       6 GLP5        0.0000 
     74 CA         26.3260   46.0930    3.8230 C.3       3 GLC5        0.0000 
     75 CA         25.6520   48.1370    3.3930 C.3       9 GLL5        0.0000 
     76 CA         27.0000   44.0490    4.2530 C.3       6 GLP5        0.0000 
     77 CA         26.7375   44.5845    1.4620 C.3       3 GLC5        0.0000 
     78 CA         24.9930   45.9660    1.2670 C.3       9 GLL5        0.0000 
     79 CA         28.4820   43.2030    1.6570 C.3       6 GLP5        0.0000 
     80 CA         25.9965   45.0075    2.7600 C.3       3 GLC5        0.0000 
     81 CA         24.5475   43.8945    1.9240 C.3       3 GLC5        0.0000 
     82 CA         24.1020   41.8230    2.5810 C.3       6 GLP5        0.0000 
     83 O          22.4850   45.7735   -1.5365 O.2       1 ALC1        0.0000 
     84 O          23.1090   45.5350   -0.2000 O.2       7 ALL1        0.0000 
     85 O          21.8610   46.0120   -2.8730 O.2       4 ALP1        0.0000 
     86 CA         26.7890   43.8330    0.4195 C.3       3 GLC5        0.0000 
     87 CA         25.0960   44.4630   -0.8180 C.3       9 GLL5        0.0000 
     88 CA         24.0545   43.1530    0.3720 C.3       3 GLC5        0.0000 
     89 CA         23.0130   41.8430    1.5620 C.3       6 GLP5        0.0000 
     90 CA         23.4875   45.3145   -3.6785 C.3       3 GLC5        0.0000 
     91 CA         24.4850   44.1030   -2.1870 C.3       9 GLL5        0.0000 
     92 CA         22.4900   46.5260   -5.1700 C.3       6 GLP5        0.0000 
     93 CA         23.3560   42.3205   -2.5710 C.3       3 GLC5        0.0000 
     94 CA         22.2270   40.5380   -2.9550 C.3       6 GLP5        0.0000 
     95 N          25.6970   40.1650   -4.1085 N.am      2 SEC2        0.0000 
     96 N          25.9150   41.5670   -4.7100 N.am      8 SEL2        0.0000 
     97 N          25.4790   38.7630   -3.5070 N.am      5 SEP2        0.0000 
     98 N          22.7210   43.8375   -5.3750 N.am      2 SEC2        0.0000 
     99 N          24.0780   43.2760   -5.1200 N.am      8 SEL2        0.0000 
    100 N          21.3640   44.3990   -5.6300 N.am      5 SEP2        0.0000 
    101 CA         29.4352   42.1575   -5.7175 C.3       3 GLC5        0.0000 
    102 CA         29.3840   40.6570   -4.2500 C.3       6 GLP5        0.0000 
    103 CA         30.8633   42.5485  -14.2765 C.3       3 GLC5        0.0000 
    104 CA         31.2940   44.4810  -12.8490 C.3       9 GLL5        0.0000 
    105 CA         33.2082   45.4545  -13.1395 C.3       3 GLC5        0.0000 
    106 CA         34.9730   46.5920  -12.7810 C.3       6 GLP5        0.0000 
    107 CA         28.3328   48.4500    4.2828 C.3       3 GLC5        0.0000 
    108 CA         26.0480   48.3440    4.7140 C.3       9 GLL5        0.0000 
    109 CA         30.2050   48.0330    3.6840 C.3       6 GLP5        0.0000 
    110 CA         27.5738   47.2165    5.5118 C.3       3 GLC5        0.0000 
    111 CA         26.8730   49.3900    5.0490 C.3       9 GLL5        0.0000 
    112 CA         28.6870   45.5660    6.1420 C.3       6 GLP5        0.0000 
    113 CA         29.0255   49.4035    4.0028 C.3       3 GLC5        0.0000 
    114 CA         27.3440   50.2360    4.0940 C.3       9 GLL5        0.0000 
    115 CA         26.1586   51.6842    4.5786 C.3       3 GLC5        0.0000 
    116 CA         24.5890   52.8060    4.5970 C.3       6 GLP5        0.0000 
    117 CA         27.7885   48.9922    0.7395 C.3       3 GLC5        0.0000 
    118 CA         27.0630   49.9590    2.7450 C.3       9 GLL5        0.0000 
    119 CA         28.8120   48.3210   -0.8090 C.3       6 GLP5        0.0000 
    120 CA         28.4850   48.8483    2.9860 C.3       3 GLC5        0.0000 
    121 CA         25.6120   51.1073    2.6945 C.3       3 GLC5        0.0000 
    122 CA         24.4590   52.5510    3.1010 C.3       6 GLP5        0.0000 
    123 CA         25.7488   42.5555   -1.0713 C.3       3 GLC5        0.0000 
    124 CA         26.7070   40.8280   -0.6400 C.3       6 GLP5        0.0000 
@<TRIPOS>BOND
@<TRIPOS>SUBSTRUCTURE
     1 ALC1       21 GROUP        1 X    ALC  0     ROOT ALC X 1
     2 SEC2        1 GROUP        1 X    SEC  0     **** SEC X 2
     3 GLC5        7 GROUP        1 X    GLC  0     **** GLC X 6
     4 ALP1       23 GROUP        1 Y    ALP  0     ROOT ALP Y 8
     5 SEP2        3 GROUP        1 Y    SEP  0     **** SEP Y 9
     6 GLP5        9 GROUP        1 Y    GLP  0     **** GLP Y 13
     7 ALL1       22 GROUP        1 Z    ALL  0     ROOT ALL Z 15
     8 SEL2        2 GROUP        1 Z    SEL  0     **** SEL Z 16
     9 GLL5        8 GROUP        1 Z    GLL  0     **** GLL Z 20
@<TRIPOS>SET

