#    Name: 3lad_FAD_2_ligand
#    Modification time : Mon Mar 24 21:14:50 2014

@<TRIPOS>MOLECULE
3lad_FAD_2_ligand
   84    89     1     0     0
SMALL
NO_CHARGES


@<TRIPOS>ATOM
      1 PA         27.7870   44.5960   -4.6490 P.3       1 FAD480      0.0000 
      2 O1A        28.1600   44.1870   -3.2750 O.co2     1 FAD480      0.0000 
      3 O2A        27.8340   46.0250   -4.9190 O.co2     1 FAD480      0.0000 
      4 O5B        28.8070   43.7690   -5.5210 O.3       1 FAD480      0.0000 
      5 C5B        28.7970   43.8550   -6.9410 C.3       1 FAD480      0.0000 
      6 C4B        30.1760   43.4610   -7.4290 C.3       1 FAD480      0.0000 
      7 O4B        30.1300   43.3200   -8.8650 O.3       1 FAD480      0.0000 
      8 C3B        31.1920   44.5510   -7.0730 C.3       1 FAD480      0.0000 
      9 O3B        32.2970   44.0850   -6.3050 O.3       1 FAD480      0.0000 
     10 C2B        31.6960   45.0580   -8.4210 C.3       1 FAD480      0.0000 
     11 O2B        33.1120   45.3170   -8.4430 O.3       1 FAD480      0.0000 
     12 C1B        31.3510   43.9280   -9.3560 C.3       1 FAD480      0.0000 
     13 N9A        31.2970   44.4720  -10.7270 N.pl3     1 FAD480      0.0000 
     14 C8A        30.4240   45.4060  -11.1740 C.2       1 FAD480      0.0000 
     15 N7A        30.3860   45.4000  -12.5220 N.2       1 FAD480      0.0000 
     16 C5A        31.2940   44.4810  -12.8490 C.ar      1 FAD480      0.0000 
     17 C6A        31.5930   44.1530  -14.1470 C.ar      1 FAD480      0.0000 
     18 N6A        30.9660   44.7460  -15.1460 N.pl3     1 FAD480      0.0000 
     19 N1A        32.5380   43.2070  -14.2930 N.ar      1 FAD480      0.0000 
     20 C2A        33.1250   42.6490  -13.2390 C.ar      1 FAD480      0.0000 
     21 N3A        32.8400   42.9530  -11.9740 N.ar      1 FAD480      0.0000 
     22 C4A        31.8980   43.8880  -11.7600 C.ar      1 FAD480      0.0000 
     23 N1         23.5070   45.3660    3.8940 N.2       1 FAD480      0.0000 
     24 C2         23.1650   44.4740    4.8060 C.2       1 FAD480      0.0000 
     25 O2         22.4790   43.5900    4.4460 O.2       1 FAD480      0.0000 
     26 N3         23.7200   44.4890    6.0880 N.am      1 FAD480      0.0000 
     27 C4         24.5650   45.5620    6.4520 C.2       1 FAD480      0.0000 
     28 O4         25.0740   45.6230    7.5620 O.2       1 FAD480      0.0000 
     29 C4X        24.9040   46.4680    5.4600 C.2       1 FAD480      0.0000 
     30 N5         25.6670   47.5160    5.7120 N.2       1 FAD480      0.0000 
     31 C5X        26.0480   48.3440    4.7140 C.ar      1 FAD480      0.0000 
     32 C6         26.8730   49.3900    5.0490 C.ar      1 FAD480      0.0000 
     33 C7         27.3440   50.2360    4.0940 C.ar      1 FAD480      0.0000 
     34 C7M        28.3480   51.3120    4.5490 C.3       1 FAD480      0.0000 
     35 C8         27.0630   49.9590    2.7450 C.ar      1 FAD480      0.0000 
     36 C8M        27.6650   50.8170    1.6270 C.3       1 FAD480      0.0000 
     37 C9         26.1660   48.9390    2.3900 C.ar      1 FAD480      0.0000 
     38 C9A        25.6520   48.1370    3.3930 C.ar      1 FAD480      0.0000 
     39 N10        24.7180   47.1390    3.1330 N.pl3     1 FAD480      0.0000 
     40 C10        24.3310   46.3440    4.1800 C.2       1 FAD480      0.0000 
     41 C1'        24.1100   46.8000    1.7640 C.3       1 FAD480      0.0000 
     42 C2'        24.9930   45.9660    1.2670 C.3       1 FAD480      0.0000 
     43 O2'        26.4100   46.0000    1.4170 O.3       1 FAD480      0.0000 
     44 C3'        24.5240   45.7290   -0.1910 C.3       1 FAD480      0.0000 
     45 O3'        23.1090   45.5350   -0.2000 O.3       1 FAD480      0.0000 
     46 C4'        25.0960   44.4630   -0.8180 C.3       1 FAD480      0.0000 
     47 O4'        26.4930   44.7170   -0.9550 O.3       1 FAD480      0.0000 
     48 C5'        24.4850   44.1030   -2.1870 C.3       1 FAD480      0.0000 
     49 O5'        25.3800   43.2510   -2.9100 O.3       1 FAD480      0.0000 
     50 P          25.3910   42.9430   -4.5200 P.3       1 FAD480      0.0000 
     51 O1P        25.9150   41.5670   -4.7100 O.co2     1 FAD480      0.0000 
     52 O2P        24.0780   43.2760   -5.1200 O.co2     1 FAD480      0.0000 
     53 O3P        26.3640   44.0840   -5.0260 O.3       1 FAD480      0.0000 
     54 H          28.5903   44.8666   -7.2862 H         1 FAD480      0.0000 
     55 H          28.0720   43.1750   -7.3850 H         1 FAD480      0.0000 
     56 H          30.4694   42.5500   -6.9596 H         1 FAD480      0.0000 
     57 H          30.6653   45.3601   -6.6079 H         1 FAD480      0.0000 
     58 H          31.1083   45.9050   -8.6977 H         1 FAD480      0.0000 
     59 H          32.1784   43.2119   -9.2847 H         1 FAD480      0.0000 
     60 H          29.8995   45.9967  -10.6005 H         1 FAD480      0.0000 
     61 H          30.8501   44.2024  -15.9774 H         1 FAD480      0.0000 
     62 H          30.6640   45.6848  -14.9807 H         1 FAD480      0.0000 
     63 H          33.8803   41.9024  -13.4184 H         1 FAD480      0.0000 
     64 H          23.5245   43.7462    6.7516 H         1 FAD480      0.0000 
     65 H          27.1369   49.5315    6.0460 H         1 FAD480      0.0000 
     66 H          25.9067   48.8010    1.4174 H         1 FAD480      0.0000 
     67 H          24.0066   47.7402    1.2365 H         1 FAD480      0.0000 
     68 H          23.1311   46.3810    1.9619 H         1 FAD480      0.0000 
     69 H          24.6709   44.8720    1.7051 H         1 FAD480      0.0000 
     70 H          24.7961   46.5679   -0.7906 H         1 FAD480      0.0000 
     71 H          24.9326   43.6447   -0.1341 H         1 FAD480      0.0000 
     72 H          24.2949   45.0408   -2.7189 H         1 FAD480      0.0000 
     73 H          23.5216   43.6180   -1.9996 H         1 FAD480      0.0000 
     74 H          29.1709   50.9072    4.9477 H         1 FAD480      0.0000 
     75 H          28.6444   51.8890    3.7879 H         1 FAD480      0.0000 
     76 H          27.9549   51.9181    5.2405 H         1 FAD480      0.0000 
     77 H          28.6647   50.7961    1.6402 H         1 FAD480      0.0000 
     78 H          27.3772   50.5033    0.7222 H         1 FAD480      0.0000 
     79 H          27.3908   51.7754    1.7058 H         1 FAD480      0.0000 
     80 H          32.6188   43.2682   -6.7839 H         1 FAD480      0.0000 
     81 H          33.4061   45.2281   -7.4913 H         1 FAD480      0.0000 
     82 H          26.7676   45.5496    0.5989 H         1 FAD480      0.0000 
     83 H          22.7883   46.0076   -1.0209 H         1 FAD480      0.0000 
     84 H          26.8161   44.0374   -1.6136 H         1 FAD480      0.0000 
@<TRIPOS>BOND
     1    2    1 ar   
     2    3    1 ar   
     3    4    1 1    
     4   53    1 1    
     5    5    4 1    
     6    6    5 1    
     7   54    5 1    
     8   55    5 1    
     9    7    6 1    
    10    8    6 1    
    11   56    6 1    
    12   12    7 1    
    13    9    8 1    
    14   10    8 1    
    15   57    8 1    
    16   80    9 1    
    17   11   10 1    
    18   12   10 1    
    19   58   10 1    
    20   81   11 1    
    21   13   12 1    
    22   59   12 1    
    23   14   13 1    
    24   22   13 1    
    25   15   14 2    
    26   60   14 1    
    27   16   15 1    
    28   17   16 ar   
    29   22   16 ar   
    30   18   17 1    
    31   19   17 ar   
    32   61   18 1    
    33   62   18 1    
    34   20   19 ar   
    35   21   20 ar   
    36   63   20 1    
    37   22   21 ar   
    38   24   23 1    
    39   40   23 2    
    40   25   24 2    
    41   26   24 am   
    42   27   26 am   
    43   64   26 1    
    44   28   27 2    
    45   29   27 1    
    46   30   29 2    
    47   40   29 1    
    48   31   30 1    
    49   32   31 ar   
    50   38   31 ar   
    51   33   32 ar   
    52   65   32 1    
    53   34   33 1    
    54   35   33 ar   
    55   74   34 1    
    56   75   34 1    
    57   76   34 1    
    58   36   35 1    
    59   37   35 ar   
    60   77   36 1    
    61   78   36 1    
    62   79   36 1    
    63   38   37 ar   
    64   66   37 1    
    65   39   38 1    
    66   40   39 1    
    67   41   39 1    
    68   42   41 1    
    69   67   41 1    
    70   68   41 1    
    71   43   42 1    
    72   44   42 1    
    73   69   42 1    
    74   82   43 1    
    75   45   44 1    
    76   46   44 1    
    77   70   44 1    
    78   83   45 1    
    79   47   46 1    
    80   48   46 1    
    81   71   46 1    
    82   84   47 1    
    83   49   48 1    
    84   72   48 1    
    85   73   48 1    
    86   50   49 1    
    87   51   50 ar   
    88   52   50 ar   
    89   53   50 1    
@<TRIPOS>SUBSTRUCTURE
     1 FAD480      1 GROUP   
@<TRIPOS>SET

