#    Name: 1dtt_FTC_1_INTS_M
#    Modification time : Mon Mar 24 22:27:47 2014

@<TRIPOS>MOLECULE
1dtt_FTC_1_INTS_M
   70     0     6     0     0
SMALL
NO_CHARGES


@<TRIPOS>ATOM
      1 CA         -5.1540  -35.0090   24.2785 C.3       2 GLC5        0.0000 
      2 CA         -5.0920  -32.9420   24.5360 C.3       6 GLL5        0.0000 
      3 CA         -5.2160  -37.0760   24.0210 C.3       4 GLP5        0.0000 
      4 CA         -5.3075  -33.2915   26.4975 C.3       2 GLC5        0.0000 
      5 CA         -5.5230  -33.6410   28.4590 C.3       4 GLP5        0.0000 
      6 CA         -4.9445  -31.1630   24.9690 C.3       2 GLC5        0.0000 
      7 CA         -4.7970  -29.3840   25.4020 C.3       4 GLP5        0.0000 
      8 CA         -6.7665  -31.9185   23.8555 C.3       2 GLC5        0.0000 
      9 CA         -8.4410  -30.8950   23.1750 C.3       4 GLP5        0.0000 
     10 CA         -6.3700  -33.5275   22.8915 C.3       2 GLC5        0.0000 
     11 CA         -7.6480  -34.1130   21.2470 C.3       4 GLP5        0.0000 
     12 O          -1.5255  -34.8740   19.7970 O.2       1 ALC1        0.0000 
     13 O          -1.0530  -35.2640   21.0040 O.2       5 ALL1        0.0000 
     14 O          -1.9980  -34.4840   18.5900 O.2       3 ALP1        0.0000 
     15 CA          0.4370  -34.1710   20.8670 C.3       2 GLC5        0.0000 
     16 CA          0.0140  -36.0400   21.2010 C.3       6 GLL5        0.0000 
     17 CA          0.8600  -32.3020   20.5330 C.3       4 GLP5        0.0000 
     18 CA         -1.6015  -37.1005   20.5860 C.3       2 GLC5        0.0000 
     19 CA         -3.2170  -38.1610   19.9710 C.3       4 GLP5        0.0000 
     20 CA          1.4255  -34.3755   19.5795 C.3       2 GLC5        0.0000 
     21 CA          1.0970  -36.3310   19.8700 C.3       6 GLL5        0.0000 
     22 CA          1.7540  -32.4200   19.2890 C.3       4 GLP5        0.0000 
     23 CA          0.5635  -35.9015   18.0035 C.3       2 GLC5        0.0000 
     24 CA          0.0300  -35.4720   16.1370 C.3       4 GLP5        0.0000 
     25 CA         -0.0935  -37.7110   19.2590 C.3       2 GLC5        0.0000 
     26 CA         -1.2840  -39.0910   18.6480 C.3       4 GLP5        0.0000 
     27 CA          1.9910  -34.9505   22.6525 C.3       2 GLC5        0.0000 
     28 CA          1.4790  -36.8940   23.0050 C.3       6 GLL5        0.0000 
     29 CA          2.5030  -33.0070   22.3000 C.3       4 GLP5        0.0000 
     30 CA          2.0085  -34.4290   23.8140 C.3       2 GLC5        0.0000 
     31 CA          1.5140  -35.8510   25.3280 C.3       6 GLL5        0.0000 
     32 CA          4.4415  -32.5300   25.2470 C.3       2 GLC5        0.0000 
     33 CA          2.8500  -33.8640   25.7430 C.3       6 GLL5        0.0000 
     34 CA          6.0330  -31.1960   24.7510 C.3       4 GLP5        0.0000 
     35 CA          2.6765  -33.4355   24.0215 C.3       2 GLC5        0.0000 
     36 CA          3.3035  -35.6055   26.6665 C.3       2 GLC5        0.0000 
     37 CA          3.7570  -37.3470   27.5900 C.3       4 GLP5        0.0000 
     38 CA         -0.4010  -32.3215   25.0050 C.3       2 GLC5        0.0000 
     39 CA         -1.0880  -32.5880   27.0670 C.3       6 GLL5        0.0000 
     40 CA          0.2860  -32.0550   22.9430 C.3       4 GLP5        0.0000 
     41 CA         -1.1680  -33.8975   28.5120 C.3       2 GLC5        0.0000 
     42 CA         -1.2480  -35.2070   29.9570 C.3       4 GLP5        0.0000 
     43 CA         -1.8310  -33.1760   29.4680 C.3       2 GLC5        0.0000 
     44 CA         -2.1390  -32.1440   28.0580 C.3       6 GLL5        0.0000 
     45 CA         -1.5230  -34.2080   30.8780 C.3       4 GLP5        0.0000 
     46 CA         -3.6865  -31.6830   28.5825 C.3       2 GLC5        0.0000 
     47 CA         -5.2340  -31.2220   29.1070 C.3       4 GLP5        0.0000 
     48 CA         -0.7750  -30.7100   29.0190 C.3       2 GLC5        0.0000 
     49 CA          0.5890  -29.2760   29.9800 C.3       4 GLP5        0.0000 
     50 CA         -2.3915  -36.5800   26.3190 C.3       2 GLC5        0.0000 
     51 CA         -0.6420  -36.0320   26.3630 C.3       6 GLL5        0.0000 
     52 CA         -4.1410  -37.1280   26.2750 C.3       4 GLP5        0.0000 
     53 CA         -2.8190  -36.2313   20.7900 C.3       2 GLC5        0.0000 
     54 CA         -1.9070  -34.6890   21.8880 C.3       6 GLL5        0.0000 
     55 CA         -5.7610  -33.7965   22.0577 C.3       2 GLC5        0.0000 
     56 CA         -3.8600  -33.5890   23.5590 C.3       6 GLL5        0.0000 
     57 CA         -4.4171  -35.3732   23.5157 C.3       2 GLC5        0.0000 
     58 CA         -3.8880  -33.3710   22.1780 C.3       6 GLL5        0.0000 
     59 CA          2.2052  -38.5207   23.1832 C.3       2 GLC5        0.0000 
     60 CA          2.9930  -40.0180   22.5950 C.3       4 GLP5        0.0000 
     61 CA          0.7777  -32.8870   24.8145 C.3       2 GLC5        0.0000 
     62 CA          0.6830  -34.0880   26.7940 C.3       6 GLL5        0.0000 
     63 CA          2.3608  -36.6352   26.5695 C.3       2 GLC5        0.0000 
     64 CA          0.4940  -35.3450   26.1650 C.3       6 GLL5        0.0000 
     65 CA         -1.9752  -30.9850   26.4367 C.3       2 GLC5        0.0000 
     66 CA         -2.3370  -29.6040   25.3110 C.3       4 GLP5        0.0000 
     67 CA          0.1394  -36.2557   27.6958 C.3       2 GLC5        0.0000 
     68 CA          0.1780  -37.0740   29.0750 C.3       4 GLP5        0.0000 
     69 CA         -1.4828  -32.9791   22.9056 C.3       2 GLC5        0.0000 
     70 CA         -2.8370  -34.3510   24.1270 C.3       6 GLL5        0.0000 
@<TRIPOS>BOND
@<TRIPOS>SUBSTRUCTURE
     1 ALC1       12 GROUP        1 X    ALC  0     ROOT ALC X 1
     2 GLC5        1 GROUP        1 X    GLC  0     **** GLC X 6
     3 ALP1       14 GROUP        1 Y    ALP  0     ROOT ALP Y 8
     4 GLP5        3 GROUP        1 Y    GLP  0     **** GLP Y 13
     5 ALL1       13 GROUP        1 Z    ALL  0     ROOT ALL Z 15
     6 GLL5        2 GROUP        1 Z    GLL  0     **** GLL Z 20
@<TRIPOS>SET

