#    Name: 1dtt_FTC_1_ligand
#    Modification time : Mon Mar 24 22:27:47 2014

@<TRIPOS>MOLECULE
1dtt_FTC_1_ligand
   39    40     1     0     0
SMALL
NO_CHARGES


@<TRIPOS>ATOM
      1 C1         -1.9070  -34.6890   21.8880 C.ar      1 FTC999      0.0000 
      2 N2         -1.8840  -34.8920   23.2680 N.ar      1 FTC999      0.0000 
      3 C3         -2.8370  -34.3510   24.1270 C.ar      1 FTC999      0.0000 
      4 C4         -3.8600  -33.5890   23.5590 C.ar      1 FTC999      0.0000 
      5 C5         -3.8880  -33.3710   22.1780 C.ar      1 FTC999      0.0000 
      6 C6         -2.9350  -33.9140   21.3300 C.ar      1 FTC999      0.0000 
      7 CL7        -5.0920  -32.9420   24.5360 Cl        1 FTC999      0.0000 
      8 N8         -1.0530  -35.2640   21.0040 N.am      1 FTC999      0.0000 
      9 C9          0.0140  -36.0400   21.2010 C.2       1 FTC999      0.0000 
     10 S9          1.0970  -36.3310   19.8700 S.2       1 FTC999      0.0000 
     11 N10         0.1530  -36.5920   22.4310 N.am      1 FTC999      0.0000 
     12 C11         1.4790  -36.8940   23.0050 C.3       1 FTC999      0.0000 
     13 C12         1.3560  -37.1530   24.5380 C.3       1 FTC999      0.0000 
     14 C13         1.5140  -35.8510   25.3280 C.ar      1 FTC999      0.0000 
     15 N14         2.6560  -35.0920   25.1450 N.ar      1 FTC999      0.0000 
     16 C15         2.8500  -33.8640   25.7430 C.ar      1 FTC999      0.0000 
     17 C16         1.8560  -33.3500   26.5780 C.ar      1 FTC999      0.0000 
     18 C17         0.6830  -34.0880   26.7940 C.ar      1 FTC999      0.0000 
     19 C18         0.4940  -35.3450   26.1650 C.ar      1 FTC999      0.0000 
     20 O17        -0.2550  -33.5690   27.6670 O.3       1 FTC999      0.0000 
     21 CA         -1.0880  -32.5880   27.0670 C.3       1 FTC999      0.0000 
     22 CB         -2.1390  -32.1440   28.0580 C.3       1 FTC999      0.0000 
     23 F18        -0.6420  -36.0320   26.3630 F         1 FTC999      0.0000 
     24 H          -2.7917  -34.5030   25.1244 H         1 FTC999      0.0000 
     25 H          -4.6494  -32.7826   21.7796 H         1 FTC999      0.0000 
     26 H          -2.9734  -33.7588   20.3265 H         1 FTC999      0.0000 
     27 H          -1.2901  -35.0461   19.9328 H         1 FTC999      0.0000 
     28 H          -0.6615  -36.8273   23.0244 H         1 FTC999      0.0000 
     29 H           2.1658  -36.0610   22.8636 H         1 FTC999      0.0000 
     30 H           1.9080  -37.7861   22.5514 H         1 FTC999      0.0000 
     31 H           2.1295  -37.8554   24.8326 H         1 FTC999      0.0000 
     32 H           0.3807  -37.5857   24.7378 H         1 FTC999      0.0000 
     33 H           3.7083  -33.3310   25.5816 H         1 FTC999      0.0000 
     34 H           1.9797  -32.4415   27.0305 H         1 FTC999      0.0000 
     35 H          -1.6015  -32.9787   26.1788 H         1 FTC999      0.0000 
     36 H          -0.5164  -31.7031   26.7580 H         1 FTC999      0.0000 
     37 H          -1.7304  -31.7462   28.8795 H         1 FTC999      0.0000 
     38 H          -2.7476  -31.4524   27.6690 H         1 FTC999      0.0000 
     39 H          -2.7139  -32.9060   28.3561 H         1 FTC999      0.0000 
@<TRIPOS>BOND
     1    2    1 ar   
     2    6    1 ar   
     3    8    1 1    
     4    3    2 ar   
     5    4    3 ar   
     6   24    3 1    
     7    5    4 ar   
     8    7    4 1    
     9    6    5 ar   
    10   25    5 1    
    11   26    6 1    
    12    9    8 am   
    13   27    8 1    
    14   10    9 2    
    15   11    9 am   
    16   12   11 1    
    17   28   11 1    
    18   13   12 1    
    19   29   12 1    
    20   30   12 1    
    21   14   13 1    
    22   31   13 1    
    23   32   13 1    
    24   15   14 ar   
    25   19   14 ar   
    26   16   15 ar   
    27   17   16 ar   
    28   33   16 1    
    29   18   17 ar   
    30   34   17 1    
    31   19   18 ar   
    32   20   18 1    
    33   23   19 1    
    34   21   20 1    
    35   22   21 1    
    36   35   21 1    
    37   36   21 1    
    38   37   22 1    
    39   38   22 1    
    40   39   22 1    
@<TRIPOS>SUBSTRUCTURE
     1 FTC999      1 GROUP   
@<TRIPOS>SET

