#    Name: 2jkv_NAP_1_INTS_M
#    Modification time : Tue Mar 25 21:03:32 2014

@<TRIPOS>MOLECULE
2jkv_NAP_1_INTS_M
  105     0    12     0     0
SMALL
NO_CHARGES


@<TRIPOS>ATOM
      1 N          18.5205  -21.8720  -19.3805 N.am      2 SEC2        0.0000 
      2 N          19.6580  -21.1670  -18.5200 N.am     10 SEL2        0.0000 
      3 N          17.3830  -22.5770  -20.2410 N.am      6 SEP2        0.0000 
      4 N          18.3765  -20.8500  -18.4780 N.am      2 SEC2        0.0000 
      5 N          17.0950  -20.5330  -18.4360 N.am      6 SEP2        0.0000 
      6 N          21.5950  -18.7130  -19.1360 N.am      2 SEC2        0.0000 
      7 N          21.7420  -19.8850  -18.4200 N.am     10 SEL2        0.0000 
      8 N          21.4480  -17.5410  -19.8520 N.am      6 SEP2        0.0000 
      9 CA         22.1780  -20.6095  -13.7480 C.3       4 GLC5        0.0000 
     10 CA         20.3860  -21.4080  -14.0720 C.3      12 GLL5        0.0000 
     11 CA         23.9700  -19.8110  -13.4240 C.3       8 GLP5        0.0000 
     12 N          21.6570  -19.2215  -14.2080 N.am      2 SEC2        0.0000 
     13 N          20.5740  -20.1120  -13.5620 N.am     10 SEL2        0.0000 
     14 N          22.7400  -18.3310  -14.8540 N.am      6 SEP2        0.0000 
     15 N          20.8315  -24.3325  -11.8530 N.am      2 SEC2        0.0000 
     16 N          20.1530  -22.8470  -12.1610 N.am     10 SEL2        0.0000 
     17 N          21.5100  -25.8180  -11.5450 N.am      6 SEP2        0.0000 
     18 O          19.9880  -23.3780  -10.8825 O.2       1 ALC1        0.0000 
     19 O          20.1530  -22.8470  -12.1610 O.2       9 ALL1        0.0000 
     20 O          19.8230  -23.9090   -9.6040 O.2       5 ALP1        0.0000 
     21 CA         21.5315  -20.1105  -11.7395 C.3       4 GLC5        0.0000 
     22 CA         19.8000  -19.9720  -12.3990 C.3      12 GLL5        0.0000 
     23 CA         23.2630  -20.2490  -11.0800 C.3       8 GLP5        0.0000 
     24 CA         18.4405  -17.4930   -8.3005 C.3       4 GLC5        0.0000 
     25 CA         19.9700  -17.1500   -8.9580 C.3      12 GLL5        0.0000 
     26 CA         16.9110  -17.8360   -7.6430 C.3       8 GLP5        0.0000 
     27 CA         20.9645  -15.9805   -9.9650 C.3       4 GLC5        0.0000 
     28 CA         21.9590  -14.8110  -10.9720 C.3       8 GLP5        0.0000 
     29 CA         21.4905  -18.5215  -11.6275 C.3       4 GLC5        0.0000 
     30 CA         19.4070  -17.8740  -11.1420 C.3      12 GLL5        0.0000 
     31 CA         23.5740  -19.1690  -12.1130 C.3       8 GLP5        0.0000 
     32 N          21.2295  -22.6665  -20.6125 N.am      2 SEC2        0.0000 
     33 N          22.3800  -22.9600  -19.8520 N.am     10 SEL2        0.0000 
     34 N          20.0790  -22.3730  -21.3730 N.am      6 SEP2        0.0000 
     35 N          23.6090  -25.6755  -17.9290 N.am      2 SEC2        0.0000 
     36 N          23.1670  -24.2810  -17.7590 N.am     10 SEL2        0.0000 
     37 N          24.0510  -27.0700  -18.0990 N.am      6 SEP2        0.0000 
     38 CA         25.3980  -23.7040  -17.5775 C.3       4 GLC5        0.0000 
     39 CA         24.7370  -21.7560  -17.0910 C.3      12 GLL5        0.0000 
     40 CA         26.0590  -25.6520  -18.0640 C.3       8 GLP5        0.0000 
     41 CA         25.8360  -21.9500  -15.2835 C.3       4 GLC5        0.0000 
     42 CA         26.9350  -22.1440  -13.4760 C.3       8 GLP5        0.0000 
     43 CA         27.1790  -21.9080  -16.5425 C.3       4 GLC5        0.0000 
     44 CA         25.7840  -20.6790  -17.2890 C.3      12 GLL5        0.0000 
     45 CA         28.5740  -23.1370  -15.7960 C.3       8 GLP5        0.0000 
     46 CA         23.8580  -18.3585  -16.8955 C.3       4 GLC5        0.0000 
     47 CA         25.1710  -19.4750  -17.9850 C.3      12 GLL5        0.0000 
     48 CA         22.5450  -17.2420  -15.8060 C.3       8 GLP5        0.0000 
     49 N          27.2945  -17.9415  -18.1545 N.am      2 SEC2        0.0000 
     50 N          25.8640  -18.3330  -17.5670 N.am     10 SEL2        0.0000 
     51 N          28.7250  -17.5500  -18.7420 N.am      6 SEP2        0.0000 
     52 O          25.4270  -18.3250  -16.2670 O.2       1 ALC1        0.0000 
     53 O          25.8640  -18.3330  -17.5670 O.2       9 ALL1        0.0000 
     54 O          24.9900  -18.3170  -14.9670 O.2       5 ALP1        0.0000 
     55 N          27.2095  -18.0115  -19.4225 N.am      2 SEC2        0.0000 
     56 N          25.6940  -18.4730  -20.1030 N.am     10 SEL2        0.0000 
     57 CA         27.9030  -19.7035  -18.0915 C.3       4 GLC5        0.0000 
     58 CA         26.7690  -20.4620  -19.3740 C.3      12 GLL5        0.0000 
     59 CA         29.0370  -18.9450  -16.8090 C.3       8 GLP5        0.0000 
     60 O          22.8790  -24.5070  -23.2645 O.2       1 ALC1        0.0000 
     61 O          23.8530  -23.5920  -22.1900 O.2       9 ALL1        0.0000 
     62 O          21.9050  -25.4220  -24.3390 O.2       5 ALP1        0.0000 
     63 CA         27.1010  -24.7045  -21.6170 C.3       4 GLC5        0.0000 
     64 CA         27.4750  -23.1570  -22.5470 C.3      12 GLL5        0.0000 
     65 CA         26.7270  -26.2520  -20.6870 C.3       8 GLP5        0.0000 
     66 NZ         16.4235  -19.8395   -9.1690 N.4       3 LYC4        0.0000 
     67 NZ         16.4480  -21.3010   -9.4390 N.4      11 LYL4        0.0000 
     68 NZ         15.8710  -17.6310   -9.8600 N.4       7 LYP4        0.0000 
     69 N          16.4235  -19.8395   -9.1690 N.am      2 SEC2        0.0000 
     70 N          16.4480  -21.3010   -9.4390 N.am     10 SEL2        0.0000 
     71 N          16.3990  -18.3780   -8.8990 N.am      6 SEP2        0.0000 
     72 N          16.4475  -21.8355   -8.0755 N.am      2 SEC2        0.0000 
     73 N          16.4470  -22.3700   -6.7120 N.am      6 SEP2        0.0000 
     74 N          15.4285  -21.7220   -8.9820 N.am      2 SEC2        0.0000 
     75 N          14.4090  -22.1430   -8.5250 N.am      6 SEP2        0.0000 
     76 NZ         15.6210  -19.5350  -11.3825 N.4       3 LYC4        0.0000 
     77 NZ         15.8180  -20.8860  -11.7910 N.4      11 LYL4        0.0000 
     78 NZ         15.1950  -22.6730  -12.1555 N.4       3 LYC4        0.0000 
     79 NZ         14.5720  -24.4600  -12.5200 N.4       7 LYP4        0.0000 
     80 N          15.6210  -19.5350  -11.3825 N.am      2 SEC2        0.0000 
     81 N          15.8180  -20.8860  -11.7910 N.am     10 SEL2        0.0000 
     82 N          15.4240  -18.1840  -10.9740 N.am      6 SEP2        0.0000 
     83 NZ         15.5790  -23.7795  -11.8310 N.4       3 LYC4        0.0000 
     84 NZ         16.5860  -23.0990  -11.1420 N.4      11 LYL4        0.0000 
     85 N          17.1680  -23.7125  -10.0180 N.am      2 SEC2        0.0000 
     86 N          16.5860  -23.0990  -11.1420 N.am     10 SEL2        0.0000 
     87 N          17.7500  -24.3260   -8.8940 N.am      6 SEP2        0.0000 
     88 N          15.5790  -23.7795  -11.8310 N.am      2 SEC2        0.0000 
     89 N          14.5720  -24.4600  -12.5200 N.am      6 SEP2        0.0000 
     90 CA         19.9718  -23.3472  -15.0734 C.3       4 GLC5        0.0000 
     91 CA         20.1950  -24.9700  -16.2050 C.3       8 GLP5        0.0000 
     92 CA         18.0025  -17.4304   -9.3332 C.3       4 GLC5        0.0000 
     93 CA         18.7920  -16.6660  -11.3980 C.3      12 GLL5        0.0000 
     94 CA         20.5265  -15.9179  -10.9977 C.3       4 GLC5        0.0000 
     95 CA         18.7700  -15.6850  -10.4120 C.3      12 GLL5        0.0000 
     96 CA         24.6152  -20.5142  -15.3070 C.3       4 GLC5        0.0000 
     97 CA         27.2572  -19.5110  -17.2230 C.3       4 GLC5        0.0000 
     98 CA         27.1848  -18.4213  -20.2093 C.3       4 GLC5        0.0000 
     99 CA         28.2520  -16.7640  -21.0070 C.3       8 GLP5        0.0000 
    100 CA         25.9915  -23.7377  -20.6113 C.3       4 GLC5        0.0000 
    101 CA         25.9390  -21.8780  -21.2140 C.3      12 GLL5        0.0000 
    102 CA         25.9300  -25.1480  -19.4890 C.3       8 GLP5        0.0000 
    103 CA         28.4322  -24.0905  -20.8282 C.3       4 GLC5        0.0000 
    104 CA         28.5310  -22.6510  -21.8030 C.3      12 GLL5        0.0000 
    105 CA         28.4620  -25.9720  -20.3720 C.3       8 GLP5        0.0000 
@<TRIPOS>BOND
@<TRIPOS>SUBSTRUCTURE
     1 ALC1       18 GROUP        1 X    ALC  0     ROOT ALC X 1
     2 SEC2        1 GROUP        1 X    SEC  0     **** SEC X 2
     3 LYC4       66 GROUP        1 X    LYC  0     **** LYC X 4
     4 GLC5        9 GROUP        1 X    GLC  0     **** GLC X 6
     5 ALP1       20 GROUP        1 Y    ALP  0     ROOT ALP Y 8
     6 SEP2        3 GROUP        1 Y    SEP  0     **** SEP Y 9
     7 LYP4       68 GROUP        1 Y    LYP  0     **** LYP Y 11
     8 GLP5       11 GROUP        1 Y    GLP  0     **** GLP Y 13
     9 ALL1       19 GROUP        1 Z    ALL  0     ROOT ALL Z 15
    10 SEL2        2 GROUP        1 Z    SEL  0     **** SEL Z 16
    11 LYL4       67 GROUP        1 Z    LYL  0     **** LYL Z 18
    12 GLL5       10 GROUP        1 Z    GLL  0     **** GLL Z 20
@<TRIPOS>SET

