#    Name: 2jkv_NAP_1_ligand
#    Modification time : Tue Mar 25 21:03:32 2014

@<TRIPOS>MOLECULE
2jkv_NAP_1_ligand
   73    77     1     0     0
SMALL
NO_CHARGES


@<TRIPOS>ATOM
      1 PA         20.9010  -20.9030  -17.7660 P.3       1 NAP500      0.0000 
      2 O1A        19.6580  -21.1670  -18.5200 O.co2     1 NAP500      0.0000 
      3 O2A        21.7420  -19.8850  -18.4200 O.co2     1 NAP500      0.0000 
      4 O5B        20.6010  -20.4950  -16.2510 O.3       1 NAP500      0.0000 
      5 C5B        19.7480  -21.2760  -15.4490 C.3       1 NAP500      0.0000 
      6 C4B        20.3860  -21.4080  -14.0720 C.3       1 NAP500      0.0000 
      7 O4B        20.5740  -20.1120  -13.5620 O.3       1 NAP500      0.0000 
      8 C3B        19.4300  -22.1070  -13.1230 C.3       1 NAP500      0.0000 
      9 O3B        20.1530  -22.8470  -12.1610 O.3       1 NAP500      0.0000 
     10 C2B        18.6760  -20.9770  -12.4650 C.3       1 NAP500      0.0000 
     11 O2B        18.2790  -21.2240  -11.1400 O.3       1 NAP500      0.0000 
     12 C1B        19.8000  -19.9720  -12.3990 C.3       1 NAP500      0.0000 
     13 N9A        19.2750  -18.6250  -12.2670 N.pl3     1 NAP500      0.0000 
     14 C8A        18.5940  -17.9130  -13.2110 C.2       1 NAP500      0.0000 
     15 N7A        18.2990  -16.7140  -12.6620 N.2       1 NAP500      0.0000 
     16 C5A        18.7920  -16.6660  -11.3980 C.ar      1 NAP500      0.0000 
     17 C6A        18.7700  -15.6850  -10.4120 C.ar      1 NAP500      0.0000 
     18 N6A        18.1830  -14.5190  -10.6490 N.pl3     1 NAP500      0.0000 
     19 N1A        19.3590  -15.9320   -9.1910 N.ar      1 NAP500      0.0000 
     20 C2A        19.9700  -17.1500   -8.9580 C.ar      1 NAP500      0.0000 
     21 N3A        19.9890  -18.1180   -9.9460 N.ar      1 NAP500      0.0000 
     22 C4A        19.4070  -17.8740  -11.1420 C.ar      1 NAP500      0.0000 
     23 O3         21.7100  -22.2710  -17.5570 O.3       1 NAP500      0.0000 
     24 PN         22.8360  -22.9930  -18.4380 P.3       1 NAP500      0.0000 
     25 O1N        22.3800  -22.9600  -19.8520 O.co2     1 NAP500      0.0000 
     26 O2N        23.1670  -24.2810  -17.7590 O.co2     1 NAP500      0.0000 
     27 O5D        24.0820  -21.9830  -18.3180 O.3       1 NAP500      0.0000 
     28 C5D        24.7370  -21.7560  -17.0910 C.3       1 NAP500      0.0000 
     29 C4D        25.7840  -20.6790  -17.2890 C.3       1 NAP500      0.0000 
     30 O4D        26.7970  -21.1610  -18.1390 O.3       1 NAP500      0.0000 
     31 C3D        25.1710  -19.4750  -17.9850 C.3       1 NAP500      0.0000 
     32 O3D        25.8640  -18.3330  -17.5670 O.3       1 NAP500      0.0000 
     33 C2D        25.4660  -19.6950  -19.4490 C.3       1 NAP500      0.0000 
     34 O2D        25.6940  -18.4730  -20.1030 O.3       1 NAP500      0.0000 
     35 C1D        26.7690  -20.4620  -19.3740 C.3       1 NAP500      0.0000 
     36 N1N        26.9890  -21.3960  -20.4850 N.pl3     1 NAP500      0.0000 
     37 C2N        25.9390  -21.8780  -21.2140 C.ar      1 NAP500      0.0000 
     38 C3N        26.1670  -22.7770  -22.2530 C.ar      1 NAP500      0.0000 
     39 C7N        25.0540  -23.6600  -22.7510 C.2       1 NAP500      0.0000 
     40 O7N        25.3070  -24.5480  -23.8060 O.2       1 NAP500      0.0000 
     41 N7N        23.8530  -23.5920  -22.1900 N.am      1 NAP500      0.0000 
     42 C4N        27.4750  -23.1570  -22.5470 C.ar      1 NAP500      0.0000 
     43 C5N        28.5310  -22.6510  -21.8030 C.ar      1 NAP500      0.0000 
     44 C6N        28.2740  -21.7670  -20.7660 C.ar      1 NAP500      0.0000 
     45 P2B        16.7520  -21.6340  -10.8760 P.3       1 NAP500      0.0000 
     46 O1X        16.4480  -21.3010   -9.4390 O.co2     1 NAP500      0.0000 
     47 O2X        15.8180  -20.8860  -11.7910 O.co2     1 NAP500      0.0000 
     48 O3X        16.5860  -23.0990  -11.1420 O.co2     1 NAP500      0.0000 
     49 H          19.6081  -22.2831  -15.8480 H         1 NAP500      0.0000 
     50 H          18.7654  -20.8175  -15.3170 H         1 NAP500      0.0000 
     51 H          21.2803  -21.9550  -14.1425 H         1 NAP500      0.0000 
     52 H          18.7529  -22.6850  -13.6927 H         1 NAP500      0.0000 
     53 H          17.9524  -20.6082  -13.1077 H         1 NAP500      0.0000 
     54 H          20.3946  -20.2203  -11.5152 H         1 NAP500      0.0000 
     55 H          18.3725  -18.2115  -14.0883 H         1 NAP500      0.0000 
     56 H          18.1876  -13.8627   -9.8945 H         1 NAP500      0.0000 
     57 H          17.7891  -14.4019  -11.5607 H         1 NAP500      0.0000 
     58 H          20.4130  -17.3379   -8.0452 H         1 NAP500      0.0000 
     59 H          25.2446  -22.6541  -16.7214 H         1 NAP500      0.0000 
     60 H          24.0468  -21.4143  -16.3114 H         1 NAP500      0.0000 
     61 H          26.1631  -20.3710  -16.3445 H         1 NAP500      0.0000 
     62 H          24.1491  -19.4577  -17.8239 H         1 NAP500      0.0000 
     63 H          24.7365  -20.3049  -19.8659 H         1 NAP500      0.0000 
     64 H          27.5822  -19.7130  -19.3728 H         1 NAP500      0.0000 
     65 H          24.9724  -21.5833  -21.0042 H         1 NAP500      0.0000 
     66 H          23.7523  -22.9334  -21.4443 H         1 NAP500      0.0000 
     67 H          23.1574  -24.2055  -22.5638 H         1 NAP500      0.0000 
     68 H          27.6552  -23.8144  -23.3181 H         1 NAP500      0.0000 
     69 H          29.4948  -22.9290  -22.0187 H         1 NAP500      0.0000 
     70 H          29.0611  -21.3933  -20.2103 H         1 NAP500      0.0000 
     71 H          19.5437  -22.9085  -11.3705 H         1 NAP500      0.0000 
     72 H          25.6022  -18.2073  -16.6101 H         1 NAP500      0.0000 
     73 H          25.7691  -17.7973  -19.3697 H         1 NAP500      0.0000 
@<TRIPOS>BOND
     1    2    1 ar   
     2    3    1 ar   
     3    4    1 1    
     4   23    1 1    
     5    5    4 1    
     6    6    5 1    
     7   49    5 1    
     8   50    5 1    
     9    7    6 1    
    10    8    6 1    
    11   51    6 1    
    12   12    7 1    
    13    9    8 1    
    14   10    8 1    
    15   52    8 1    
    16   71    9 1    
    17   11   10 1    
    18   12   10 1    
    19   53   10 1    
    20   45   11 1    
    21   13   12 1    
    22   54   12 1    
    23   14   13 1    
    24   22   13 1    
    25   15   14 2    
    26   55   14 1    
    27   16   15 1    
    28   17   16 ar   
    29   22   16 ar   
    30   18   17 1    
    31   19   17 ar   
    32   56   18 1    
    33   57   18 1    
    34   20   19 ar   
    35   21   20 ar   
    36   58   20 1    
    37   22   21 ar   
    38   24   23 1    
    39   25   24 ar   
    40   26   24 ar   
    41   27   24 1    
    42   28   27 1    
    43   29   28 1    
    44   59   28 1    
    45   60   28 1    
    46   30   29 1    
    47   31   29 1    
    48   61   29 1    
    49   35   30 1    
    50   32   31 1    
    51   33   31 1    
    52   62   31 1    
    53   72   32 1    
    54   34   33 1    
    55   35   33 1    
    56   63   33 1    
    57   73   34 1    
    58   36   35 1    
    59   64   35 1    
    60   37   36 ar   
    61   44   36 ar   
    62   38   37 ar   
    63   65   37 1    
    64   39   38 1    
    65   42   38 ar   
    66   40   39 2    
    67   41   39 am   
    68   66   41 1    
    69   67   41 1    
    70   43   42 ar   
    71   68   42 1    
    72   44   43 ar   
    73   69   43 1    
    74   70   44 1    
    75   46   45 ar   
    76   47   45 ar   
    77   48   45 ar   
@<TRIPOS>SUBSTRUCTURE
     1 NAP500      1 GROUP   
@<TRIPOS>SET

