#    Name: 2ydk_YDK_1_INTS_M
#    Modification time : Tue Mar 25 08:44:02 2014

@<TRIPOS>MOLECULE
2ydk_YDK_1_INTS_M
   48     0    12     0     0
SMALL
NO_CHARGES


@<TRIPOS>ATOM
      1 CA          3.4295   72.5635   12.4575 C.3       4 GLC5        0.0000 
      2 CA          1.8450   73.8320   11.6340 C.3      12 GLL5        0.0000 
      3 CA          5.0140   71.2950   13.2810 C.3       8 GLP5        0.0000 
      4 O           4.0125   69.9865    6.3570 O.2       1 ALC1        0.0000 
      5 O           4.4360   71.0590    7.1280 O.2       9 ALL1        0.0000 
      6 O           3.5890   68.9140    5.5860 O.2       5 ALP1        0.0000 
      7 N           1.7795   69.5320    7.9750 N.am      2 SEC2        0.0000 
      8 N           2.3180   70.8440    7.8680 N.am     10 SEL2        0.0000 
      9 N           1.2410   68.2200    8.0820 N.am      6 SEP2        0.0000 
     10 CA          4.8780   74.3460   14.6080 C.3       4 GLC5        0.0000 
     11 CA          6.2170   75.2340   13.0390 C.3      12 GLL5        0.0000 
     12 CA          3.5390   73.4580   16.1770 C.3       8 GLP5        0.0000 
     13 CA          5.6155   73.2645   13.1600 C.3       4 GLC5        0.0000 
     14 OD1         8.2475   75.2890   12.4240 O.co2     3 ASC3        0.0000 
     15 OD1         7.5240   75.8190   13.4510 O.co2    11 ASL3        0.0000 
     16 OD1         8.9710   74.7590   11.3970 O.co2     7 ASP3        0.0000 
     17 CA          7.5840   76.4350   16.1140 C.3       4 GLC5        0.0000 
     18 CA          7.4040   77.1600   14.0990 C.3      12 GLL5        0.0000 
     19 CA          7.7640   75.7100   18.1290 C.3       8 GLP5        0.0000 
     20 CA          3.5915   78.3910   12.2645 C.3       4 GLC5        0.0000 
     21 CA          5.4040   77.5620   12.6190 C.3      12 GLL5        0.0000 
     22 CA          1.7790   79.2200   11.9100 C.3       8 GLP5        0.0000 
     23 CA          0.6442   73.4155    8.7370 C.3       4 GLC5        0.0000 
     24 CA          1.2590   71.9410   10.0000 C.3      12 GLL5        0.0000 
     25 CA         -0.7090   74.4480    7.5910 C.3       8 GLP5        0.0000 
     26 CA          2.9007   74.7930    8.7080 C.3       4 GLC5        0.0000 
     27 CA          2.7360   72.8250    9.7660 C.3      12 GLL5        0.0000 
     28 CA          2.9660   76.2670    7.1740 C.3       8 GLP5        0.0000 
     29 CA          3.8211   71.9180   10.5687 C.3       4 GLC5        0.0000 
     30 CA          2.9350   73.8130   10.7180 C.3      12 GLL5        0.0000 
     31 CA          5.1760   70.7380   10.8370 C.3       8 GLP5        0.0000 
     32 CA          0.5773   74.7316   10.3887 C.3       4 GLC5        0.0000 
     33 CA         -0.4710   76.1040    9.4970 C.3       8 GLP5        0.0000 
     34 CA          5.0240   77.3438   10.3110 C.3       4 GLC5        0.0000 
     35 CA          5.5240   76.1430   12.0570 C.3      12 GLL5        0.0000 
     36 CA          4.5840   77.8350    8.2840 C.3       8 GLP5        0.0000 
     37 CA         -0.5760   71.6465   14.0545 C.3       4 GLC5        0.0000 
     38 CA         -0.8100   73.4350   13.1440 C.3      12 GLL5        0.0000 
     39 CA          0.2470   69.9940   14.6250 C.3       8 GLP5        0.0000 
     40 CA         -1.1325   70.8205   13.7828 C.3       4 GLC5        0.0000 
     41 CA         -2.7240   72.0570   13.4540 C.3      12 GLL5        0.0000 
     42 CA         -2.0168   69.3967   11.3292 C.3       4 GLC5        0.0000 
     43 CA         -2.3000   71.2370   12.4270 C.3      12 GLL5        0.0000 
     44 CA         -2.3190   67.4110   10.5620 C.3       8 GLP5        0.0000 
     45 CA         -1.6883   73.4424   10.7883 C.3       4 GLC5        0.0000 
     46 CA         -1.1290   71.5280   11.7660 C.3      12 GLL5        0.0000 
     47 CA         -2.5160   74.6050    9.3790 C.3       8 GLP5        0.0000 
     48 CA         -0.0979   71.0695   13.1914 C.3       4 GLC5        0.0000 
@<TRIPOS>BOND
@<TRIPOS>SUBSTRUCTURE
     1 ALC1        4 GROUP        1 X    ALC  0     ROOT ALC X 1
     2 SEC2        7 GROUP        1 X    SEC  0     **** SEC X 2
     3 ASC3       14 GROUP        1 X    ASC  0     **** ASC X 3
     4 GLC5        1 GROUP        1 X    GLC  0     **** GLC X 6
     5 ALP1        6 GROUP        1 Y    ALP  0     ROOT ALP Y 8
     6 SEP2        9 GROUP        1 Y    SEP  0     **** SEP Y 9
     7 ASP3       16 GROUP        1 Y    ASP  0     **** ASP Y 10
     8 GLP5        3 GROUP        1 Y    GLP  0     **** GLP Y 13
     9 ALL1        5 GROUP        1 Z    ALL  0     ROOT ALL Z 15
    10 SEL2        8 GROUP        1 Z    SEL  0     **** SEL Z 16
    11 ASL3       15 GROUP        1 Z    ASL  0     **** ASL Z 17
    12 GLL5        2 GROUP        1 Z    GLL  0     **** GLL Z 20
@<TRIPOS>SET

