#    Name: 2ydk_YDK_1_ligand
#    Modification time : Tue Mar 25 08:44:02 2014

@<TRIPOS>MOLECULE
2ydk_YDK_1_ligand
   43    45     1     0     0
SMALL
NO_CHARGES


@<TRIPOS>ATOM
      1 S01         1.2590   71.9410   10.0000 S.3       1 YDK1277     0.0000 
      2 C02         2.7360   72.8250    9.7660 C.2       1 YDK1277     0.0000 
      3 C03         2.9350   73.8130   10.7180 C.2       1 YDK1277     0.0000 
      4 C04         1.8450   73.8320   11.6340 C.2       1 YDK1277     0.0000 
      5 C05         0.8610   72.8960   11.3850 C.2       1 YDK1277     0.0000 
      6 N06         3.5990   72.5150    8.7140 N.am      1 YDK1277     0.0000 
      7 C07         3.3740   71.4330    7.9070 C.2       1 YDK1277     0.0000 
      8 N08         4.4360   71.0590    7.1280 N.am      1 YDK1277     0.0000 
      9 O09         2.3180   70.8440    7.8680 O.2       1 YDK1277     0.0000 
     10 C10         4.1220   74.6620   10.7220 C.2       1 YDK1277     0.0000 
     11 O11         5.0040   74.5430    9.8990 O.2       1 YDK1277     0.0000 
     12 N12         4.2280   75.5830   11.7290 N.am      1 YDK1277     0.0000 
     13 C13         5.5240   76.1430   12.0570 C.3       1 YDK1277     0.0000 
     14 C14         6.2170   75.2340   13.0390 C.3       1 YDK1277     0.0000 
     15 N15         7.5240   75.8190   13.4510 N.4       1 YDK1277     0.0000 
     16 C16         7.4040   77.1600   14.0990 C.3       1 YDK1277     0.0000 
     17 C17         6.7580   78.0830   13.0800 C.3       1 YDK1277     0.0000 
     18 C18         5.4040   77.5620   12.6190 C.3       1 YDK1277     0.0000 
     19 C19        -0.3740   72.6280   12.1140 C.ar      1 YDK1277     0.0000 
     20 C20        -0.8100   73.4350   13.1440 C.ar      1 YDK1277     0.0000 
     21 C21        -1.9880   73.1630   13.8240 C.ar      1 YDK1277     0.0000 
     22 C22        -2.7240   72.0570   13.4540 C.ar      1 YDK1277     0.0000 
     23 C23        -2.3000   71.2370   12.4270 C.ar      1 YDK1277     0.0000 
     24 C24        -1.1290   71.5280   11.7660 C.ar      1 YDK1277     0.0000 
     25 H           1.8151   74.4751   12.3845 H         1 YDK1277     0.0000 
     26 H           4.4251   73.1248    8.5500 H         1 YDK1277     0.0000 
     27 H           5.2542   71.6299    7.1960 H         1 YDK1277     0.0000 
     28 H           4.3004   70.2477    6.5593 H         1 YDK1277     0.0000 
     29 H           3.4199   75.8974   12.2676 H         1 YDK1277     0.0000 
     30 H           6.1426   76.1934   11.1572 H         1 YDK1277     0.0000 
     31 H           6.3765   74.2576   12.5745 H         1 YDK1277     0.0000 
     32 H           5.5781   75.0972   13.9152 H         1 YDK1277     0.0000 
     33 H           8.3783   77.5397   14.3558 H         1 YDK1277     0.0000 
     34 H           6.7765   77.0986   14.9719 H         1 YDK1277     0.0000 
     35 H           7.4188   78.1824   12.2125 H         1 YDK1277     0.0000 
     36 H           6.6287   79.0761   13.5228 H         1 YDK1277     0.0000 
     37 H           4.7127   77.5542   13.4614 H         1 YDK1277     0.0000 
     38 H           5.0070   78.2191   11.8455 H         1 YDK1277     0.0000 
     39 H          -0.2467   74.2649   13.4189 H         1 YDK1277     0.0000 
     40 H          -2.3006   73.7713   14.5823 H         1 YDK1277     0.0000 
     41 H          -3.6068   71.8377   13.9526 H         1 YDK1277     0.0000 
     42 H          -2.8577   70.4144   12.1596 H         1 YDK1277     0.0000 
     43 H          -0.8081   70.9113   10.9939 H         1 YDK1277     0.0000 
@<TRIPOS>BOND
     1    2    1 1    
     2    5    1 1    
     3    3    2 2    
     4    6    2 1    
     5    4    3 1    
     6   10    3 1    
     7    5    4 2    
     8   25    4 1    
     9   19    5 1    
    10    7    6 am   
    11   26    6 1    
    12    8    7 am   
    13    9    7 2    
    14   27    8 1    
    15   28    8 1    
    16   11   10 2    
    17   12   10 am   
    18   13   12 1    
    19   29   12 1    
    20   14   13 1    
    21   18   13 1    
    22   30   13 1    
    23   15   14 1    
    24   31   14 1    
    25   32   14 1    
    26   16   15 1    
    27   17   16 1    
    28   33   16 1    
    29   34   16 1    
    30   18   17 1    
    31   35   17 1    
    32   36   17 1    
    33   37   18 1    
    34   38   18 1    
    35   20   19 ar   
    36   24   19 ar   
    37   21   20 ar   
    38   39   20 1    
    39   22   21 ar   
    40   40   21 1    
    41   23   22 ar   
    42   41   22 1    
    43   24   23 ar   
    44   42   23 1    
    45   43   24 1    
@<TRIPOS>SUBSTRUCTURE
     1 YDK1277     1 GROUP   
@<TRIPOS>SET

