#    Name: 1p91_SAM_1_INTS_M
#    Modification time : Mon Mar 24 21:11:40 2014

@<TRIPOS>MOLECULE
1p91_SAM_1_INTS_M
   58     0     9     0     0
SMALL
NO_CHARGES


@<TRIPOS>ATOM
      1 O          24.5290   29.5240   43.9965 O.2       1 ALC1        0.0000 
      2 O          24.6500   28.6250   42.8880 O.2       7 ALL1        0.0000 
      3 O          24.4080   30.4230   45.1050 O.2       4 ALP1        0.0000 
      4 O          25.1770   30.0455   42.6870 O.2       1 ALC1        0.0000 
      5 O          25.7040   31.4660   42.4860 O.2       4 ALP1        0.0000 
      6 CA         22.2955   30.0560   43.7595 C.3       3 GLC5        0.0000 
      7 CA         22.4410   29.1400   42.1220 C.3       9 GLL5        0.0000 
      8 CA         22.1500   30.9720   45.3970 C.3       6 GLP5        0.0000 
      9 CA         24.2380   30.8355   41.0550 C.3       3 GLC5        0.0000 
     10 CA         22.1620   30.0010   40.8370 C.3       9 GLL5        0.0000 
     11 CA         26.3140   31.6700   41.2730 C.3       6 GLP5        0.0000 
     12 CA         21.6335   31.2165   43.3410 C.3       3 GLC5        0.0000 
     13 CA         21.1170   31.4610   41.2850 C.3       9 GLL5        0.0000 
     14 CA         21.7560   32.8050   42.2445 C.3       3 GLC5        0.0000 
     15 CA         22.3950   34.1490   43.2040 C.3       6 GLP5        0.0000 
     16 CA         20.7385   31.5375   38.4710 C.3       3 GLC5        0.0000 
     17 CA         20.8850   32.4880   39.8150 C.3       9 GLL5        0.0000 
     18 CA         20.5920   30.5870   37.1270 C.3       6 GLP5        0.0000 
     19 CA         20.8225   33.6155   38.3855 C.3       3 GLC5        0.0000 
     20 CA         20.7600   34.7430   36.9560 C.3       6 GLP5        0.0000 
     21 CA         21.9170   32.5845   38.3220 C.3       3 GLC5        0.0000 
     22 CA         22.9490   32.6810   36.8290 C.3       6 GLP5        0.0000 
     23 CA         21.6190   33.8330   41.0305 C.3       3 GLC5        0.0000 
     24 CA         22.3530   35.1780   42.2460 C.3       6 GLP5        0.0000 
     25 CA         17.6805   31.8575   41.4535 C.3       3 GLC5        0.0000 
     26 CA         19.3930   30.9250   41.7280 C.3       9 GLL5        0.0000 
     27 CA         15.9680   32.7900   41.1790 C.3       6 GLP5        0.0000 
     28 N          18.0210   30.3640   44.1555 N.am      2 SEC2        0.0000 
     29 N          18.2130   29.1510   42.9780 N.am      8 SEL2        0.0000 
     30 N          17.8290   31.5770   45.3330 N.am      5 SEP2        0.0000 
     31 CA         18.3685   29.6840   39.2865 C.3       3 GLC5        0.0000 
     32 CA         18.5530   28.6810   40.6710 C.3       9 GLL5        0.0000 
     33 CA         18.1840   30.6870   37.9020 C.3       6 GLP5        0.0000 
     34 CA         16.4395   29.4790   44.0065 C.3       3 GLC5        0.0000 
     35 CA         17.3630   27.9640   42.7020 C.3       9 GLL5        0.0000 
     36 CA         15.5160   30.9940   45.3110 C.3       6 GLP5        0.0000 
     37 CA         10.8595   27.8475   45.6325 C.3       3 GLC5        0.0000 
     38 CA         12.8230   27.5720   44.5820 C.3       9 GLL5        0.0000 
     39 CA          8.8960   28.1230   46.6830 C.3       6 GLP5        0.0000 
     40 CA         13.0110   28.3275   46.6925 C.3       3 GLC5        0.0000 
     41 CA         13.1990   29.0830   48.8030 C.3       6 GLP5        0.0000 
     42 N          11.8215   25.6480   45.3075 N.am      2 SEC2        0.0000 
     43 N          13.1470   26.5880   45.3830 N.am      8 SEL2        0.0000 
     44 N          10.4960   24.7080   45.2320 N.am      5 SEP2        0.0000 
     45 CA         16.1190   24.6265   45.9055 C.3       3 GLC5        0.0000 
     46 CA         14.5060   26.0200   45.4250 C.3       9 GLL5        0.0000 
     47 CA         17.7320   23.2330   46.3860 C.3       6 GLP5        0.0000 
     48 CA         15.5780   26.8085   46.5775 C.3       3 GLC5        0.0000 
     49 CA         16.6500   27.5970   47.7300 C.3       6 GLP5        0.0000 
     50 CA         13.1730   25.0265   46.5665 C.3       3 GLC5        0.0000 
     51 CA         11.8400   24.0330   47.7080 C.3       6 GLP5        0.0000 
     52 CA         15.8885   27.5680   45.7620 C.3       3 GLC5        0.0000 
     53 CA         15.1270   27.5390   43.7940 C.3       9 GLL5        0.0000 
     54 CA         21.1157   30.6590   39.0940 C.3       3 GLC5        0.0000 
     55 CA         18.7300   30.4222   39.8600 C.3       3 GLC5        0.0000 
     56 CA         12.1113   26.5280   43.5052 C.3       3 GLC5        0.0000 
     57 CA         13.9000   28.0860   43.6990 C.3       9 GLL5        0.0000 
     58 CA         10.8610   25.2270   42.8700 C.3       6 GLP5        0.0000 
@<TRIPOS>BOND
@<TRIPOS>SUBSTRUCTURE
     1 ALC1        1 GROUP        1 X    ALC  0     ROOT ALC X 1
     2 SEC2       28 GROUP        1 X    SEC  0     **** SEC X 2
     3 GLC5        6 GROUP        1 X    GLC  0     **** GLC X 6
     4 ALP1        3 GROUP        1 Y    ALP  0     ROOT ALP Y 8
     5 SEP2       30 GROUP        1 Y    SEP  0     **** SEP Y 9
     6 GLP5        8 GROUP        1 Y    GLP  0     **** GLP Y 13
     7 ALL1        2 GROUP        1 Z    ALL  0     ROOT ALL Z 15
     8 SEL2       29 GROUP        1 Z    SEL  0     **** SEL Z 16
     9 GLL5        7 GROUP        1 Z    GLL  0     **** GLL Z 20
@<TRIPOS>SET

