#    Name: 1p91_SAM_1_ligand
#    Modification time : Mon Mar 24 21:11:40 2014

@<TRIPOS>MOLECULE
1p91_SAM_1_ligand
   50    52     1     0     0
SMALL
NO_CHARGES


@<TRIPOS>ATOM
      1 N          24.6500   28.6250   42.8880 N.4       1 SAM1401     0.0000 
      2 CA         23.5890   28.0780   42.0600 C.3       1 SAM1401     0.0000 
      3 C          24.1110   27.6990   40.6340 C.2       1 SAM1401     0.0000 
      4 O          25.3100   27.7670   40.3570 O.co2     1 SAM1401     0.0000 
      5 OXT        23.3380   27.2980   39.7570 O.co2     1 SAM1401     0.0000 
      6 CB         22.4410   29.1400   42.1220 C.3       1 SAM1401     0.0000 
      7 CG         22.1620   30.0010   40.8370 C.3       1 SAM1401     0.0000 
      8 SD         21.1170   31.4610   41.2850 S.3       1 SAM1401     0.0000 
      9 CE         20.8850   32.4880   39.8150 C.3       1 SAM1401     0.0000 
     10 C5'        19.3930   30.9250   41.7280 C.3       1 SAM1401     0.0000 
     11 C4'        19.1590   29.3900   41.9080 C.3       1 SAM1401     0.0000 
     12 O4'        18.2130   29.1510   42.9780 O.3       1 SAM1401     0.0000 
     13 C3'        18.5530   28.6810   40.6710 C.3       1 SAM1401     0.0000 
     14 O3'        19.6050   28.2680   39.7680 O.3       1 SAM1401     0.0000 
     15 C2'        17.7450   27.4890   41.2530 C.3       1 SAM1401     0.0000 
     16 O2'        18.4520   26.2200   41.1880 O.3       1 SAM1401     0.0000 
     17 C1'        17.3630   27.9640   42.7020 C.3       1 SAM1401     0.0000 
     18 N9         15.9200   28.2910   42.8350 N.pl3     1 SAM1401     0.0000 
     19 C8         15.0590   29.2770   42.1840 C.2       1 SAM1401     0.0000 
     20 N7         13.9000   29.0390   42.8000 N.2       1 SAM1401     0.0000 
     21 C5         13.9000   28.0860   43.6990 C.ar      1 SAM1401     0.0000 
     22 C6         12.8230   27.5720   44.5820 C.ar      1 SAM1401     0.0000 
     23 N6         11.4990   28.1460   44.5410 N.pl3     1 SAM1401     0.0000 
     24 N1         13.1470   26.5880   45.3830 N.ar      1 SAM1401     0.0000 
     25 C2         14.5060   26.0200   45.4250 C.ar      1 SAM1401     0.0000 
     26 N3         15.4670   26.5310   44.6160 N.ar      1 SAM1401     0.0000 
     27 C4         15.1270   27.5390   43.7940 C.ar      1 SAM1401     0.0000 
     28 H          23.2040   27.1721   42.5391 H         1 SAM1401     0.0000 
     29 H          22.6550   29.8362   42.9626 H         1 SAM1401     0.0000 
     30 H          21.4981   28.6185   42.3980 H         1 SAM1401     0.0000 
     31 H          21.5629   29.5071   40.1293 H         1 SAM1401     0.0000 
     32 H          23.0252   30.4560   40.4477 H         1 SAM1401     0.0000 
     33 H          18.8165   31.3487   40.9144 H         1 SAM1401     0.0000 
     34 H          19.2148   31.4898   42.6353 H         1 SAM1401     0.0000 
     35 H          20.0979   28.9170   42.1361 H         1 SAM1401     0.0000 
     36 H          17.8604   29.3603   40.2241 H         1 SAM1401     0.0000 
     37 H          16.8041   27.4654   40.6930 H         1 SAM1401     0.0000 
     38 H          17.6424   27.1683   43.3735 H         1 SAM1401     0.0000 
     39 H          15.3222   29.8536   41.5459 H         1 SAM1401     0.0000 
     40 H          11.3740   28.9199   43.9202 H         1 SAM1401     0.0000 
     41 H          10.8169   27.7220   45.1368 H         1 SAM1401     0.0000 
     42 H          14.6687   25.2525   46.0728 H         1 SAM1401     0.0000 
     43 H          25.3977   27.9727   43.0124 H         1 SAM1401     0.0000 
     44 H          25.0455   29.4513   42.4870 H         1 SAM1401     0.0000 
     45 H          24.3205   28.8705   43.7997 H         1 SAM1401     0.0000 
     46 H          21.7558   32.8208   39.4533 H         1 SAM1401     0.0000 
     47 H          20.4345   31.9847   39.0776 H         1 SAM1401     0.0000 
     48 H          20.3217   33.2913   40.0083 H         1 SAM1401     0.0000 
     49 H          20.3125   28.9691   39.8572 H         1 SAM1401     0.0000 
     50 H          19.1692   26.3581   40.5050 H         1 SAM1401     0.0000 
@<TRIPOS>BOND
     1    2    1 1    
     2   43    1 1    
     3   44    1 1    
     4   45    1 1    
     5    3    2 1    
     6    6    2 1    
     7   28    2 1    
     8    4    3 ar   
     9    5    3 ar   
    10    7    6 1    
    11   29    6 1    
    12   30    6 1    
    13    8    7 1    
    14   31    7 1    
    15   32    7 1    
    16    9    8 1    
    17   10    8 1    
    18   46    9 1    
    19   47    9 1    
    20   48    9 1    
    21   11   10 1    
    22   33   10 1    
    23   34   10 1    
    24   12   11 1    
    25   13   11 1    
    26   35   11 1    
    27   17   12 1    
    28   14   13 1    
    29   15   13 1    
    30   36   13 1    
    31   49   14 1    
    32   16   15 1    
    33   17   15 1    
    34   37   15 1    
    35   50   16 1    
    36   18   17 1    
    37   38   17 1    
    38   19   18 1    
    39   27   18 1    
    40   20   19 2    
    41   39   19 1    
    42   21   20 1    
    43   22   21 ar   
    44   27   21 ar   
    45   23   22 1    
    46   24   22 ar   
    47   40   23 1    
    48   41   23 1    
    49   25   24 ar   
    50   26   25 ar   
    51   42   25 1    
    52   27   26 ar   
@<TRIPOS>SUBSTRUCTURE
     1 SAM1401     1 GROUP   
@<TRIPOS>SET

