#    Name: 4gqk_ADP_1_INTS_M
#    Modification time : Mon Mar 24 23:31:30 2014

@<TRIPOS>MOLECULE
4gqk_ADP_1_INTS_M
   47     0     9     0     0
SMALL
NO_CHARGES


@<TRIPOS>ATOM
      1 CA         31.9955   91.4545    9.5740 C.3       3 GLC5        0.0000 
      2 CA         33.7380   90.5030    9.2030 C.3       9 GLL5        0.0000 
      3 CA         30.2530   92.4060    9.9450 C.3       6 GLP5        0.0000 
      4 CA         35.2475   89.9975   13.4130 C.3       3 GLC5        0.0000 
      5 CA         34.6840   90.4500   11.3970 C.3       9 GLL5        0.0000 
      6 CA         35.8110   89.5450   15.4290 C.3       6 GLP5        0.0000 
      7 O          36.4050   91.3660   12.5625 O.2       1 ALC1        0.0000 
      8 O          35.0530   91.2390   12.5090 O.2       7 ALL1        0.0000 
      9 O          37.7570   91.4930   12.6160 O.2       4 ALP1        0.0000 
     10 CA         31.7320   91.2725   10.6590 C.3       3 GLC5        0.0000 
     11 CA         33.2110   90.1390   11.3730 C.3       9 GLL5        0.0000 
     12 CA         30.2905   90.1980   16.9230 C.3       3 GLC5        0.0000 
     13 CA         30.8780   88.7810   15.4080 C.3       9 GLL5        0.0000 
     14 CA         29.7030   91.6150   18.4380 C.3       6 GLP5        0.0000 
     15 O          29.6310   87.6395   17.4560 O.2       1 ALC1        0.0000 
     16 O          30.7180   87.8370   16.3660 O.2       7 ALL1        0.0000 
     17 O          28.5440   87.4420   18.5460 O.2       4 ALP1        0.0000 
     18 N          29.5610   90.3385   16.6405 N.am      2 SEC2        0.0000 
     19 N          30.2400   89.9710   15.5530 N.am      8 SEL2        0.0000 
     20 N          28.8820   90.7060   17.7280 N.am      5 SEP2        0.0000 
     21 CA         30.0820   91.2740   16.5455 C.3       3 GLC5        0.0000 
     22 CA         30.4610   90.9330   14.6530 C.3       9 GLL5        0.0000 
     23 CA         30.6760   92.8960   15.1380 C.3       3 GLC5        0.0000 
     24 CA         30.8910   94.8590   15.6230 C.3       6 GLP5        0.0000 
     25 CA         32.1780   90.7350   15.4875 C.3       3 GLC5        0.0000 
     26 CA         33.8950   90.5370   16.3220 C.3       6 GLP5        0.0000 
     27 CA         28.2655   90.8140   14.9925 C.3       3 GLC5        0.0000 
     28 CA         26.0700   90.6950   15.3320 C.3       6 GLP5        0.0000 
     29 CA         29.6940   89.5130   13.5725 C.3       3 GLC5        0.0000 
     30 CA         28.9270   88.0930   12.4920 C.3       6 GLP5        0.0000 
     31 CA         30.6365   90.4170   11.8240 C.3       3 GLC5        0.0000 
     32 CA         31.8290   89.6940   13.4210 C.3       9 GLL5        0.0000 
     33 CA         29.4440   91.1400   10.2270 C.3       6 GLP5        0.0000 
     34 CA         36.0005   90.4847    8.6290 C.3       3 GLC5        0.0000 
     35 CA         34.2120   89.7920    7.9690 C.3       9 GLL5        0.0000 
     36 CA         38.0260   90.8220    8.6720 C.3       6 GLP5        0.0000 
     37 CA         35.9973   89.2373   10.8615 C.3       3 GLC5        0.0000 
     38 CA         34.8170   91.1630   10.0550 C.3       9 GLL5        0.0000 
     39 CA         37.2440   87.6680   10.9970 C.3       6 GLP5        0.0000 
     40 CA         34.9260   91.9511    7.9057 C.3       3 GLC5        0.0000 
     41 CA         35.4560   93.2470    6.4910 C.3       6 GLP5        0.0000 
     42 CA         36.3882   90.8143    9.6990 C.3       3 GLC5        0.0000 
     43 CA         33.7604   92.2019   12.0513 C.3       3 GLC5        0.0000 
     44 CA         33.5400   93.9310   13.0530 C.3       6 GLP5        0.0000 
     45 CA         32.7308   89.8684   15.2282 C.3       3 GLC5        0.0000 
     46 CA         31.7300   88.6300   14.2880 C.3       9 GLL5        0.0000 
     47 CA         30.2467   88.6464   13.3133 C.3       3 GLC5        0.0000 
@<TRIPOS>BOND
@<TRIPOS>SUBSTRUCTURE
     1 ALC1        7 GROUP        1 X    ALC  0     ROOT ALC X 1
     2 SEC2       18 GROUP        1 X    SEC  0     **** SEC X 2
     3 GLC5        1 GROUP        1 X    GLC  0     **** GLC X 6
     4 ALP1        9 GROUP        1 Y    ALP  0     ROOT ALP Y 8
     5 SEP2       20 GROUP        1 Y    SEP  0     **** SEP Y 9
     6 GLP5        3 GROUP        1 Y    GLP  0     **** GLP Y 13
     7 ALL1        8 GROUP        1 Z    ALL  0     ROOT ALL Z 15
     8 SEL2       19 GROUP        1 Z    SEL  0     **** SEL Z 16
     9 GLL5        2 GROUP        1 Z    GLL  0     **** GLL Z 20
@<TRIPOS>SET

