#    Name: 4gqk_ADP_1_ligand
#    Modification time : Mon Mar 24 23:31:30 2014

@<TRIPOS>MOLECULE
4gqk_ADP_1_ligand
   39    41     1     0     0
SMALL
NO_CHARGES


@<TRIPOS>ATOM
      1 PB         34.3540   87.1790    4.0490 P.3       1 ADP401      0.0000 
      2 O1B        34.4920   85.7000    4.3300 O.co2     1 ADP401      0.0000 
      3 O2B        35.6070   87.6030    3.2460 O.co2     1 ADP401      0.0000 
      4 O3B        33.0900   87.3840    3.1920 O.co2     1 ADP401      0.0000 
      5 PA         34.6040   87.5530    6.8900 P.3       1 ADP401      0.0000 
      6 O1A        34.2240   86.1330    7.1040 O.co2     1 ADP401      0.0000 
      7 O2A        36.1330   87.6550    7.1030 O.co2     1 ADP401      0.0000 
      8 O3A        34.2300   88.0270    5.4050 O.3       1 ADP401      0.0000 
      9 O5'        33.7720   88.4390    7.9140 O.3       1 ADP401      0.0000 
     10 C5'        34.2120   89.7920    7.9690 C.3       1 ADP401      0.0000 
     11 C4'        33.7380   90.5030    9.2030 C.3       1 ADP401      0.0000 
     12 O4'        32.9970   89.6300   10.0830 O.3       1 ADP401      0.0000 
     13 C3'        34.8170   91.1630   10.0550 C.3       1 ADP401      0.0000 
     14 O3'        34.5360   92.5470   10.1290 O.3       1 ADP401      0.0000 
     15 C2'        34.6840   90.4500   11.3970 C.3       1 ADP401      0.0000 
     16 O2'        35.0530   91.2390   12.5090 O.3       1 ADP401      0.0000 
     17 C1'        33.2110   90.1390   11.3730 C.3       1 ADP401      0.0000 
     18 N9         32.6620   89.2820   12.4120 N.pl3     1 ADP401      0.0000 
     19 C8         33.0180   88.0010   12.7190 C.2       1 ADP401      0.0000 
     20 N7         32.5060   87.5650   13.8430 N.2       1 ADP401      0.0000 
     21 C5         31.7300   88.6300   14.2880 C.ar      1 ADP401      0.0000 
     22 C6         30.8780   88.7810   15.4080 C.ar      1 ADP401      0.0000 
     23 N6         30.7180   87.8370   16.3660 N.pl3     1 ADP401      0.0000 
     24 N1         30.2400   89.9710   15.5530 N.ar      1 ADP401      0.0000 
     25 C2         30.4610   90.9330   14.6530 C.ar      1 ADP401      0.0000 
     26 N3         31.2280   90.8860   13.5610 N.ar      1 ADP401      0.0000 
     27 C4         31.8290   89.6940   13.4210 C.ar      1 ADP401      0.0000 
     28 H          33.8569   90.3642    7.0850 H         1 ADP401      0.0000 
     29 H          35.3213   89.8531    7.9420 H         1 ADP401      0.0000 
     30 H          33.0483   91.3225    8.8898 H         1 ADP401      0.0000 
     31 H          35.7533   90.9274    9.6300 H         1 ADP401      0.0000 
     32 H          35.2073   89.5210   11.3133 H         1 ADP401      0.0000 
     33 H          32.6960   91.1413   11.4146 H         1 ADP401      0.0000 
     34 H          33.6199   87.4645   12.1185 H         1 ADP401      0.0000 
     35 H          31.2738   87.0116   16.2676 H         1 ADP401      0.0000 
     36 H          30.0582   88.0491   17.0869 H         1 ADP401      0.0000 
     37 H          29.9425   91.8905   14.8358 H         1 ADP401      0.0000 
     38 H          34.5175   92.7553   11.1069 H         1 ADP401      0.0000 
     39 H          36.0526   91.2605   12.4906 H         1 ADP401      0.0000 
@<TRIPOS>BOND
     1    2    1 ar   
     2    3    1 ar   
     3    4    1 ar   
     4    8    1 1    
     5    6    5 ar   
     6    7    5 ar   
     7    8    5 1    
     8    9    5 1    
     9   10    9 1    
    10   11   10 1    
    11   28   10 1    
    12   29   10 1    
    13   12   11 1    
    14   13   11 1    
    15   30   11 1    
    16   17   12 1    
    17   14   13 1    
    18   15   13 1    
    19   31   13 1    
    20   38   14 1    
    21   16   15 1    
    22   17   15 1    
    23   32   15 1    
    24   39   16 1    
    25   18   17 1    
    26   33   17 1    
    27   19   18 1    
    28   27   18 1    
    29   20   19 2    
    30   34   19 1    
    31   21   20 1    
    32   22   21 ar   
    33   27   21 ar   
    34   23   22 1    
    35   24   22 ar   
    36   35   23 1    
    37   36   23 1    
    38   25   24 ar   
    39   26   25 ar   
    40   37   25 1    
    41   27   26 ar   
@<TRIPOS>SUBSTRUCTURE
     1 ADP401      1 GROUP   
@<TRIPOS>SET

