#    Name: 4b7x_NAP_8_INTS_M
#    Modification time : Tue Mar 25 07:00:59 2014

@<TRIPOS>MOLECULE
4b7x_NAP_8_INTS_M
  106     0    12     0     0
SMALL
NO_CHARGES


@<TRIPOS>ATOM
      1 N          37.4960   16.3940  -39.5115 N.am      2 SEC2        0.0000 
      2 N          37.5310   17.5930  -40.1550 N.am     10 SEL2        0.0000 
      3 N          37.4610   15.1950  -38.8680 N.am      6 SEP2        0.0000 
      4 N          38.8725   18.4705  -40.7425 N.am      2 SEC2        0.0000 
      5 N          40.2140   19.3480  -41.3300 N.am      6 SEP2        0.0000 
      6 N          38.6325   19.3015  -41.7220 N.am      2 SEC2        0.0000 
      7 N          37.0510   19.2550  -42.1140 N.am     10 SEL2        0.0000 
      8 CA         37.2440   21.6010  -43.3860 C.3       4 GLC5        0.0000 
      9 CA         36.2660   19.6800  -43.2370 C.3      12 GLL5        0.0000 
     10 CA         38.2220   23.5220  -43.5350 C.3       8 GLP5        0.0000 
     11 O          39.4620   19.5500  -43.9715 O.2       1 ALC1        0.0000 
     12 O          38.8560   18.4770  -44.7610 O.2       9 ALL1        0.0000 
     13 O          40.0680   20.6230  -43.1820 O.2       5 ALP1        0.0000 
     14 N          39.4240   17.1275  -46.3670 N.am      2 SEC2        0.0000 
     15 N          37.7600   17.2680  -46.7180 N.am     10 SEL2        0.0000 
     16 N          41.0880   16.9870  -46.0160 N.am      6 SEP2        0.0000 
     17 CA         33.8145   19.1265  -46.3900 C.3       4 GLC5        0.0000 
     18 CA         35.7950   18.5250  -46.6590 C.3      12 GLL5        0.0000 
     19 CA         31.8340   19.7280  -46.1210 C.3       8 GLP5        0.0000 
     20 CA         32.1075   21.0125  -49.5505 C.3       4 GLC5        0.0000 
     21 CA         34.2020   20.2630  -49.3800 C.3      12 GLL5        0.0000 
     22 CA         30.0130   21.7620  -49.7210 C.3       8 GLP5        0.0000 
     23 CA         32.0115   18.6435  -50.0125 C.3       4 GLC5        0.0000 
     24 CA         33.5270   20.1640  -50.5820 C.3      12 GLL5        0.0000 
     25 CA         30.4960   17.1230  -49.4430 C.3       8 GLP5        0.0000 
     26 CA         31.6425   20.3910  -50.6455 C.3       4 GLC5        0.0000 
     27 CA         29.7580   20.6180  -50.7090 C.3       8 GLP5        0.0000 
     28 CA         32.0825   17.4870  -49.9585 C.3       4 GLC5        0.0000 
     29 CA         33.6690   17.8510  -50.4740 C.3      12 GLL5        0.0000 
     30 CA         32.7475   16.1330  -51.3070 C.3       4 GLC5        0.0000 
     31 CA         31.8260   14.4150  -52.1400 C.3       8 GLP5        0.0000 
     32 CA         33.0775   17.5980  -48.0915 C.3       4 GLC5        0.0000 
     33 CA         34.5970   19.0940  -48.7540 C.3      12 GLL5        0.0000 
     34 CA         31.5580   16.1020  -47.4290 C.3       8 GLP5        0.0000 
     35 N          34.8320   15.5565  -38.4240 N.am      2 SEC2        0.0000 
     36 N          34.7300   16.7320  -39.1570 N.am     10 SEL2        0.0000 
     37 N          34.9340   14.3810  -37.6910 N.am      6 SEP2        0.0000 
     38 CA         32.8805   19.7500  -40.5860 C.3       4 GLC5        0.0000 
     39 CA         32.4280   17.6280  -40.7040 C.3      12 GLL5        0.0000 
     40 CA         33.3330   21.8720  -40.4680 C.3       8 GLP5        0.0000 
     41 CA         32.3325   16.6075  -38.8415 C.3       4 GLC5        0.0000 
     42 CA         32.2370   15.5870  -36.9790 C.3       8 GLP5        0.0000 
     43 CA         31.9865   20.6190  -40.8570 C.3       4 GLC5        0.0000 
     44 CA         30.6400   19.3660  -41.2460 C.3      12 GLL5        0.0000 
     45 CA         28.5340   18.8610  -41.7750 C.3       4 GLC5        0.0000 
     46 CA         26.4280   18.3560  -42.3040 C.3       8 GLP5        0.0000 
     47 CA         31.0025   20.1590  -43.2935 C.3       4 GLC5        0.0000 
     48 CA         31.3650   20.9520  -45.3410 C.3       8 GLP5        0.0000 
     49 O          29.6025   18.5200  -43.3460 O.2       1 ALC1        0.0000 
     50 O          29.5910   19.3290  -42.1880 O.2       9 ALL1        0.0000 
     51 O          29.6140   17.7110  -44.5040 O.2       5 ALP1        0.0000 
     52 CA         31.1890   21.4070  -40.4070 C.3       4 GLC5        0.0000 
     53 CA         30.1300   19.9900  -39.9420 C.3      12 GLL5        0.0000 
     54 CA         32.2480   22.8240  -40.8720 C.3       8 GLP5        0.0000 
     55 N          28.3080   21.3265  -41.1030 N.am      2 SEC2        0.0000 
     56 N          29.2400   21.0910  -40.2110 N.am     10 SEL2        0.0000 
     57 N          27.3760   21.5620  -41.9950 N.am      6 SEP2        0.0000 
     58 CA         28.5135   17.0635  -38.9510 C.3       4 GLC5        0.0000 
     59 CA         29.3450   18.8270  -39.3730 C.3      12 GLL5        0.0000 
     60 CA         27.6820   15.3000  -38.5290 C.3       8 GLP5        0.0000 
     61 CA         27.8865   18.5915  -40.8385 C.3       4 GLC5        0.0000 
     62 N          25.0965   17.9575  -33.3960 N.am      2 SEC2        0.0000 
     63 N          25.6690   18.2160  -34.6090 N.am     10 SEL2        0.0000 
     64 N          24.5240   17.6990  -32.1830 N.am      6 SEP2        0.0000 
     65 O          25.4170   18.0230  -38.2490 O.2       1 ALC1        0.0000 
     66 O          25.1480   18.2150  -36.8080 O.2       9 ALL1        0.0000 
     67 O          25.6860   17.8310  -39.6900 O.2       5 ALP1        0.0000 
     68 O          23.7915   17.7840  -36.5710 O.2       1 ALC1        0.0000 
     69 O          22.4350   17.3530  -36.3340 O.2       5 ALP1        0.0000 
     70 CA         27.9230   18.5735  -33.1775 C.3       4 GLC5        0.0000 
     71 CA         28.4710   18.8140  -35.2160 C.3      12 GLL5        0.0000 
     72 CA         27.3750   18.3330  -31.1390 C.3       8 GLP5        0.0000 
     73 NZ         40.4610   17.2375  -47.1120 N.4       3 LYC4        0.0000 
     74 NZ         39.8340   17.4880  -48.2080 N.4      11 LYL4        0.0000 
     75 NZ         41.0880   16.9870  -46.0160 N.4       7 LYP4        0.0000 
     76 NZ         40.2505   17.8300  -49.9145 N.4       3 LYC4        0.0000 
     77 NZ         40.6670   18.1720  -51.6210 N.4       7 LYP4        0.0000 
     78 N          40.4610   17.2375  -47.1120 N.am      2 SEC2        0.0000 
     79 N          39.8340   17.4880  -48.2080 N.am     10 SEL2        0.0000 
     80 NZ         39.8475   16.1170  -46.9935 N.4       3 LYC4        0.0000 
     81 NZ         38.6070   15.2470  -47.9710 N.4      11 LYL4        0.0000 
     82 N          38.8430   14.4675  -49.0250 N.am      2 SEC2        0.0000 
     83 N          38.6070   15.2470  -47.9710 N.am     10 SEL2        0.0000 
     84 N          39.0790   13.6880  -50.0790 N.am      6 SEP2        0.0000 
     85 CA         34.9610   20.4657  -44.0568 C.3       4 GLC5        0.0000 
     86 CA         36.4440   18.7250  -44.4320 C.3      12 GLL5        0.0000 
     87 CA         33.5670   21.7290  -44.2790 C.3       8 GLP5        0.0000 
     88 CA         38.8628   19.7880  -46.7755 C.3       4 GLC5        0.0000 
     89 CA         37.6700   19.1340  -45.2660 C.3      12 GLL5        0.0000 
     90 CA         40.2310   20.7060  -47.5940 C.3       8 GLP5        0.0000 
     91 CA         33.1167   19.7033  -47.5940 C.3       4 GLC5        0.0000 
     92 CA         31.1190   16.4225  -42.0487 C.3       4 GLC5        0.0000 
     93 CA         30.5640   15.0760  -43.3060 C.3       8 GLP5        0.0000 
     94 CA         29.7100   21.3980  -41.6230 C.3       4 GLC5        0.0000 
     95 CA         29.0350   23.1180  -42.6520 C.3       8 GLP5        0.0000 
     96 CA         28.0620   16.9300  -36.0350 C.3       4 GLC5        0.0000 
     97 CA         27.7910   18.6220  -37.5110 C.3      12 GLL5        0.0000 
     98 CA         28.4980   15.2420  -35.2320 C.3       8 GLP5        0.0000 
     99 CA         27.6540   16.9590  -37.6835 C.3       4 GLC5        0.0000 
    100 CA         27.4610   18.6140  -36.1650 C.3      12 GLL5        0.0000 
    101 CA         30.0830   19.1418  -33.9252 C.3       4 GLC5        0.0000 
    102 CA         31.0320   19.3600  -32.4320 C.3       8 GLP5        0.0000 
    103 CA         31.0988   17.3140  -36.6380 C.3       4 GLC5        0.0000 
    104 CA         29.7970   19.0330  -35.6210 C.3      12 GLL5        0.0000 
    105 CA         29.0635   17.1141  -35.7139 C.3       4 GLC5        0.0000 
    106 CA         30.1240   19.0490  -36.9730 C.3      12 GLL5        0.0000 
@<TRIPOS>BOND
@<TRIPOS>SUBSTRUCTURE
     1 ALC1       11 GROUP        1 X    ALC  0     ROOT ALC X 1
     2 SEC2        1 GROUP        1 X    SEC  0     **** SEC X 2
     3 LYC4       73 GROUP        1 X    LYC  0     **** LYC X 4
     4 GLC5        8 GROUP        1 X    GLC  0     **** GLC X 6
     5 ALP1       13 GROUP        1 Y    ALP  0     ROOT ALP Y 8
     6 SEP2        3 GROUP        1 Y    SEP  0     **** SEP Y 9
     7 LYP4       75 GROUP        1 Y    LYP  0     **** LYP Y 11
     8 GLP5       10 GROUP        1 Y    GLP  0     **** GLP Y 13
     9 ALL1       12 GROUP        1 Z    ALL  0     ROOT ALL Z 15
    10 SEL2        2 GROUP        1 Z    SEL  0     **** SEL Z 16
    11 LYL4       74 GROUP        1 Z    LYL  0     **** LYL Z 18
    12 GLL5        9 GROUP        1 Z    GLL  0     **** GLL Z 20
@<TRIPOS>SET

