#    Name: 4b7x_NAP_8_ligand
#    Modification time : Tue Mar 25 07:00:59 2014

@<TRIPOS>MOLECULE
4b7x_NAP_8_ligand
   73    77     1     0     0
SMALL
NO_CHARGES


@<TRIPOS>ATOM
      1 PA         36.4060   18.1770  -41.1380 P.3       1 NAP400      0.0000 
      2 O1A        37.5310   17.5930  -40.1550 O.co2     1 NAP400      0.0000 
      3 O2A        35.7060   17.0760  -41.8460 O.co2     1 NAP400      0.0000 
      4 O5B        37.0510   19.2550  -42.1140 O.3       1 NAP400      0.0000 
      5 C5B        36.2660   19.6800  -43.2370 C.3       1 NAP400      0.0000 
      6 C4B        36.4440   18.7250  -44.4320 C.3       1 NAP400      0.0000 
      7 O4B        35.3350   18.9210  -45.3300 O.3       1 NAP400      0.0000 
      8 C3B        37.6700   19.1340  -45.2660 C.3       1 NAP400      0.0000 
      9 O3B        38.8560   18.4770  -44.7610 O.3       1 NAP400      0.0000 
     10 C2B        37.3190   18.6060  -46.6480 C.3       1 NAP400      0.0000 
     11 O2B        37.7600   17.2680  -46.7180 O.3       1 NAP400      0.0000 
     12 C1B        35.7950   18.5250  -46.6590 C.3       1 NAP400      0.0000 
     13 N9A        35.2280   19.4500  -47.6400 N.pl3     1 NAP400      0.0000 
     14 C8A        35.2200   20.7870  -47.5590 C.2       1 NAP400      0.0000 
     15 N7A        34.5950   21.2880  -48.6290 N.2       1 NAP400      0.0000 
     16 C5A        34.2020   20.2630  -49.3800 C.ar      1 NAP400      0.0000 
     17 C6A        33.5270   20.1640  -50.5820 C.ar      1 NAP400      0.0000 
     18 N6A        33.1310   21.2610  -51.2110 N.pl3     1 NAP400      0.0000 
     19 N1A        33.2790   18.9520  -51.1020 N.ar      1 NAP400      0.0000 
     20 C2A        33.6690   17.8510  -50.4740 C.ar      1 NAP400      0.0000 
     21 N3A        34.3170   17.8990  -49.3180 N.ar      1 NAP400      0.0000 
     22 C4A        34.5970   19.0940  -48.7540 C.ar      1 NAP400      0.0000 
     23 O3         35.3480   18.9850  -40.2310 O.3       1 NAP400      0.0000 
     24 PN         34.4600   18.1950  -39.1460 P.3       1 NAP400      0.0000 
     25 O1N        34.6260   18.9250  -37.8800 O.co2     1 NAP400      0.0000 
     26 O2N        34.7300   16.7320  -39.1570 O.co2     1 NAP400      0.0000 
     27 O5D        33.0320   18.5180  -39.7760 O.3       1 NAP400      0.0000 
     28 C5D        32.4280   17.6280  -40.7040 C.3       1 NAP400      0.0000 
     29 C4D        30.9200   17.9100  -40.8790 C.3       1 NAP400      0.0000 
     30 O4D        30.1670   17.6370  -39.6570 O.3       1 NAP400      0.0000 
     31 C3D        30.6400   19.3660  -41.2460 C.3       1 NAP400      0.0000 
     32 O3D        29.5910   19.3290  -42.1880 O.3       1 NAP400      0.0000 
     33 C2D        30.1300   19.9900  -39.9420 C.3       1 NAP400      0.0000 
     34 O2D        29.2400   21.0910  -40.2110 O.3       1 NAP400      0.0000 
     35 C1D        29.3450   18.8270  -39.3730 C.3       1 NAP400      0.0000 
     36 N1N        29.1050   18.8490  -37.9210 N.pl3     1 NAP400      0.0000 
     37 C2N        27.7910   18.6220  -37.5110 C.ar      1 NAP400      0.0000 
     38 C3N        27.4610   18.6140  -36.1650 C.ar      1 NAP400      0.0000 
     39 C7N        25.9950   18.3530  -35.7810 C.2       1 NAP400      0.0000 
     40 O7N        25.6690   18.2160  -34.6090 O.2       1 NAP400      0.0000 
     41 N7N        25.1480   18.2150  -36.8080 N.am      1 NAP400      0.0000 
     42 C4N        28.4710   18.8140  -35.2160 C.ar      1 NAP400      0.0000 
     43 C5N        29.7970   19.0330  -35.6210 C.ar      1 NAP400      0.0000 
     44 C6N        30.1240   19.0490  -36.9730 C.ar      1 NAP400      0.0000 
     45 P2B        38.4270   16.7030  -48.0700 P.3       1 NAP400      0.0000 
     46 O1X        37.4880   17.1970  -49.2770 O.co2     1 NAP400      0.0000 
     47 O2X        39.8340   17.4880  -48.2080 O.co2     1 NAP400      0.0000 
     48 O3X        38.6070   15.2470  -47.9710 O.co2     1 NAP400      0.0000 
     49 H          36.5523   20.6869  -43.5745 H         1 NAP400      0.0000 
     50 H          35.1934   19.7084  -42.9949 H         1 NAP400      0.0000 
     51 H          36.5380   17.7442  -44.1180 H         1 NAP400      0.0000 
     52 H          37.7290   20.1733  -45.2934 H         1 NAP400      0.0000 
     53 H          37.6523   19.2233  -47.3810 H         1 NAP400      0.0000 
     54 H          35.5069   17.5207  -46.8635 H         1 NAP400      0.0000 
     55 H          35.6088   21.3101  -46.8340 H         1 NAP400      0.0000 
     56 H          32.6989   21.1253  -52.1026 H         1 NAP400      0.0000 
     57 H          33.3001   22.1252  -50.7372 H         1 NAP400      0.0000 
     58 H          33.4568   16.9059  -50.9084 H         1 NAP400      0.0000 
     59 H          32.5251   16.5736  -40.3879 H         1 NAP400      0.0000 
     60 H          32.8888   17.7009  -41.7058 H         1 NAP400      0.0000 
     61 H          30.5431   17.2892  -41.6848 H         1 NAP400      0.0000 
     62 H          31.5028   19.8218  -41.5543 H         1 NAP400      0.0000 
     63 H          30.9315   20.2030  -39.3269 H         1 NAP400      0.0000 
     64 H          28.4210   18.7274  -39.9162 H         1 NAP400      0.0000 
     65 H          27.0589   18.4585  -38.2216 H         1 NAP400      0.0000 
     66 H          24.1899   18.0560  -36.5699 H         1 NAP400      0.0000 
     67 H          25.5492   18.2833  -37.7215 H         1 NAP400      0.0000 
     68 H          28.2410   18.8006  -34.2138 H         1 NAP400      0.0000 
     69 H          30.5256   19.1816  -34.9111 H         1 NAP400      0.0000 
     70 H          31.0830   19.2024  -37.2779 H         1 NAP400      0.0000 
     71 H          39.0227   18.8947  -43.8679 H         1 NAP400      0.0000 
     72 H          29.8801   18.6581  -42.8709 H         1 NAP400      0.0000 
     73 H          28.4359   20.9186  -39.6420 H         1 NAP400      0.0000 
@<TRIPOS>BOND
     1    2    1 ar   
     2    3    1 ar   
     3    4    1 1    
     4   23    1 1    
     5    5    4 1    
     6    6    5 1    
     7   49    5 1    
     8   50    5 1    
     9    7    6 1    
    10    8    6 1    
    11   51    6 1    
    12   12    7 1    
    13    9    8 1    
    14   10    8 1    
    15   52    8 1    
    16   71    9 1    
    17   11   10 1    
    18   12   10 1    
    19   53   10 1    
    20   45   11 1    
    21   13   12 1    
    22   54   12 1    
    23   14   13 1    
    24   22   13 1    
    25   15   14 2    
    26   55   14 1    
    27   16   15 1    
    28   17   16 ar   
    29   22   16 ar   
    30   18   17 1    
    31   19   17 ar   
    32   56   18 1    
    33   57   18 1    
    34   20   19 ar   
    35   21   20 ar   
    36   58   20 1    
    37   22   21 ar   
    38   24   23 1    
    39   25   24 ar   
    40   26   24 ar   
    41   27   24 1    
    42   28   27 1    
    43   29   28 1    
    44   59   28 1    
    45   60   28 1    
    46   30   29 1    
    47   31   29 1    
    48   61   29 1    
    49   35   30 1    
    50   32   31 1    
    51   33   31 1    
    52   62   31 1    
    53   72   32 1    
    54   34   33 1    
    55   35   33 1    
    56   63   33 1    
    57   73   34 1    
    58   36   35 1    
    59   64   35 1    
    60   37   36 ar   
    61   44   36 ar   
    62   38   37 ar   
    63   65   37 1    
    64   39   38 1    
    65   42   38 ar   
    66   40   39 2    
    67   41   39 am   
    68   66   41 1    
    69   67   41 1    
    70   43   42 ar   
    71   68   42 1    
    72   44   43 ar   
    73   69   43 1    
    74   70   44 1    
    75   46   45 ar   
    76   47   45 ar   
    77   48   45 ar   
@<TRIPOS>SUBSTRUCTURE
     1 NAP400      1 GROUP   
@<TRIPOS>SET

