#    Name: 3pjc_PJC_1_INTS_M
#    Modification time : Tue Mar 25 06:40:26 2014

@<TRIPOS>MOLECULE
3pjc_PJC_1_INTS_M
   74     0     9     0     0
SMALL
NO_CHARGES


@<TRIPOS>ATOM
      1 CA          6.2025   -2.8670   11.2310 C.3       3 GLC5        0.0000 
      2 CA          6.3930   -4.9250   11.1290 C.3       9 GLL5        0.0000 
      3 CA          6.0120   -0.8090   11.3330 C.3       6 GLP5        0.0000 
      4 CA          4.5130   -4.4935   11.2270 C.3       3 GLC5        0.0000 
      5 CA          2.6330   -4.0620   11.3250 C.3       6 GLP5        0.0000 
      6 CA          4.4355   -7.1080    9.8135 C.3       3 GLC5        0.0000 
      7 CA          5.7720   -5.6080    8.9690 C.3       9 GLL5        0.0000 
      8 CA          3.0990   -8.6080   10.6580 C.3       6 GLP5        0.0000 
      9 CA          4.2420   -4.3875    9.5230 C.3       3 GLC5        0.0000 
     10 CA          2.7120   -3.1670   10.0770 C.3       6 GLP5        0.0000 
     11 CA          5.5860   -3.3930   14.4560 C.3       3 GLC5        0.0000 
     12 CA          7.1870   -4.2920   13.3850 C.3       9 GLL5        0.0000 
     13 CA          3.9850   -2.4940   15.5270 C.3       6 GLP5        0.0000 
     14 CA          6.5995   -2.5505   12.3590 C.3       3 GLC5        0.0000 
     15 CA          5.0210   -8.5070   13.1340 C.3       3 GLC5        0.0000 
     16 CA          6.1520   -7.1230   13.5760 C.3       9 GLL5        0.0000 
     17 CA          3.8900   -9.8910   12.6920 C.3       6 GLP5        0.0000 
     18 CA          5.1605   -7.5675   15.4005 C.3       3 GLC5        0.0000 
     19 CA          4.1690   -8.0120   17.2250 C.3       6 GLP5        0.0000 
     20 CA          5.5275   -4.0880    4.3990 C.3       3 GLC5        0.0000 
     21 CA          6.3820   -4.2730    6.1850 C.3       9 GLL5        0.0000 
     22 CA          4.6730   -3.9030    2.6130 C.3       6 GLP5        0.0000 
     23 CA         10.1760   -4.9515    6.2480 C.3       3 GLC5        0.0000 
     24 CA          8.4040   -5.1100    6.5590 C.3       9 GLL5        0.0000 
     25 CA         11.9480   -4.7930    5.9370 C.3       6 GLP5        0.0000 
     26 CA          7.1365   -7.8660    7.1170 C.3       3 GLC5        0.0000 
     27 CA          6.7030   -6.4360    6.6030 C.3       9 GLL5        0.0000 
     28 CA          7.5700   -9.2960    7.6310 C.3       6 GLP5        0.0000 
     29 CA          8.6810   -4.7565   15.6590 C.3       3 GLC5        0.0000 
     30 CA          8.1780   -5.4090   13.8430 C.3       9 GLL5        0.0000 
     31 CA          9.1840   -4.1040   17.4750 C.3       6 GLP5        0.0000 
     32 CA          4.7020   -7.6860   12.2560 C.3       3 GLC5        0.0000 
     33 CA          5.2930   -5.8960   13.1330 C.3       9 GLL5        0.0000 
     34 CA          4.1110   -9.4760   11.3790 C.3       6 GLP5        0.0000 
     35 CA          4.6390   -4.1950   14.3300 C.3       3 GLC5        0.0000 
     36 CA          3.9630   -4.9790   12.2290 C.3       3 GLC5        0.0000 
     37 O          11.4380   -1.4800    7.0750 O.2       1 ALC1        0.0000 
     38 O          10.4940   -2.1540    7.8620 O.2       7 ALL1        0.0000 
     39 O          12.3820   -0.8060    6.2880 O.2       4 ALP1        0.0000 
     40 N          13.5650   -1.8360    9.1305 N.am      2 SEC2        0.0000 
     41 N          12.4200   -2.7620    8.9020 N.am      8 SEL2        0.0000 
     42 N          14.7100   -0.9100    9.3590 N.am      5 SEP2        0.0000 
     43 CA          9.0990   -8.8640    9.3595 C.3       3 GLC5        0.0000 
     44 CA          9.1190   -8.2100   11.2460 C.3       9 GLL5        0.0000 
     45 CA          9.0790   -9.5180    7.4730 C.3       6 GLP5        0.0000 
     46 CA          6.9545   -7.2973    8.1603 C.3       3 GLC5        0.0000 
     47 CA          6.9060   -4.9890    8.4100 C.3       9 GLL5        0.0000 
     48 CA          9.0478   -3.5507   13.4805 C.3       3 GLC5        0.0000 
     49 CA         10.4130   -2.2510   13.3470 C.3       6 GLP5        0.0000 
     50 CA         10.8515   -4.2950    7.5402 C.3       3 GLC5        0.0000 
     51 CA         10.3840   -3.9280    9.3560 C.3       9 GLL5        0.0000 
     52 CA          9.4876   -2.5369   10.2790 C.3       3 GLC5        0.0000 
     53 CA          9.5420   -1.0950   11.3230 C.3       6 GLP5        0.0000 
     54 CA          8.7643   -6.6878    6.8722 C.3       3 GLC5        0.0000 
     55 CA          9.7780   -8.2340    7.0120 C.3       6 GLP5        0.0000 
     56 CA          7.7389   -3.5497    5.1976 C.3       3 GLC5        0.0000 
     57 CA          7.9060   -2.1830    3.8430 C.3       6 GLP5        0.0000 
     58 CA          6.4271   -6.7118    5.1671 C.3       3 GLC5        0.0000 
     59 CA          7.0970   -5.1730    6.9060 C.3       9 GLL5        0.0000 
     60 CA          6.1330   -7.8440    3.7600 C.3       6 GLP5        0.0000 
     61 CA         12.4537   -6.0217    9.6078 C.3       3 GLC5        0.0000 
     62 CA         10.8720   -4.8370   10.4280 C.3       9 GLL5        0.0000 
     63 CA         13.4880   -7.3170    8.4060 C.3       6 GLP5        0.0000 
     64 CA         10.9163   -3.4887   12.0783 C.3       3 GLC5        0.0000 
     65 CA         11.7585   -7.8513   10.5418 C.3       3 GLC5        0.0000 
     66 CA         10.3360   -6.1800   10.8690 C.3       9 GLL5        0.0000 
     67 CA         12.7490   -9.3470    9.6910 C.3       6 GLP5        0.0000 
     68 CA          9.7963   -7.4202    8.8453 C.3       3 GLC5        0.0000 
     69 CA         10.9775   -8.4842   10.2790 C.3       3 GLC5        0.0000 
     70 CA          9.2930   -7.0330   10.4880 C.3       9 GLL5        0.0000 
     71 CA          9.7632  -10.4390   11.5993 C.3       3 GLC5        0.0000 
     72 CA          9.9780  -12.5020   11.4110 C.3       6 GLP5        0.0000 
     73 CA         11.6335   -8.7360   11.0958 C.3       3 GLC5        0.0000 
     74 CA          9.9780   -8.5420   12.3290 C.3       9 GLL5        0.0000 
@<TRIPOS>BOND
@<TRIPOS>SUBSTRUCTURE
     1 ALC1       37 GROUP        1 X    ALC  0     ROOT ALC X 1
     2 SEC2       40 GROUP        1 X    SEC  0     **** SEC X 2
     3 GLC5        1 GROUP        1 X    GLC  0     **** GLC X 6
     4 ALP1       39 GROUP        1 Y    ALP  0     ROOT ALP Y 8
     5 SEP2       42 GROUP        1 Y    SEP  0     **** SEP Y 9
     6 GLP5        3 GROUP        1 Y    GLP  0     **** GLP Y 13
     7 ALL1       38 GROUP        1 Z    ALL  0     ROOT ALL Z 15
     8 SEL2       41 GROUP        1 Z    SEL  0     **** SEL Z 16
     9 GLL5        2 GROUP        1 Z    GLL  0     **** GLL Z 20
@<TRIPOS>SET

