#    Name: 3pjc_PJC_1_ligand
#    Modification time : Tue Mar 25 06:40:26 2014

@<TRIPOS>MOLECULE
3pjc_PJC_1_ligand
   49    53     1     0     0
SMALL
NO_CHARGES


@<TRIPOS>ATOM
      1 C5          6.9060   -4.9890    8.4100 C.ar      1 PJC800      0.0000 
      2 C6          7.8390   -4.3930    9.2970 C.ar      1 PJC800      0.0000 
      3 C8          6.3930   -4.9250   11.1290 C.ar      1 PJC800      0.0000 
      4 C10         5.7720   -5.6080    8.9690 C.ar      1 PJC800      0.0000 
      5 N12         6.2410   -4.9710   12.4880 N.3       1 PJC800      0.0000 
      6 C13         7.1870   -4.2920   13.3850 C.3       1 PJC800      0.0000 
      7 C20         6.1520   -7.1230   13.5760 C.3       1 PJC800      0.0000 
      8 C28        10.3840   -3.9280    9.3560 C.2       1 PJC800      0.0000 
      9 F1          6.3820   -4.2730    6.1850 F         1 PJC800      0.0000 
     10 C2          7.0970   -5.1730    6.9060 C.3       1 PJC800      0.0000 
     11 F3          8.4040   -5.1100    6.5590 F         1 PJC800      0.0000 
     12 F4          6.7030   -6.4360    6.6030 F         1 PJC800      0.0000 
     13 N7          7.5200   -4.3750   10.6040 N.ar      1 PJC800      0.0000 
     14 N9          5.5640   -5.6010   10.2960 N.ar      1 PJC800      0.0000 
     15 C16         8.1780   -5.4090   13.8430 C.3       1 PJC800      0.0000 
     16 C19         7.4190   -6.6550   14.2810 C.2       1 PJC800      0.0000 
     17 C23         5.2930   -5.8960   13.1330 C.3       1 PJC800      0.0000 
     18 O26         7.8330   -7.2830   15.2290 O.2       1 PJC800      0.0000 
     19 C27         9.1260   -3.6660    8.9310 C.2       1 PJC800      0.0000 
     20 C29        11.2240   -2.8940    8.7150 C.2       1 PJC800      0.0000 
     21 N30        10.4940   -2.1540    7.8620 N.am      1 PJC800      0.0000 
     22 C32         9.2240   -2.5860    7.9510 C.2       1 PJC800      0.0000 
     23 O33         8.2700   -2.1470    7.3370 O.2       1 PJC800      0.0000 
     24 O34        12.4200   -2.7620    8.9020 O.2       1 PJC800      0.0000 
     25 C35        10.8720   -4.8370   10.4280 C.2       1 PJC800      0.0000 
     26 C36        11.9670   -4.6160   11.1910 C.2       1 PJC800      0.0000 
     27 N38        12.1360   -5.5780   12.0590 N.pl3     1 PJC800      0.0000 
     28 C40        11.2000   -6.5310   11.9160 C.ar      1 PJC800      0.0000 
     29 C41        10.3360   -6.1800   10.8690 C.ar      1 PJC800      0.0000 
     30 C42         9.2930   -7.0330   10.4880 C.ar      1 PJC800      0.0000 
     31 C44         9.1190   -8.2100   11.2460 C.ar      1 PJC800      0.0000 
     32 C46         9.9780   -8.5420   12.3290 C.ar      1 PJC800      0.0000 
     33 C48        11.0580   -7.7080   12.6720 C.ar      1 PJC800      0.0000 
     34 H           5.1018   -6.0702    8.3210 H         1 PJC800      0.0000 
     35 H           6.7006   -3.9063   14.2540 H         1 PJC800      0.0000 
     36 H           7.7492   -3.5424   12.8727 H         1 PJC800      0.0000 
     37 H           5.5586   -7.7319   14.2475 H         1 PJC800      0.0000 
     38 H           6.4100   -7.6967   12.6939 H         1 PJC800      0.0000 
     39 H           8.7677   -5.0257   14.6692 H         1 PJC800      0.0000 
     40 H           8.8325   -5.6479   13.0113 H         1 PJC800      0.0000 
     41 H           4.5514   -6.2428   12.4455 H         1 PJC800      0.0000 
     42 H           4.8561   -5.4652   14.0084 H         1 PJC800      0.0000 
     43 H          10.8184   -1.4504    7.2965 H         1 PJC800      0.0000 
     44 H          12.5480   -3.8211   11.0855 H         1 PJC800      0.0000 
     45 H          12.8550   -5.6183   12.7424 H         1 PJC800      0.0000 
     46 H           8.6943   -6.8214    9.7126 H         1 PJC800      0.0000 
     47 H           8.3448   -8.8535   11.0104 H         1 PJC800      0.0000 
     48 H           9.8032   -9.4004   12.8623 H         1 PJC800      0.0000 
     49 H          11.6871   -7.9391   13.4099 H         1 PJC800      0.0000 
@<TRIPOS>BOND
     1    2    1 ar   
     2    4    1 ar   
     3   10    1 1    
     4   13    2 ar   
     5   19    2 1    
     6    5    3 1    
     7   13    3 ar   
     8   14    3 ar   
     9   14    4 ar   
    10   34    4 1    
    11    6    5 1    
    12   17    5 1    
    13   15    6 1    
    14   35    6 1    
    15   36    6 1    
    16   16    7 1    
    17   17    7 1    
    18   37    7 1    
    19   38    7 1    
    20   19    8 2    
    21   20    8 1    
    22   25    8 1    
    23   10    9 1    
    24   11   10 1    
    25   12   10 1    
    26   16   15 1    
    27   39   15 1    
    28   40   15 1    
    29   18   16 2    
    30   41   17 1    
    31   42   17 1    
    32   22   19 1    
    33   21   20 am   
    34   24   20 2    
    35   22   21 am   
    36   43   21 1    
    37   23   22 2    
    38   26   25 2    
    39   29   25 1    
    40   27   26 1    
    41   44   26 1    
    42   28   27 1    
    43   45   27 1    
    44   29   28 ar   
    45   33   28 ar   
    46   30   29 ar   
    47   31   30 ar   
    48   46   30 1    
    49   32   31 ar   
    50   47   31 1    
    51   33   32 ar   
    52   48   32 1    
    53   49   33 1    
@<TRIPOS>SUBSTRUCTURE
     1 PJC800      1 GROUP   
@<TRIPOS>SET

