#    Name: 3dxm_N24_1_INTS_M
#    Modification time : Tue Mar 25 00:35:51 2014

@<TRIPOS>MOLECULE
3dxm_N24_1_INTS_M
   58     0     6     0     0
SMALL
NO_CHARGES


@<TRIPOS>ATOM
      1 CA         11.8590   18.3725   56.3305 C.3       2 GLC5        0.0000 
      2 CA         13.6160   19.6040   56.6880 C.3       6 GLL5        0.0000 
      3 CA         10.1020   17.1410   55.9730 C.3       4 GLP5        0.0000 
      4 CA         12.4390   20.9905   55.6710 C.3       2 GLC5        0.0000 
      5 CA         11.2620   22.3770   54.6540 C.3       4 GLP5        0.0000 
      6 CA         12.5785   18.9625   58.1405 C.3       2 GLC5        0.0000 
      7 CA         11.5410   18.3210   59.5930 C.3       4 GLP5        0.0000 
      8 CA         16.6955   19.9735   56.4135 C.3       2 GLC5        0.0000 
      9 CA         15.7760   19.9450   54.7870 C.3       6 GLL5        0.0000 
     10 CA         17.6150   20.0020   58.0400 C.3       4 GLP5        0.0000 
     11 CA         17.5450   20.4305   55.2165 C.3       2 GLC5        0.0000 
     12 CA         16.3300   20.0120   53.5050 C.3       6 GLL5        0.0000 
     13 CA         18.7600   20.8490   56.9280 C.3       4 GLP5        0.0000 
     14 CA         16.6065   22.0505   53.4960 C.3       2 GLC5        0.0000 
     15 CA         16.8830   24.0890   53.4870 C.3       4 GLP5        0.0000 
     16 CA         15.3030   22.0275   52.0665 C.3       2 GLC5        0.0000 
     17 CA         15.5330   19.8220   52.3770 C.3       6 GLL5        0.0000 
     18 CA         15.0730   24.2330   51.7560 C.3       4 GLP5        0.0000 
     19 CA         11.7390   21.5655   52.7685 C.3       2 GLC5        0.0000 
     20 CA         12.2160   20.7540   50.8830 C.3       6 GLL5        0.0000 
     21 CA         11.4945   22.3945   49.9655 C.3       2 GLC5        0.0000 
     22 CA         10.7730   24.0350   49.0480 C.3       4 GLP5        0.0000 
     23 CA         10.3665   20.6795   52.8450 C.3       2 GLC5        0.0000 
     24 CA         10.6910   19.8820   51.0300 C.3       6 GLL5        0.0000 
     25 CA         10.0420   21.4770   54.6600 C.3       4 GLP5        0.0000 
     26 N           9.3170   18.3075   49.8750 N.am      1 SEC2        0.0000 
     27 N          10.2540   17.5700   51.0640 N.am      5 SEL2        0.0000 
     28 N           8.3800   19.0450   48.6860 N.am      3 SEP2        0.0000 
     29 CA         13.6860   16.0080   54.3310 C.3       2 GLC5        0.0000 
     30 CA         12.4960   16.1430   52.5120 C.3       6 GLL5        0.0000 
     31 CA         14.8760   15.8730   56.1500 C.3       4 GLP5        0.0000 
     32 CA         15.7870   13.5800   51.7965 C.3       2 GLC5        0.0000 
     33 CA         13.8830   14.3710   51.7250 C.3       6 GLL5        0.0000 
     34 CA         17.6910   12.7890   51.8680 C.3       4 GLP5        0.0000 
     35 CA         16.2535   14.6730   51.0660 C.3       2 GLC5        0.0000 
     36 CA         14.3400   15.1960   50.6890 C.3       6 GLL5        0.0000 
     37 CA         18.1670   14.1500   51.4430 C.3       4 GLP5        0.0000 
     38 CA         10.5285   14.2975   54.8290 C.3       2 GLC5        0.0000 
     39 CA         12.3860   13.7860   53.9760 C.3       6 GLL5        0.0000 
     40 CA          8.6710   14.8090   55.6820 C.3       4 GLP5        0.0000 
     41 CA         13.6310   14.8295   55.0630 C.3       2 GLC5        0.0000 
     42 CA         12.6353   20.9865   54.5170 C.3       2 GLC5        0.0000 
     43 CA         14.4080   19.6880   54.9510 C.3       6 GLL5        0.0000 
     44 CA         14.4440   17.7595   55.9847 C.3       2 GLC5        0.0000 
     45 CA         15.8135   19.8240   56.9297 C.3       2 GLC5        0.0000 
     46 CA         16.7495   18.2748   54.7835 C.3       2 GLC5        0.0000 
     47 CA         17.4460   16.5710   55.4210 C.3       4 GLP5        0.0000 
     48 CA         14.6871   21.7922   54.3603 C.3       2 GLC5        0.0000 
     49 CA         14.4820   23.8140   54.1370 C.3       4 GLP5        0.0000 
     50 CA         17.3735   19.1661   52.7357 C.3       2 GLC5        0.0000 
     51 CA         18.9540   18.4320   52.2100 C.3       4 GLP5        0.0000 
     52 CA         11.2923   20.4760   49.0787 C.3       2 GLC5        0.0000 
     53 CA         11.1310   20.6340   47.2010 C.3       4 GLP5        0.0000 
     54 CA         11.5430   13.1092   53.4045 C.3       2 GLC5        0.0000 
     55 CA         12.9560   14.8410   52.6400 C.3       6 GLL5        0.0000 
     56 CA         10.4150   11.9050   53.5010 C.3       4 GLP5        0.0000 
     57 CA         14.8012   15.0040   53.5907 C.3       2 GLC5        0.0000 
     58 CA         16.1830   15.4020   54.9990 C.3       4 GLP5        0.0000 
@<TRIPOS>BOND
@<TRIPOS>SUBSTRUCTURE
     1 SEC2       26 GROUP        1 X    SEC  0     ROOT SEC X 2
     2 GLC5        1 GROUP        1 X    GLC  0     **** GLC X 6
     3 SEP2       28 GROUP        1 Y    SEP  0     ROOT SEP Y 9
     4 GLP5        3 GROUP        1 Y    GLP  0     **** GLP Y 13
     5 SEL2       27 GROUP        1 Z    SEL  0     ROOT SEL Z 16
     6 GLL5        2 GROUP        1 Z    GLL  0     **** GLL Z 20
@<TRIPOS>SET

