#    Name: 3dxm_N24_1_ligand
#    Modification time : Tue Mar 25 00:35:51 2014

@<TRIPOS>MOLECULE
3dxm_N24_1_ligand
   32    34     1     0     0
SMALL
NO_CHARGES


@<TRIPOS>ATOM
      1 CAJ        13.6090   19.5040   53.8090 C.ar      1 N24419      0.0000 
      2 CAN        14.4080   19.6880   54.9510 C.ar      1 N24419      0.0000 
      3 BRAR       13.6160   19.6040   56.6880 Br        1 N24419      0.0000 
      4 CAU        15.7760   19.9450   54.7870 C.ar      1 N24419      0.0000 
      5 CAT        16.3300   20.0120   53.5050 C.ar      1 N24419      0.0000 
      6 CAS        15.5330   19.8220   52.3770 C.ar      1 N24419      0.0000 
      7 CAF        14.1540   19.5710   52.5160 C.ar      1 N24419      0.0000 
      8 CAB        13.2900   19.3800   51.2920 C.3       1 N24419      0.0000 
      9 SAD        12.2160   20.7540   50.8830 S.3       1 N24419      0.0000 
     10 CAH        10.6910   19.8820   51.0300 C.3       1 N24419      0.0000 
     11 CAE        11.1030   18.4390   51.1700 C.2       1 N24419      0.0000 
     12 OAK        10.2540   17.5700   51.0640 O.2       1 N24419      0.0000 
     13 NAA        12.4170   18.2290   51.4040 N.am      1 N24419      0.0000 
     14 CAC        12.9380   16.9740   51.4790 C.ar      1 N24419      0.0000 
     15 CAG        12.4960   16.1430   52.5120 C.ar      1 N24419      0.0000 
     16 CAM        12.9560   14.8410   52.6400 C.ar      1 N24419      0.0000 
     17 CAO        13.8830   14.3710   51.7250 C.ar      1 N24419      0.0000 
     18 CAL        14.3400   15.1960   50.6890 C.ar      1 N24419      0.0000 
     19 CAI        13.8720   16.4980   50.5550 C.ar      1 N24419      0.0000 
     20 OAQ        14.3560   17.2490   49.5250 O.3       1 N24419      0.0000 
     21 CL         12.3860   13.7860   53.9760 Cl        1 N24419      0.0000 
     22 H          12.5995   19.3155   53.9236 H         1 N24419      0.0000 
     23 H          16.3716   20.0842   55.6113 H         1 N24419      0.0000 
     24 H          17.3365   20.2036   53.3948 H         1 N24419      0.0000 
     25 H          15.9469   19.8640   51.4384 H         1 N24419      0.0000 
     26 H          13.8937   19.3042   50.3857 H         1 N24419      0.0000 
     27 H          10.2016   20.0945   50.1329 H         1 N24419      0.0000 
     28 H          10.2635   20.2830   51.8937 H         1 N24419      0.0000 
     29 H          11.8084   16.5126   53.1960 H         1 N24419      0.0000 
     30 H          14.2438   13.4083   51.8005 H         1 N24419      0.0000 
     31 H          15.0337   14.8275   50.0185 H         1 N24419      0.0000 
     32 H          14.1955   18.1974   49.7986 H         1 N24419      0.0000 
@<TRIPOS>BOND
     1    2    1 ar   
     2    7    1 ar   
     3   22    1 1    
     4    3    2 1    
     5    4    2 ar   
     6    5    4 ar   
     7   23    4 1    
     8    6    5 ar   
     9   24    5 1    
    10    7    6 ar   
    11   25    6 1    
    12    8    7 1    
    13    9    8 1    
    14   13    8 1    
    15   26    8 1    
    16   10    9 1    
    17   11   10 1    
    18   27   10 1    
    19   28   10 1    
    20   12   11 2    
    21   13   11 am   
    22   14   13 1    
    23   15   14 ar   
    24   19   14 ar   
    25   16   15 ar   
    26   29   15 1    
    27   17   16 ar   
    28   21   16 1    
    29   18   17 ar   
    30   30   17 1    
    31   19   18 ar   
    32   31   18 1    
    33   20   19 1    
    34   32   20 1    
@<TRIPOS>SUBSTRUCTURE
     1 N24419      1 GROUP   
@<TRIPOS>SET

