#    Name: 3qe2_FMN_5_INTS_M
#    Modification time : Mon Apr  7 19:23:43 2014

@<TRIPOS>MOLECULE
3qe2_FMN_5_INTS_M
   80     0     9     0     0
SMALL
NO_CHARGES


@<TRIPOS>ATOM
      1 N          -7.9515   94.7925   42.8130 N.am      2 SEC2        0.0000 
      2 N          -8.1780   93.5120   43.6380 N.am      8 SEL2        0.0000 
      3 N          -7.7250   96.0730   41.9880 N.am      5 SEP2        0.0000 
      4 N          -8.2235   93.5775   44.9615 N.am      2 SEC2        0.0000 
      5 N          -8.2690   93.6430   46.2850 N.am      5 SEP2        0.0000 
      6 O          -9.3275   91.2665   44.1970 O.2       1 ALC1        0.0000 
      7 O          -8.7000   91.4650   42.8490 O.2       7 ALL1        0.0000 
      8 O          -9.9550   91.0680   45.5450 O.2       4 ALP1        0.0000 
      9 N          -9.3670   88.0815   42.8510 N.am      2 SEC2        0.0000 
     10 N          -9.2770   89.4320   42.1630 N.am      8 SEL2        0.0000 
     11 N          -9.4570   86.7310   43.5390 N.am      5 SEP2        0.0000 
     12 N          -7.3430   88.1810   39.6785 N.am      2 SEC2        0.0000 
     13 N          -7.8750   89.7430   39.6580 N.am      8 SEL2        0.0000 
     14 N          -6.8110   86.6190   39.6990 N.am      5 SEP2        0.0000 
     15 CA         -7.4690   87.3365   38.4970 C.3       3 GLC5        0.0000 
     16 CA         -7.1240   89.0780   37.4990 C.3       9 GLL5        0.0000 
     17 CA         -7.8140   85.5950   39.4950 C.3       6 GLP5        0.0000 
     18 CA         -4.8295   88.1200   36.5225 C.3       3 GLC5        0.0000 
     19 CA         -6.4810   88.1370   35.2760 C.3       9 GLL5        0.0000 
     20 CA         -3.1780   88.1030   37.7690 C.3       6 GLP5        0.0000 
     21 CA         -5.7330   88.5720   33.5930 C.3       3 GLC5        0.0000 
     22 CA         -4.9850   89.0070   31.9100 C.3       6 GLP5        0.0000 
     23 CA         -3.7900   89.9890   35.8340 C.3       3 GLC5        0.0000 
     24 CA         -4.9220   90.9320   34.7810 C.3       9 GLL5        0.0000 
     25 CA         -2.6580   89.0460   36.8870 C.3       6 GLP5        0.0000 
     26 CA         -7.1660   94.9350   39.4500 C.3       3 GLC5        0.0000 
     27 CA         -5.8520   93.6130   39.2350 C.3       9 GLL5        0.0000 
     28 CA         -8.4800   96.2570   39.6650 C.3       6 GLP5        0.0000 
     29 CA         -7.7715   93.4340   38.3190 C.3       3 GLC5        0.0000 
     30 CA         -9.6910   93.2550   37.4030 C.3       6 GLP5        0.0000 
     31 CA         -3.1070   91.9575   39.1985 C.3       3 GLC5        0.0000 
     32 CA         -4.3400   93.5650   39.6440 C.3       9 GLL5        0.0000 
     33 CA         -1.8740   90.3500   38.7530 C.3       6 GLP5        0.0000 
     34 N          -3.7035   92.0705   42.3260 N.am      2 SEC2        0.0000 
     35 N          -4.2270   93.0960   41.0190 N.am      8 SEL2        0.0000 
     36 N          -3.1800   91.0450   43.6330 N.am      5 SEP2        0.0000 
     37 O          -4.3880   91.7270   41.1980 O.2       1 ALC1        0.0000 
     38 O          -4.2270   93.0960   41.0190 O.2       7 ALL1        0.0000 
     39 O          -4.5490   90.3580   41.3770 O.2       4 ALP1        0.0000 
     40 CA         -4.3965   96.8720   39.0715 C.3       3 GLC5        0.0000 
     41 CA         -3.6720   94.9180   39.4000 C.3       9 GLL5        0.0000 
     42 CA         -5.1210   98.8260   38.7430 C.3       6 GLP5        0.0000 
     43 O          -3.7610   96.6065   37.4565 O.2       1 ALC1        0.0000 
     44 O          -3.7510   95.1610   37.9670 O.2       7 ALL1        0.0000 
     45 O          -3.7710   98.0520   36.9460 O.2       4 ALP1        0.0000 
     46 CA         -1.6115   95.3330   41.6255 C.3       3 GLC5        0.0000 
     47 CA         -2.1810   94.8610   39.8580 C.3       9 GLL5        0.0000 
     48 CA         -1.0420   95.8050   43.3930 C.3       6 GLP5        0.0000 
     49 CA         -1.6090   92.0995   38.9300 C.3       3 GLC5        0.0000 
     50 CA         -1.3440   93.8490   39.1070 C.3       9 GLL5        0.0000 
     51 N           2.0840   92.2000   37.0935 N.am      2 SEC2        0.0000 
     52 N           1.6030   93.7630   37.6490 N.am      8 SEL2        0.0000 
     53 N           2.5650   90.6370   36.5380 N.am      5 SEP2        0.0000 
     54 N           1.2405   93.1535   36.5485 N.am      2 SEC2        0.0000 
     55 N           0.8780   92.5440   35.4480 N.am      5 SEP2        0.0000 
     56 N           2.9340   94.3710   37.8560 N.am      2 SEC2        0.0000 
     57 N           4.2650   94.9790   38.0630 N.am      5 SEP2        0.0000 
     58 N           1.7785   95.0775   37.5010 N.am      2 SEC2        0.0000 
     59 N           1.9540   96.3920   37.3530 N.am      5 SEP2        0.0000 
     60 N           1.7795   90.5435   38.9380 N.am      2 SEC2        0.0000 
     61 N           0.9640   91.6050   38.8140 N.am      8 SEL2        0.0000 
     62 N           2.5950   89.4820   39.0620 N.am      5 SEP2        0.0000 
     63 N           1.7645   91.1210   37.6760 N.am      2 SEC2        0.0000 
     64 N           0.9210   92.0745   37.1310 N.am      2 SEC2        0.0000 
     65 N          -0.2720   91.3550   37.6550 N.am      2 SEC2        0.0000 
     66 N          -1.5080   91.1050   36.4960 N.am      5 SEP2        0.0000 
     67 N           3.4190   92.6470   39.7730 N.am      2 SEC2        0.0000 
     68 N           2.3130   93.3170   39.8850 N.am      8 SEL2        0.0000 
     69 N           4.5250   91.9770   39.6610 N.am      5 SEP2        0.0000 
     70 N           3.1990   94.2620   40.4075 N.am      2 SEC2        0.0000 
     71 N           4.0850   95.2070   40.9300 N.am      5 SEP2        0.0000 
     72 CA         -6.0435   88.6430   39.3915 C.3       3 GLC5        0.0000 
     73 CA         -7.1600   90.0840   38.5350 C.3       9 GLL5        0.0000 
     74 CA         -4.9450   87.7050   40.7660 C.3       6 GLP5        0.0000 
     75 CA         -5.1517   89.8805   33.6653 C.3       3 GLC5        0.0000 
     76 CA         -5.7150   90.5760   36.0600 C.3       9 GLL5        0.0000 
     77 CA         -5.0400   94.8962   41.2944 C.3       3 GLC5        0.0000 
     78 CA         -5.6960   95.5390   43.1690 C.3       6 GLP5        0.0000 
     79 CA         -1.1162   93.2170   40.9232 C.3       3 GLC5        0.0000 
     80 CA         -0.4700   92.0790   42.3640 C.3       6 GLP5        0.0000 
@<TRIPOS>BOND
@<TRIPOS>SUBSTRUCTURE
     1 ALC1        6 GROUP        1 X    ALC  0     ROOT ALC X 1
     2 SEC2        1 GROUP        1 X    SEC  0     **** SEC X 2
     3 GLC5       15 GROUP        1 X    GLC  0     **** GLC X 6
     4 ALP1        8 GROUP        1 Y    ALP  0     ROOT ALP Y 8
     5 SEP2        3 GROUP        1 Y    SEP  0     **** SEP Y 9
     6 GLP5       17 GROUP        1 Y    GLP  0     **** GLP Y 13
     7 ALL1        7 GROUP        1 Z    ALL  0     ROOT ALL Z 15
     8 SEL2        2 GROUP        1 Z    SEL  0     **** SEL Z 16
     9 GLL5       16 GROUP        1 Z    GLL  0     **** GLL Z 20
@<TRIPOS>SET

