#    Name: 3qe2_FMN_5_ligand
#    Modification time : Mon Apr  7 19:23:43 2014

@<TRIPOS>MOLECULE
3qe2_FMN_5_ligand
   50    52     1     0     0
SMALL
NO_CHARGES


@<TRIPOS>ATOM
      1 N1         -7.3830   92.9610   41.6240 N.2       1 FMN751      0.0000 
      2 C2         -8.0930   92.6800   42.7480 C.2       1 FMN751      0.0000 
      3 O2         -8.1780   93.5120   43.6380 O.2       1 FMN751      0.0000 
      4 N3         -8.7000   91.4650   42.8490 N.am      1 FMN751      0.0000 
      5 C4         -8.6600   90.4560   41.8700 C.2       1 FMN751      0.0000 
      6 O4         -9.2770   89.4320   42.1630 O.2       1 FMN751      0.0000 
      7 C4A        -7.9200   90.7340   40.6610 C.2       1 FMN751      0.0000 
      8 N5         -7.8750   89.7430   39.6580 N.2       1 FMN751      0.0000 
      9 C5A        -7.1600   90.0840   38.5350 C.ar      1 FMN751      0.0000 
     10 C6         -7.1240   89.0780   37.4990 C.ar      1 FMN751      0.0000 
     11 C7         -6.4350   89.2910   36.2950 C.ar      1 FMN751      0.0000 
     12 C7M        -6.4810   88.1370   35.2760 C.3       1 FMN751      0.0000 
     13 C8         -5.7150   90.5760   36.0600 C.ar      1 FMN751      0.0000 
     14 C8M        -4.9220   90.9320   34.7810 C.3       1 FMN751      0.0000 
     15 C9         -5.7410   91.5430   37.0410 C.ar      1 FMN751      0.0000 
     16 C9A        -6.4510   91.3490   38.3000 C.ar      1 FMN751      0.0000 
     17 N10        -6.5290   92.3470   39.3940 N.pl3     1 FMN751      0.0000 
     18 C10        -7.2970   92.0330   40.6180 C.2       1 FMN751      0.0000 
     19 C1'        -5.8520   93.6130   39.2350 C.3       1 FMN751      0.0000 
     20 C2'        -4.3400   93.5650   39.6440 C.3       1 FMN751      0.0000 
     21 O2'        -4.2270   93.0960   41.0190 O.3       1 FMN751      0.0000 
     22 C3'        -3.6720   94.9180   39.4000 C.3       1 FMN751      0.0000 
     23 O3'        -3.7510   95.1610   37.9670 O.3       1 FMN751      0.0000 
     24 C4'        -2.1810   94.8610   39.8580 C.3       1 FMN751      0.0000 
     25 O4'        -1.6580   96.2110   39.5630 O.3       1 FMN751      0.0000 
     26 C5'        -1.3440   93.8490   39.1070 C.3       1 FMN751      0.0000 
     27 O5'         0.0220   93.8010   39.6170 O.3       1 FMN751      0.0000 
     28 P           1.2280   93.0640   38.9170 P.3       1 FMN751      0.0000 
     29 O1P         1.6030   93.7630   37.6490 O.co2     1 FMN751      0.0000 
     30 O2P         0.9640   91.6050   38.8140 O.co2     1 FMN751      0.0000 
     31 O3P         2.3130   93.3170   39.8850 O.co2     1 FMN751      0.0000 
     32 H          -9.2538   91.2443   43.7338 H         1 FMN751      0.0000 
     33 H          -7.6193   88.1927   37.6640 H         1 FMN751      0.0000 
     34 H          -5.2526   92.4458   36.9133 H         1 FMN751      0.0000 
     35 H          -6.3219   94.4049   39.8471 H         1 FMN751      0.0000 
     36 H          -5.8869   93.9637   38.1870 H         1 FMN751      0.0000 
     37 H          -3.8739   92.8327   38.9646 H         1 FMN751      0.0000 
     38 H          -4.1787   95.6612   39.9528 H         1 FMN751      0.0000 
     39 H          -2.1542   94.6875   40.9013 H         1 FMN751      0.0000 
     40 H          -1.3494   94.1166   38.0389 H         1 FMN751      0.0000 
     41 H          -1.8259   92.8630   39.1971 H         1 FMN751      0.0000 
     42 H          -5.9681   88.3542   34.4455 H         1 FMN751      0.0000 
     43 H          -6.0908   87.2956   35.6499 H         1 FMN751      0.0000 
     44 H          -7.4174   87.9264   34.9955 H         1 FMN751      0.0000 
     45 H          -4.5189   91.8455   34.8361 H         1 FMN751      0.0000 
     46 H          -4.1726   90.2903   34.6180 H         1 FMN751      0.0000 
     47 H          -5.5032   90.9167   33.9674 H         1 FMN751      0.0000 
     48 H          -4.3824   92.1094   40.9694 H         1 FMN751      0.0000 
     49 H          -3.7998   96.1556   37.8756 H         1 FMN751      0.0000 
     50 H          -1.4389   96.1961   38.5874 H         1 FMN751      0.0000 
@<TRIPOS>BOND
     1    2    1 1    
     2   18    1 2    
     3    3    2 2    
     4    4    2 am   
     5    5    4 am   
     6   32    4 1    
     7    6    5 2    
     8    7    5 1    
     9    8    7 2    
    10   18    7 1    
    11    9    8 1    
    12   10    9 ar   
    13   16    9 ar   
    14   11   10 ar   
    15   33   10 1    
    16   12   11 1    
    17   13   11 ar   
    18   42   12 1    
    19   43   12 1    
    20   44   12 1    
    21   14   13 1    
    22   15   13 ar   
    23   45   14 1    
    24   46   14 1    
    25   47   14 1    
    26   16   15 ar   
    27   34   15 1    
    28   17   16 1    
    29   18   17 1    
    30   19   17 1    
    31   20   19 1    
    32   35   19 1    
    33   36   19 1    
    34   21   20 1    
    35   22   20 1    
    36   37   20 1    
    37   48   21 1    
    38   23   22 1    
    39   24   22 1    
    40   38   22 1    
    41   49   23 1    
    42   25   24 1    
    43   26   24 1    
    44   39   24 1    
    45   50   25 1    
    46   27   26 1    
    47   40   26 1    
    48   41   26 1    
    49   28   27 1    
    50   29   28 ar   
    51   30   28 ar   
    52   31   28 ar   
@<TRIPOS>SUBSTRUCTURE
     1 FMN751      1 GROUP   
@<TRIPOS>SET

