#    Name: 2whf_II4_2_INTS_M
#    Modification time : Tue Mar 25 04:21:12 2014

@<TRIPOS>MOLECULE
2whf_II4_2_INTS_M
   26     0     6     0     0
SMALL
NO_CHARGES


@<TRIPOS>ATOM
      1 CA         70.2615   18.8150    4.9525 C.3       2 GLC5        0.0000 
      2 CA         71.6260   18.6640    6.6630 C.3       6 GLL5        0.0000 
      3 CA         68.8970   18.9660    3.2420 C.3       4 GLP5        0.0000 
      4 CA         72.6725   20.1045    8.8180 C.3       2 GLC5        0.0000 
      5 CA         72.4620   19.7700    6.7710 C.3       6 GLL5        0.0000 
      6 CA         72.8830   20.4390   10.8650 C.3       4 GLP5        0.0000 
      7 O          71.3695   16.0170    4.2060 O.2       1 ALC1        0.0000 
      8 O          71.0560   16.5820    5.6380 O.2       5 ALL1        0.0000 
      9 O          71.6830   15.4520    2.7740 O.2       3 ALP1        0.0000 
     10 CA         72.8283   21.5970    5.3142 C.3       2 GLC5        0.0000 
     11 CA         73.6470   19.8820    5.9060 C.3       6 GLL5        0.0000 
     12 CA         72.6020   23.3680    4.2900 C.3       4 GLP5        0.0000 
     13 CA         74.7181   18.6542    7.2076 C.3       2 GLC5        0.0000 
     14 CA         75.9640   17.9610    8.7530 C.3       4 GLP5        0.0000 
     15 CA         71.6699   18.7935    3.8243 C.3       2 GLC5        0.0000 
     16 CA         73.8900   18.8690    4.9860 C.3       6 GLL5        0.0000 
     17 CA         70.1680   19.2910    2.4940 C.3       4 GLP5        0.0000 
     18 CA         77.0235   21.4318    7.1117 C.3       2 GLC5        0.0000 
     19 CA         75.8290   22.8020    6.2610 C.3       6 GLL5        0.0000 
     20 CA         77.6420   19.7550    8.2160 C.3       4 GLP5        0.0000 
     21 CA         75.3150   24.6902    6.8918 C.3       2 GLC5        0.0000 
     22 CA         74.1040   25.9440    7.6360 C.3       4 GLP5        0.0000 
     23 CA         74.2129   22.4887    4.8390 C.3       2 GLC5        0.0000 
     24 CA         76.0750   21.0210    4.7530 C.3       6 GLL5        0.0000 
     25 CA         77.0516   20.6069    6.4835 C.3       2 GLC5        0.0000 
     26 CA         75.3160   21.5940    5.7850 C.3       6 GLL5        0.0000 
@<TRIPOS>BOND
@<TRIPOS>SUBSTRUCTURE
     1 ALC1        7 GROUP        1 X    ALC  0     ROOT ALC X 1
     2 GLC5        1 GROUP        1 X    GLC  0     **** GLC X 6
     3 ALP1        9 GROUP        1 Y    ALP  0     ROOT ALP Y 8
     4 GLP5        3 GROUP        1 Y    GLP  0     **** GLP Y 13
     5 ALL1        8 GROUP        1 Z    ALL  0     ROOT ALL Z 15
     6 GLL5        2 GROUP        1 Z    GLL  0     **** GLL Z 20
@<TRIPOS>SET

