#    Name: 2whf_II4_2_ligand
#    Modification time : Tue Mar 25 04:21:13 2014

@<TRIPOS>MOLECULE
2whf_II4_2_ligand
   30    32     1     0     0
SMALL
NO_CHARGES


@<TRIPOS>ATOM
      1 C2         71.8930   17.6640    5.7370 C.ar      1 II41406     0.0000 
      2 C3         71.6260   18.6640    6.6630 C.ar      1 II41406     0.0000 
      3 C4         72.4620   19.7700    6.7710 C.ar      1 II41406     0.0000 
      4 C5         73.6470   19.8820    5.9060 C.ar      1 II41406     0.0000 
      5 C6         73.8900   18.8690    4.9860 C.ar      1 II41406     0.0000 
      6 C9         77.4650   24.7270    6.3140 C.3       1 II41406     0.0000 
      7 N7         74.1970   21.0470    6.2930 N.pl3     1 II41406     0.0000 
      8 C8         73.5300   21.6650    7.2730 C.2       1 II41406     0.0000 
      9 N9         72.4580   20.8730    7.5520 N.2       1 II41406     0.0000 
     10 N2         71.0560   16.5820    5.6380 N.pl3     1 II41406     0.0000 
     11 C10        76.9810   23.4150    5.7540 C.ar      1 II41406     0.0000 
     12 C11        75.8290   22.8020    6.2610 C.ar      1 II41406     0.0000 
     13 C30        73.0140   17.7820    4.9090 C.ar      1 II41406     0.0000 
     14 C13        76.0750   21.0210    4.7530 C.ar      1 II41406     0.0000 
     15 C80        75.3160   21.5940    5.7850 C.ar      1 II41406     0.0000 
     16 C14        77.2270   21.6100    4.2330 C.ar      1 II41406     0.0000 
     17 C15        77.6930   22.8210    4.7300 C.ar      1 II41406     0.0000 
     18 H          70.7995   18.5863    7.2772 H         1 II41406     0.0000 
     19 H          74.7045   18.9150    4.3668 H         1 II41406     0.0000 
     20 H          73.7465   22.4869    7.6972 H         1 II41406     0.0000 
     21 H          70.5537   16.3369    6.4673 H         1 II41406     0.0000 
     22 H          71.0213   16.1328    4.7452 H         1 II41406     0.0000 
     23 H          75.3200   23.2821    7.0486 H         1 II41406     0.0000 
     24 H          73.2030   17.0327    4.2095 H         1 II41406     0.0000 
     25 H          75.7569   20.1041    4.3555 H         1 II41406     0.0000 
     26 H          77.7387   21.1386    3.4690 H         1 II41406     0.0000 
     27 H          78.5298   23.2521    4.3504 H         1 II41406     0.0000 
     28 H          77.6721   24.6604    7.2900 H         1 II41406     0.0000 
     29 H          78.2981   25.0406    5.8583 H         1 II41406     0.0000 
     30 H          76.7828   25.4504    6.2078 H         1 II41406     0.0000 
@<TRIPOS>BOND
     1    2    1 ar   
     2   10    1 1    
     3   13    1 ar   
     4    3    2 ar   
     5   18    2 1    
     6    4    3 ar   
     7    9    3 1    
     8    5    4 ar   
     9    7    4 1    
    10   13    5 ar   
    11   19    5 1    
    12   11    6 1    
    13   28    6 1    
    14   29    6 1    
    15   30    6 1    
    16    8    7 1    
    17   15    7 1    
    18    9    8 2    
    19   20    8 1    
    20   21   10 1    
    21   22   10 1    
    22   12   11 ar   
    23   17   11 ar   
    24   15   12 ar   
    25   23   12 1    
    26   24   13 1    
    27   15   14 ar   
    28   16   14 ar   
    29   25   14 1    
    30   17   16 ar   
    31   26   16 1    
    32   27   17 1    
@<TRIPOS>SUBSTRUCTURE
     1 II41406     1 GROUP   
@<TRIPOS>SET

