#    Name: 3R7M_1_CAVITY_N1_6.mol2
#    Modification time : Mon Mar 10 19:37:55 2014

@<TRIPOS>MOLECULE
3R7M_1_CAVITY_N1_6.mol2
  114     0     5     0     0
SMALL
NO_CHARGES


@<TRIPOS>ATOM
      1 CA          9.1351   -7.0447   23.8877 C.3       4 GLY6        0.0000 
      2 CA          9.4483   -5.9498   22.9113 C.3       4 GLY6        0.0000 
      3 CZ          9.6691   -8.0596   22.9208 C.ar      3 PHE5        0.0000 
      4 CA          8.0820   -6.0955   22.3097 C.3       4 GLY6        0.0000 
      5 CZ          8.3028   -8.2053   22.3192 C.ar      3 PHE5        0.0000 
      6 N           8.6160   -7.1104   21.3428 N.2       2 ALA2        0.0000 
      7 CA          6.4950   -4.1313   21.6986 C.3       4 GLY6        0.0000 
      8 CA          6.7157   -6.2411   21.7080 C.3       4 GLY6        0.0000 
      9 CA          7.0289   -5.1463   20.7317 C.3       4 GLY6        0.0000 
     10 CA          6.9365   -8.3509   21.7175 C.3       4 GLY6        0.0000 
     11 N           7.2497   -7.2560   20.7412 N.2       2 ALA2        0.0000 
     12 DU          7.5629   -6.1612   19.7649 H         5 CUB7        0.0000 
     13 DU          7.8761   -5.0663   18.7885 H         5 CUB7        0.0000 
     14 CA          8.0968   -7.1761   18.7980 C.3       4 GLY6        0.0000 
     15 O           8.7232   -4.9864   16.8454 O.2       2 ALA2        0.0000 
     16 CA          5.0362   -7.4816   22.0827 C.3       4 GLY6        0.0000 
     17 CA          5.3494   -6.3868   21.1064 C.3       4 GLY6        0.0000 
     18 CZ          5.6626   -5.2919   20.1301 C.ar      3 PHE5        0.0000 
     19 CZ          5.9758   -4.1971   19.1538 C.ar      3 PHE5        0.0000 
     20 CZ          6.2890   -3.1022   18.1774 C.ar      3 PHE5        0.0000 
     21 DU          6.6022   -2.0074   17.2011 H         5 CUB7        0.0000 
     22 CA          5.5702   -8.4966   21.1159 C.3       4 GLY6        0.0000 
     23 CZ          5.8834   -7.4017   20.1395 C.ar      3 PHE5        0.0000 
     24 CZ          6.1966   -6.3068   19.1632 C.ar      3 PHE5        0.0000 
     25 CZ          6.5098   -5.2120   18.1869 C.ar      3 PHE5        0.0000 
     26 DU          6.8230   -4.1171   17.2106 H         5 CUB7        0.0000 
     27 CZ          7.1362   -3.0223   16.2343 C.ar      3 PHE5        0.0000 
     28 CZ          6.4173   -8.4166   19.1727 C.ar      3 PHE5        0.0000 
     29 O           7.3569   -5.1321   16.2437 O.2       2 ALA2        0.0000 
     30 CA          5.0152   -0.0432   16.5900 C.3       4 GLY6        0.0000 
     31 N           3.6699   -7.6273   21.4811 N.2       2 ALA2        0.0000 
     32 CZ          3.9831   -6.5324   20.5047 C.ar      3 PHE5        0.0000 
     33 CZ          4.9227   -3.2479   17.5758 C.ar      3 PHE5        0.0000 
     34 CA          5.2359   -2.1530   16.5995 C.3       4 GLY6        0.0000 
     35 CZ          5.5491   -1.0582   15.6232 C.ar      3 PHE5        0.0000 
     36 OG          5.8623    0.0367   14.6468 O.2       1 SER1        0.0000 
     37 CA          4.2038   -8.6422   20.5142 C.3       4 GLY6        0.0000 
     38 CZ          4.5171   -7.5473   19.5379 C.ar      3 PHE5        0.0000 
     39 CZ          4.8303   -6.4525   18.5616 C.ar      3 PHE5        0.0000 
     40 CZ          5.1435   -5.3576   17.5852 C.ar      3 PHE5        0.0000 
     41 DU          5.4567   -4.2628   16.6089 H         5 CUB7        0.0000 
     42 CZ          5.7699   -3.1679   15.6326 C.ar      3 PHE5        0.0000 
     43 CZ          5.9906   -5.2777   15.6421 C.ar      3 PHE5        0.0000 
     44 CZ          2.6168   -6.6781   19.9031 C.ar      3 PHE5        0.0000 
     45 CA          4.1828   -1.2038   15.0215 C.3       4 GLY6        0.0000 
     46 OG          3.1507   -7.6930   18.9362 O.2       1 SER1        0.0000 
     47 CZ          3.4639   -6.5981   17.9599 C.ar      3 PHE5        0.0000 
     48 CZ          3.7772   -5.5033   16.9836 C.ar      3 PHE5        0.0000 
     49 CA          4.0904   -4.4084   16.0073 C.3       4 GLY6        0.0000 
     50 CA          4.4036   -3.3136   15.0310 C.3       4 GLY6        0.0000 
     51 CZ          4.7168   -2.2187   14.0546 C.ar      3 PHE5        0.0000 
     52 CZ          3.6847   -8.7079   17.9694 C.ar      3 PHE5        0.0000 
     53 CZ          4.6243   -5.4234   15.0404 C.ar      3 PHE5        0.0000 
     54 CZ          4.9375   -4.3285   14.0641 C.ar      3 PHE5        0.0000 
     55 CZ          1.8769   -4.6340   17.3488 C.ar      3 PHE5        0.0000 
     56 CA          2.8165   -1.3495   14.4199 C.3       4 GLY6        0.0000 
     57 CA          1.7844   -7.8386   18.3346 C.3       4 GLY6        0.0000 
     58 CZ          2.0976   -6.7438   17.3583 C.ar      3 PHE5        0.0000 
     59 CZ          2.4108   -5.6489   16.3819 C.ar      3 PHE5        0.0000 
     60 CA          2.7240   -4.5541   15.4056 C.3       4 GLY6        0.0000 
     61 CA          3.0373   -3.4592   14.4293 C.3       4 GLY6        0.0000 
     62 CA          3.3505   -2.3644   13.4530 C.3       4 GLY6        0.0000 
     63 CZ          3.6637   -1.2695   12.4767 C.ar      3 PHE5        0.0000 
     64 CA          2.3184   -8.8536   17.3677 C.3       4 GLY6        0.0000 
     65 CZ          2.6316   -7.7587   16.3914 C.ar      3 PHE5        0.0000 
     66 CZ          2.9448   -6.6639   15.4151 C.ar      3 PHE5        0.0000 
     67 CZ          3.2580   -5.5690   14.4388 C.ar      3 PHE5        0.0000 
     68 CZ          3.5712   -4.4742   13.4625 C.ar      3 PHE5        0.0000 
     69 CZ          3.8844   -3.3793   12.4861 C.ar      3 PHE5        0.0000 
     70 CZ          4.1976   -2.2845   11.5098 C.ar      3 PHE5        0.0000 
     71 CA          2.8523   -9.8685   16.4009 C.3       4 GLY6        0.0000 
     72 CZ          3.1655   -8.7737   15.4245 C.ar      3 PHE5        0.0000 
     73 CZ          3.4787   -7.6788   14.4482 C.ar      3 PHE5        0.0000 
     74 CZ          3.7919   -6.5840   13.4719 C.ar      3 PHE5        0.0000 
     75 CZ          3.3863  -10.8834   15.4340 C.ar      3 PHE5        0.0000 
     76 CZ          3.6995   -9.7886   14.4577 C.ar      3 PHE5        0.0000 
     77 CZ          4.0127   -8.6937   13.4814 C.ar      3 PHE5        0.0000 
     78 CA          5.5787   -3.2195    8.5998 C.3       4 GLY6        0.0000 
     79 CZ          3.9202  -11.8984   14.4671 C.ar      3 PHE5        0.0000 
     80 CZ          4.2334  -10.8035   13.4908 C.ar      3 PHE5        0.0000 
     81 CZ          1.4502   -1.4951   13.8182 C.ar      3 PHE5        0.0000 
     82 CA          0.7313   -6.8894   16.7566 C.3       4 GLY6        0.0000 
     83 N           1.0445   -5.7946   15.7803 N.2       2 ALA2        0.0000 
     84 N           1.3577   -4.6997   14.8040 N.2       2 ALA2        0.0000 
     85 CA          1.6709   -3.6049   13.8277 C.3       4 GLY6        0.0000 
     86 CZ          1.9842   -2.5100   12.8513 C.ar      3 PHE5        0.0000 
     87 CZ          2.2974   -1.4152   11.8750 C.ar      3 PHE5        0.0000 
     88 O           0.9521   -8.9992   16.7661 O.2       2 ALA2        0.0000 
     89 O           1.2653   -7.9044   15.7898 O.2       2 ALA2        0.0000 
     90 N           1.5785   -6.8095   14.8134 N.2       2 ALA2        0.0000 
     91 N           1.8917   -5.7147   13.8371 N.2       2 ALA2        0.0000 
     92 CZ          2.2049   -4.6198   12.8608 C.ar      3 PHE5        0.0000 
     93 CZ          2.5181   -3.5250   11.8845 C.ar      3 PHE5        0.0000 
     94 CZ          2.8313   -2.4301   10.9082 C.ar      3 PHE5        0.0000 
     95 O           1.4860  -10.0142   15.7992 O.2       2 ALA2        0.0000 
     96 O           1.7992   -8.9193   14.8229 O.2       2 ALA2        0.0000 
     97 N           2.1124   -7.8245   13.8466 N.2       2 ALA2        0.0000 
     98 CZ          2.4256   -6.7296   12.8703 C.ar      3 PHE5        0.0000 
     99 CZ          3.3653   -3.4450    9.9413 C.ar      3 PHE5        0.0000 
    100 CZ          3.6785   -2.3502    8.9650 C.ar      3 PHE5        0.0000 
    101 CA          1.7068  -12.1239   15.8087 C.3       4 GLY6        0.0000 
    102 N           2.0200  -11.0291   14.8324 N.2       2 ALA2        0.0000 
    103 OG          2.3332   -9.9342   13.8560 O.2       1 SER1        0.0000 
    104 CZ          2.6464   -8.8394   12.8797 C.ar      3 PHE5        0.0000 
    105 CZ          4.2124   -3.3651    7.9981 C.ar      3 PHE5        0.0000 
    106 CZ          2.5539  -12.0440   13.8655 C.ar      3 PHE5        0.0000 
    107 CA          2.8671  -10.9492   12.8892 C.3       4 GLY6        0.0000 
    108 CZ          0.3046   -3.7505   13.2260 C.ar      3 PHE5        0.0000 
    109 CZ          0.6178   -2.6557   12.2497 C.ar      3 PHE5        0.0000 
    110 CZ          1.1518   -3.6706   11.2828 C.ar      3 PHE5        0.0000 
    111 CZ          1.4650   -2.5758   10.3065 C.ar      3 PHE5        0.0000 
    112 N           0.7461   -7.9701   13.2449 N.2       2 ALA2        0.0000 
    113 CZ          1.9989   -3.5907    9.3397 C.ar      3 PHE5        0.0000 
    114 O           2.3121   -2.4958    8.3633 O.2       2 ALA2        0.0000 
@<TRIPOS>BOND
@<TRIPOS>SUBSTRUCTURE
     1 SER1       36 GROUP   
     2 ALA2        6 GROUP   
     3 PHE5        3 GROUP   
     4 GLY6        1 GROUP   
     5 CUB7       12 GROUP   
@<TRIPOS>SET

