#    Name: 3r7m_SUZ_1_INTS_M
#    Modification time : Tue Mar 25 11:12:34 2014

@<TRIPOS>MOLECULE
3r7m_SUZ_1_INTS_M
   41     0     6     0     0
SMALL
NO_CHARGES


@<TRIPOS>ATOM
      1 CA          4.6525   -1.4490   18.1855 C.3       2 GLC5        0.0000 
      2 CA          6.0570   -2.6800   17.8400 C.3       6 GLL5        0.0000 
      3 CA          3.2480   -0.2180   18.5310 C.3       4 GLP5        0.0000 
      4 CA          6.5820   -2.9285   14.4760 C.3       2 GLC5        0.0000 
      5 CA          5.2780   -2.9730   15.5630 C.3       6 GLL5        0.0000 
      6 CA          7.8860   -2.8840   13.3890 C.3       4 GLP5        0.0000 
      7 CA          0.1665   -8.2605   18.1295 C.3       2 GLC5        0.0000 
      8 CA          0.6300   -7.6680   16.4430 C.3       6 GLL5        0.0000 
      9 CA         -0.2970   -8.8530   19.8160 C.3       4 GLP5        0.0000 
     10 CA          2.2125   -5.0335   11.0960 C.3       2 GLC5        0.0000 
     11 CA          1.4020   -3.9340   12.4670 C.3       6 GLL5        0.0000 
     12 CA          3.0230   -6.1330    9.7250 C.3       4 GLP5        0.0000 
     13 CA          0.2295   -4.9965   11.9065 C.3       2 GLC5        0.0000 
     14 CA         -0.9430   -6.0590   11.3460 C.3       4 GLP5        0.0000 
     15 N          -1.6635   -2.7855   13.4945 N.am      1 SEC2        0.0000 
     16 N          -0.6150   -3.4170   13.6110 N.am      5 SEL2        0.0000 
     17 N          -2.7120   -2.1540   13.3780 N.am      3 SEP2        0.0000 
     18 N          -1.0460   -3.8150   14.9795 N.am      1 SEC2        0.0000 
     19 N          -1.4770   -4.2130   16.3480 N.am      3 SEP2        0.0000 
     20 CA          3.8235   -0.3920   12.3055 C.3       2 GLC5        0.0000 
     21 CA          3.8950   -2.0660   12.9340 C.3       6 GLL5        0.0000 
     22 CA          3.7520    1.2820   11.6770 C.3       4 GLP5        0.0000 
     23 CA          5.4985   -2.1650   12.6950 C.3       2 GLC5        0.0000 
     24 CA          7.1020   -2.2640   12.4560 C.3       4 GLP5        0.0000 
     25 CA          8.9155   -6.7720   17.6485 C.3       2 GLC5        0.0000 
     26 CA          7.4820   -5.0910   17.6370 C.3       6 GLL5        0.0000 
     27 CA         10.3490   -8.4530   17.6600 C.3       4 GLP5        0.0000 
     28 CA         10.2765   -6.6010   18.7605 C.3       2 GLC5        0.0000 
     29 CA         10.2040   -4.7490   19.8610 C.3       6 GLL5        0.0000 
     30 CA          3.8247   -2.3985   16.4563 C.3       2 GLC5        0.0000 
     31 CA          5.9910   -3.4350   16.6700 C.3       6 GLL5        0.0000 
     32 CA          2.0150   -1.5930   16.7960 C.3       4 GLP5        0.0000 
     33 CA          2.8302   -3.2155   16.4184 C.3       2 GLC5        0.0000 
     34 CA          4.1290   -3.6390   15.0580 C.3       6 GLL5        0.0000 
     35 CA         -0.3805   -5.8581   16.4399 C.3       2 GLC5        0.0000 
     36 CA          1.5200   -6.7010   16.1880 C.3       6 GLL5        0.0000 
     37 CA         -1.9740   -5.1680   17.2020 C.3       4 GLP5        0.0000 
     38 CA          2.1530   -3.0225   15.5085 C.3       2 GLC5        0.0000 
     39 CA          2.2680   -4.9170   14.7490 C.3       6 GLL5        0.0000 
     40 CA          2.8462   -2.1178   15.1032 C.3       2 GLC5        0.0000 
     41 CA          3.4600   -3.2190   13.8870 C.3       6 GLL5        0.0000 
@<TRIPOS>BOND
@<TRIPOS>SUBSTRUCTURE
     1 SEC2       15 GROUP        1 X    SEC  0     ROOT SEC X 2
     2 GLC5        1 GROUP        1 X    GLC  0     **** GLC X 6
     3 SEP2       17 GROUP        1 Y    SEP  0     ROOT SEP Y 9
     4 GLP5        3 GROUP        1 Y    GLP  0     **** GLP Y 13
     5 SEL2       16 GROUP        1 Z    SEL  0     ROOT SEL Z 16
     6 GLL5        2 GROUP        1 Z    GLL  0     **** GLL Z 20
@<TRIPOS>SET

