#    Name: 3r7m_SUZ_1_ligand
#    Modification time : Tue Mar 25 11:12:34 2014

@<TRIPOS>MOLECULE
3r7m_SUZ_1_ligand
   41    43     1     0     0
SMALL
NO_CHARGES


@<TRIPOS>ATOM
      1 C20         6.8190   -3.1360   18.9230 C.ar      1 SUZ332      0.0000 
      2 C19         6.0570   -2.6800   17.8400 C.ar      1 SUZ332      0.0000 
      3 C5          5.9910   -3.4350   16.6700 C.ar      1 SUZ332      0.0000 
      4 C6          5.2780   -2.9730   15.5630 C.2       1 SUZ332      0.0000 
      5 C7          4.1290   -3.6390   15.0580 C.2       1 SUZ332      0.0000 
      6 C18         3.3810   -4.7030   15.6130 C.ar      1 SUZ332      0.0000 
      7 C17         3.5360   -5.5050   16.7460 C.ar      1 SUZ332      0.0000 
      8 C16         2.5980   -6.5070   17.0340 C.ar      1 SUZ332      0.0000 
      9 C15         1.5200   -6.7010   16.1880 C.ar      1 SUZ332      0.0000 
     10 F           0.6300   -7.6680   16.4430 F         1 SUZ332      0.0000 
     11 C14         1.3510   -5.9120   15.0400 C.ar      1 SUZ332      0.0000 
     12 C13         2.2680   -4.9170   14.7490 C.ar      1 SUZ332      0.0000 
     13 C10         2.3140   -3.9870   13.6930 C.2       1 SUZ332      0.0000 
     14 C11         1.4020   -3.9340   12.4670 C.3       1 SUZ332      0.0000 
     15 C12         0.0610   -3.2280   12.5790 C.2       1 SUZ332      0.0000 
     16 O3         -0.6150   -3.4170   13.6110 O.co2     1 SUZ332      0.0000 
     17 O2         -0.2690   -2.5470   11.5610 O.co2     1 SUZ332      0.0000 
     18 C8          3.4600   -3.2190   13.8870 C.2       1 SUZ332      0.0000 
     19 C9          3.8950   -2.0660   12.9340 C.3       1 SUZ332      0.0000 
     20 C4          6.7370   -4.6150   16.5650 C.ar      1 SUZ332      0.0000 
     21 C3          7.4820   -5.0910   17.6370 C.ar      1 SUZ332      0.0000 
     22 C2          7.5260   -4.3330   18.8170 C.ar      1 SUZ332      0.0000 
     23 S           8.4680   -4.9110   20.2330 S.o       1 SUZ332      0.0000 
     24 O1          8.0360   -6.3380   20.4700 O.2       1 SUZ332      0.0000 
     25 C1         10.2040   -4.7490   19.8610 C.3       1 SUZ332      0.0000 
     26 H           6.8550   -2.5898   19.7890 H         1 SUZ332      0.0000 
     27 H           5.5495   -1.7919   17.9104 H         1 SUZ332      0.0000 
     28 H           5.5924   -2.1054   15.0798 H         1 SUZ332      0.0000 
     29 H           4.3377   -5.3626   17.3711 H         1 SUZ332      0.0000 
     30 H           2.7177   -7.0890   17.8697 H         1 SUZ332      0.0000 
     31 H           0.5480   -6.0788   14.4242 H         1 SUZ332      0.0000 
     32 H           1.2210   -4.9895   12.1200 H         1 SUZ332      0.0000 
     33 H           1.9803   -3.4682   11.6209 H         1 SUZ332      0.0000 
     34 H           6.7305   -5.1381   15.6723 H         1 SUZ332      0.0000 
     35 H           7.9880   -5.9714   17.5738 H         1 SUZ332      0.0000 
     36 H           4.8018   -2.2280   12.5448 H         1 SUZ332      0.0000 
     37 H           3.2619   -1.9590   12.1674 H         1 SUZ332      0.0000 
     38 H           3.9324   -1.1864   13.4082 H         1 SUZ332      0.0000 
     39 H          10.7769   -5.0585   20.6200 H         1 SUZ332      0.0000 
     40 H          10.4638   -5.2872   19.0592 H         1 SUZ332      0.0000 
     41 H          10.4562   -3.8001   19.6713 H         1 SUZ332      0.0000 
@<TRIPOS>BOND
     1    2    1 ar   
     2   22    1 ar   
     3   26    1 1    
     4    3    2 ar   
     5   27    2 1    
     6    4    3 1    
     7   20    3 ar   
     8    5    4 2    
     9   28    4 1    
    10    6    5 1    
    11   18    5 1    
    12    7    6 ar   
    13   12    6 ar   
    14    8    7 ar   
    15   29    7 1    
    16    9    8 ar   
    17   30    8 1    
    18   10    9 1    
    19   11    9 ar   
    20   12   11 ar   
    21   31   11 1    
    22   13   12 1    
    23   14   13 1    
    24   18   13 2    
    25   15   14 1    
    26   32   14 1    
    27   33   14 1    
    28   16   15 ar   
    29   17   15 ar   
    30   19   18 1    
    31   36   19 1    
    32   37   19 1    
    33   38   19 1    
    34   21   20 ar   
    35   34   20 1    
    36   22   21 ar   
    37   35   21 1    
    38   23   22 1    
    39   24   23 2    
    40   25   23 1    
    41   39   25 1    
    42   40   25 1    
    43   41   25 1    
@<TRIPOS>SUBSTRUCTURE
     1 SUZ332      1 GROUP   
@<TRIPOS>SET

