#    Name: 4i8q_NAD_1_INTS_M
#    Modification time : Tue Mar 25 02:33:48 2014

@<TRIPOS>MOLECULE
4i8q_NAD_1_INTS_M
  114     0     9     0     0
SMALL
NO_CHARGES


@<TRIPOS>ATOM
      1 N         -15.2930   27.6980   -9.5500 N.am      2 SEC2        0.0000 
      2 N         -15.3720   26.6890   -8.4330 N.am      8 SEL2        0.0000 
      3 N         -15.2140   28.7070  -10.6670 N.am      5 SEP2        0.0000 
      4 N         -15.4925   27.9370   -8.1130 N.am      2 SEC2        0.0000 
      5 N         -15.6130   29.1850   -7.7930 N.am      5 SEP2        0.0000 
      6 N         -14.4985   26.8425   -7.4730 N.am      2 SEC2        0.0000 
      7 N         -13.6250   26.9960   -6.5130 N.am      5 SEP2        0.0000 
      8 CA        -16.9725   23.4290  -12.0510 C.3       3 GLC5        0.0000 
      9 CA        -15.6670   23.9020  -10.3940 C.3       9 GLL5        0.0000 
     10 CA        -18.2780   22.9560  -13.7080 C.3       6 GLP5        0.0000 
     11 CA        -15.3255   25.5300  -11.4725 C.3       3 GLC5        0.0000 
     12 CA        -14.9840   27.1580  -12.5510 C.3       6 GLP5        0.0000 
     13 CA        -17.6925   20.8240  -10.2875 C.3       3 GLC5        0.0000 
     14 CA        -15.9020   21.4120   -9.7430 C.3       9 GLL5        0.0000 
     15 CA        -19.4830   20.2360  -10.8320 C.3       6 GLP5        0.0000 
     16 N         -15.4105   18.9060   -9.4835 N.am      2 SEC2        0.0000 
     17 N         -15.5910   20.2420  -10.4940 N.am      8 SEL2        0.0000 
     18 N         -15.2300   17.5700   -8.4730 N.am      5 SEP2        0.0000 
     19 O         -16.1205   20.5620  -11.7390 O.2       1 ALC1        0.0000 
     20 O         -15.5910   20.2420  -10.4940 O.2       7 ALL1        0.0000 
     21 O         -16.6500   20.8820  -12.9840 O.2       4 ALP1        0.0000 
     22 N         -15.5260   18.8310   -8.0610 N.am      2 SEC2        0.0000 
     23 N         -15.8220   20.0920   -7.6490 N.am      8 SEL2        0.0000 
     24 O         -17.1035   19.7110   -7.2215 O.2       1 ALC1        0.0000 
     25 O         -15.8220   20.0920   -7.6490 O.2       7 ALL1        0.0000 
     26 O         -18.3850   19.3300   -6.7940 O.2       4 ALP1        0.0000 
     27 CA        -12.9490   21.1980   -9.6870 C.3       3 GLC5        0.0000 
     28 CA        -14.0570   21.6490   -8.3060 C.3       9 GLL5        0.0000 
     29 CA        -11.8410   20.7470  -11.0680 C.3       6 GLP5        0.0000 
     30 CA        -13.9545   19.4195   -8.5875 C.3       3 GLC5        0.0000 
     31 CA        -13.8520   17.1900   -8.8690 C.3       6 GLP5        0.0000 
     32 CA        -13.1045   23.5665   -7.9365 C.3       3 GLC5        0.0000 
     33 CA        -12.1520   25.4840   -7.5670 C.3       6 GLP5        0.0000 
     34 CA        -10.9890   20.9360   -3.5600 C.3       3 GLC5        0.0000 
     35 CA        -10.7950   22.5260   -4.7920 C.3       9 GLL5        0.0000 
     36 CA        -11.1830   19.3460   -2.3280 C.3       6 GLP5        0.0000 
     37 CA         -9.3740   20.7895   -8.6850 C.3       3 GLC5        0.0000 
     38 CA        -10.0120   21.4010   -6.6620 C.3       9 GLL5        0.0000 
     39 CA         -8.7360   20.1780  -10.7080 C.3       6 GLP5        0.0000 
     40 CA        -11.8345   20.3510   -5.9690 C.3       3 GLC5        0.0000 
     41 CA        -13.6570   19.3010   -5.2760 C.3       6 GLP5        0.0000 
     42 CA         -9.9970   19.5855   -7.1605 C.3       3 GLC5        0.0000 
     43 CA         -9.9820   17.7700   -7.6590 C.3       6 GLP5        0.0000 
     44 CA         -8.7270   20.0895   -5.8390 C.3       3 GLC5        0.0000 
     45 CA         -7.4420   18.7780   -5.0160 C.3       6 GLP5        0.0000 
     46 CA         -9.0210   22.6390   -7.5265 C.3       3 GLC5        0.0000 
     47 CA         -8.0300   23.8770   -8.3910 C.3       6 GLP5        0.0000 
     48 CA        -10.6140   22.8375   -8.0045 C.3       3 GLC5        0.0000 
     49 CA        -12.1390   22.0020   -6.6860 C.3       9 GLL5        0.0000 
     50 CA         -9.0890   23.6730   -9.3230 C.3       6 GLP5        0.0000 
     51 N         -16.3210   27.5445  -10.2670 N.am      2 SEC2        0.0000 
     52 N         -17.4280   26.3820   -9.8670 N.am      8 SEL2        0.0000 
     53 N         -20.9520   25.5740   -9.8645 N.am      2 SEC2        0.0000 
     54 N         -19.9070   26.4270   -9.5370 N.am      8 SEL2        0.0000 
     55 N         -21.9970   24.7210  -10.1920 N.am      5 SEP2        0.0000 
     56 CA        -18.9360   26.2010  -13.0145 C.3       3 GLC5        0.0000 
     57 CA        -19.5530   27.9400  -12.0420 C.3       9 GLL5        0.0000 
     58 CA        -18.3190   24.4620  -13.9870 C.3       6 GLP5        0.0000 
     59 CA        -21.5960   27.2090  -11.4880 C.3       3 GLC5        0.0000 
     60 CA        -23.6390   26.4780  -10.9340 C.3       6 GLP5        0.0000 
     61 CA        -21.1565   28.5505  -12.5810 C.3       3 GLC5        0.0000 
     62 CA        -22.7600   29.1610  -13.1200 C.3       6 GLP5        0.0000 
     63 CA        -16.7345   28.0690  -12.4140 C.3       3 GLC5        0.0000 
     64 CA        -18.4850   28.9800  -12.2770 C.3       9 GLL5        0.0000 
     65 CA        -16.8075   29.4995  -11.1485 C.3       3 GLC5        0.0000 
     66 CA        -15.1300   30.0190  -10.0200 C.3       6 GLP5        0.0000 
     67 O         -18.7175   32.6060  -12.3980 O.2       1 ALC1        0.0000 
     68 O         -18.1440   31.3380  -11.8680 O.2       7 ALL1        0.0000 
     69 O         -19.2910   33.8740  -12.9280 O.2       4 ALP1        0.0000 
     70 O         -19.0250   32.8430  -13.7725 O.2       1 ALC1        0.0000 
     71 O         -18.7590   31.8120  -14.6170 O.2       7 ALL1        0.0000 
     72 CA        -16.2375   28.4275  -13.4305 C.3       3 GLC5        0.0000 
     73 CA        -17.4910   29.6970  -14.3100 C.3       9 GLL5        0.0000 
     74 CA        -14.9410   30.6965  -15.6470 C.3       3 GLC5        0.0000 
     75 CA        -16.4800   29.6690  -16.5680 C.3       9 GLL5        0.0000 
     76 CA        -13.4020   31.7240  -14.7260 C.3       6 GLP5        0.0000 
     77 CA        -14.1850   28.9140  -18.0825 C.3       3 GLC5        0.0000 
     78 CA        -16.3520   29.2310  -17.8760 C.3       9 GLL5        0.0000 
     79 CA        -12.0180   28.5970  -18.2890 C.3       6 GLP5        0.0000 
     80 N         -15.3955   29.9680  -21.2205 N.am      2 SEC2        0.0000 
     81 N         -15.2510   29.4330  -19.9600 N.am      8 SEL2        0.0000 
     82 N         -15.5400   30.5030  -22.4810 N.am      5 SEP2        0.0000 
     83 O         -14.8040   31.7455  -17.3520 O.2       1 ALC1        0.0000 
     84 O         -14.6500   30.9040  -18.3860 O.2       7 ALL1        0.0000 
     85 O         -14.9580   32.5870  -16.3180 O.2       4 ALP1        0.0000 
     86 CA        -18.5360   29.8735  -17.0460 C.3       3 GLC5        0.0000 
     87 CA        -18.2700   28.1450  -16.1810 C.3       9 GLL5        0.0000 
     88 CA        -18.8020   31.6020  -17.9110 C.3       6 GLP5        0.0000 
     89 CA        -13.6195   24.0155  -10.7380 C.3       3 GLC5        0.0000 
     90 CA        -11.8960   24.8070  -11.1540 C.3       6 GLP5        0.0000 
     91 CA        -13.6507   21.3630  -10.5322 C.3       3 GLC5        0.0000 
     92 CA        -15.0190   22.5460  -10.2500 C.3       9 GLL5        0.0000 
     93 CA        -14.2297   20.3998   -6.7770 C.3       3 GLC5        0.0000 
     94 CA        -12.7177   20.7927   -5.5891 C.3       3 GLC5        0.0000 
     95 CA        -12.0410   22.6080   -5.4450 C.3       9 GLL5        0.0000 
     96 CA        -11.9652   23.8843   -6.7346 C.3       3 GLC5        0.0000 
     97 CA        -17.3255   31.9958  -14.2513 C.3       3 GLC5        0.0000 
     98 CA        -18.7990   30.5000  -14.0690 C.3       9 GLL5        0.0000 
     99 CA        -16.5060   33.8930  -14.3130 C.3       6 GLP5        0.0000 
    100 CA        -18.4735   30.8503  -16.0503 C.3       3 GLC5        0.0000 
    101 CA        -20.4874   29.9276  -13.7364 C.3       3 GLC5        0.0000 
    102 CA        -22.2120   29.7600  -14.2310 C.3       6 GLP5        0.0000 
    103 CA        -15.6390   27.8075  -17.1255 C.3       3 GLC5        0.0000 
    104 CA        -14.8620   26.1650  -17.0290 C.3       6 GLP5        0.0000 
    105 CA        -17.6090   30.5260  -17.5665 C.3       3 GLC5        0.0000 
    106 CA        -17.8858   26.4828  -19.1425 C.3       3 GLC5        0.0000 
    107 CA        -17.2050   28.2260  -18.3300 C.3       9 GLL5        0.0000 
    108 CA        -18.0870   25.0100  -20.3780 C.3       6 GLP5        0.0000 
    109 CA        -18.2572   29.4352  -18.7465 C.3       3 GLC5        0.0000 
    110 CA        -18.8300   30.9150  -19.5860 C.3       6 GLP5        0.0000 
    111 CA        -18.0090   26.2545  -16.0963 C.3       3 GLC5        0.0000 
    112 CA        -18.1640   27.6850  -17.4840 C.3       9 GLL5        0.0000 
    113 CA        -17.8010   24.5940  -15.3600 C.3       6 GLP5        0.0000 
    114 CA        -16.4196   27.1076  -17.0365 C.3       3 GLC5        0.0000 
@<TRIPOS>BOND
@<TRIPOS>SUBSTRUCTURE
     1 ALC1       19 GROUP        1 X    ALC  0     ROOT ALC X 1
     2 SEC2        1 GROUP        1 X    SEC  0     **** SEC X 2
     3 GLC5        8 GROUP        1 X    GLC  0     **** GLC X 6
     4 ALP1       21 GROUP        1 Y    ALP  0     ROOT ALP Y 8
     5 SEP2        3 GROUP        1 Y    SEP  0     **** SEP Y 9
     6 GLP5       10 GROUP        1 Y    GLP  0     **** GLP Y 13
     7 ALL1       20 GROUP        1 Z    ALL  0     ROOT ALL Z 15
     8 SEL2        2 GROUP        1 Z    SEL  0     **** SEL Z 16
     9 GLL5        9 GROUP        1 Z    GLL  0     **** GLL Z 20
@<TRIPOS>SET

