#    Name: 4i8q_NAD_1_ligand
#    Modification time : Tue Mar 25 02:33:48 2014

@<TRIPOS>MOLECULE
4i8q_NAD_1_ligand
   70    74     1     0     0
SMALL
NO_CHARGES


@<TRIPOS>ATOM
      1 PA        -16.5310   25.8000   -8.6680 P.3       1 NAD601      0.0000 
      2 O1A       -15.3720   26.6890   -8.4330 O.co2     1 NAD601      0.0000 
      3 O2A       -17.4520   25.7020   -7.4090 O.co2     1 NAD601      0.0000 
      4 O5B       -16.0180   24.3530   -9.0710 O.3       1 NAD601      0.0000 
      5 C5B       -15.6670   23.9020  -10.3940 C.3       1 NAD601      0.0000 
      6 C4B       -15.0190   22.5460  -10.2500 C.3       1 NAD601      0.0000 
      7 O4B       -13.9050   22.6200   -9.3240 O.3       1 NAD601      0.0000 
      8 C3B       -15.9020   21.4120   -9.7430 C.3       1 NAD601      0.0000 
      9 O3B       -15.5910   20.2420  -10.4940 O.3       1 NAD601      0.0000 
     10 C2B       -15.5480   21.3480   -8.2500 C.3       1 NAD601      0.0000 
     11 O2B       -15.8220   20.0920   -7.6490 O.3       1 NAD601      0.0000 
     12 C1B       -14.0570   21.6490   -8.3060 C.3       1 NAD601      0.0000 
     13 N9A       -13.4460   22.1640   -7.0800 N.pl3     1 NAD601      0.0000 
     14 C8A       -14.0470   22.8850   -6.0790 C.2       1 NAD601      0.0000 
     15 N7A       -13.2510   23.1820   -5.0820 N.2       1 NAD601      0.0000 
     16 C5A       -12.0410   22.6080   -5.4450 C.ar      1 NAD601      0.0000 
     17 C6A       -10.7950   22.5260   -4.7920 C.ar      1 NAD601      0.0000 
     18 N6A       -10.5730   22.9870   -3.5560 N.pl3     1 NAD601      0.0000 
     19 N1A        -9.7800   21.9160   -5.4480 N.ar      1 NAD601      0.0000 
     20 C2A       -10.0120   21.4010   -6.6620 C.ar      1 NAD601      0.0000 
     21 N3A       -11.1540   21.3790   -7.3570 N.ar      1 NAD601      0.0000 
     22 C4A       -12.1390   22.0020   -6.6860 C.ar      1 NAD601      0.0000 
     23 O3        -17.4280   26.3820   -9.8670 O.3       1 NAD601      0.0000 
     24 PN        -18.8500   25.8980  -10.4290 P.3       1 NAD601      0.0000 
     25 O1N       -18.7650   24.4330  -10.6420 O.co2     1 NAD601      0.0000 
     26 O2N       -19.9070   26.4270   -9.5370 O.co2     1 NAD601      0.0000 
     27 O5D       -18.9160   26.6670  -11.8280 O.3       1 NAD601      0.0000 
     28 C5D       -19.5530   27.9400  -12.0420 C.3       1 NAD601      0.0000 
     29 C4D       -18.4850   28.9800  -12.2770 C.3       1 NAD601      0.0000 
     30 O4D       -17.7110   28.6200  -13.4420 O.3       1 NAD601      0.0000 
     31 C3D       -18.9680   30.4010  -12.5520 C.3       1 NAD601      0.0000 
     32 O3D       -18.1440   31.3380  -11.8680 O.3       1 NAD601      0.0000 
     33 C2D       -18.7990   30.5000  -14.0690 C.3       1 NAD601      0.0000 
     34 O2D       -18.7590   31.8120  -14.6170 O.3       1 NAD601      0.0000 
     35 C1D       -17.4910   29.6970  -14.3100 C.3       1 NAD601      0.0000 
     36 N1N       -17.4520   29.1160  -15.7340 N.pl3     1 NAD601      0.0000 
     37 C2N       -16.4800   29.6690  -16.5680 C.ar      1 NAD601      0.0000 
     38 C3N       -16.3520   29.2310  -17.8760 C.ar      1 NAD601      0.0000 
     39 C7N       -15.3670   29.8740  -18.8260 C.2       1 NAD601      0.0000 
     40 O7N       -15.2510   29.4330  -19.9600 O.2       1 NAD601      0.0000 
     41 N7N       -14.6500   30.9040  -18.3860 N.am      1 NAD601      0.0000 
     42 C4N       -17.2050   28.2260  -18.3300 C.ar      1 NAD601      0.0000 
     43 C5N       -18.1640   27.6850  -17.4840 C.ar      1 NAD601      0.0000 
     44 C6N       -18.2700   28.1450  -16.1810 C.ar      1 NAD601      0.0000 
     45 H         -14.9595   24.5763  -10.8686 H         1 NAD601      0.0000 
     46 H         -16.5455   23.8017  -11.0254 H         1 NAD601      0.0000 
     47 H         -14.6202   22.2363  -11.2285 H         1 NAD601      0.0000 
     48 H         -16.9106   21.7338   -9.8392 H         1 NAD601      0.0000 
     49 H         -16.0211   22.1809   -7.7776 H         1 NAD601      0.0000 
     50 H         -13.5500   20.7319   -8.6209 H         1 NAD601      0.0000 
     51 H         -15.0165   23.1469   -6.1362 H         1 NAD601      0.0000 
     52 H         -11.3656   23.3669   -3.0791 H         1 NAD601      0.0000 
     53 H          -9.6343   22.9104   -3.2198 H         1 NAD601      0.0000 
     54 H          -9.1414   20.9307   -7.1557 H         1 NAD601      0.0000 
     55 H         -20.1435   28.2396  -11.1737 H         1 NAD601      0.0000 
     56 H         -20.2094   27.9140  -12.9143 H         1 NAD601      0.0000 
     57 H         -17.8164   29.0164  -11.4179 H         1 NAD601      0.0000 
     58 H         -19.9892   30.4554  -12.3217 H         1 NAD601      0.0000 
     59 H         -19.5930   29.8799  -14.5071 H         1 NAD601      0.0000 
     60 H         -16.6816   30.2614  -14.0884 H         1 NAD601      0.0000 
     61 H         -15.8574   30.4054  -16.2059 H         1 NAD601      0.0000 
     62 H         -14.7972   31.1673  -17.4326 H         1 NAD601      0.0000 
     63 H         -14.0284   31.3223  -19.0483 H         1 NAD601      0.0000 
     64 H         -17.1214   27.8847  -19.2986 H         1 NAD601      0.0000 
     65 H         -18.7923   26.9462  -17.8240 H         1 NAD601      0.0000 
     66 H         -18.9903   27.7268  -15.5599 H         1 NAD601      0.0000 
     67 H         -16.3312   20.1586  -11.1612 H         1 NAD601      0.0000 
     68 H         -16.7984   20.1154   -7.4345 H         1 NAD601      0.0000 
     69 H         -18.4761   32.2353  -12.1590 H         1 NAD601      0.0000 
     70 H         -19.0215   32.4151  -13.8638 H         1 NAD601      0.0000 
@<TRIPOS>BOND
     1    2    1 ar   
     2    3    1 ar   
     3    4    1 1    
     4   23    1 1    
     5    5    4 1    
     6    6    5 1    
     7   45    5 1    
     8   46    5 1    
     9    7    6 1    
    10    8    6 1    
    11   47    6 1    
    12   12    7 1    
    13    9    8 1    
    14   10    8 1    
    15   48    8 1    
    16   67    9 1    
    17   11   10 1    
    18   12   10 1    
    19   49   10 1    
    20   68   11 1    
    21   13   12 1    
    22   50   12 1    
    23   14   13 1    
    24   22   13 1    
    25   15   14 2    
    26   51   14 1    
    27   16   15 1    
    28   17   16 ar   
    29   22   16 ar   
    30   18   17 1    
    31   19   17 ar   
    32   52   18 1    
    33   53   18 1    
    34   20   19 ar   
    35   21   20 ar   
    36   54   20 1    
    37   22   21 ar   
    38   24   23 1    
    39   25   24 ar   
    40   26   24 ar   
    41   27   24 1    
    42   28   27 1    
    43   29   28 1    
    44   55   28 1    
    45   56   28 1    
    46   30   29 1    
    47   31   29 1    
    48   57   29 1    
    49   35   30 1    
    50   32   31 1    
    51   33   31 1    
    52   58   31 1    
    53   69   32 1    
    54   34   33 1    
    55   35   33 1    
    56   59   33 1    
    57   70   34 1    
    58   36   35 1    
    59   60   35 1    
    60   37   36 ar   
    61   44   36 ar   
    62   38   37 ar   
    63   61   37 1    
    64   39   38 1    
    65   42   38 ar   
    66   40   39 2    
    67   41   39 am   
    68   62   41 1    
    69   63   41 1    
    70   43   42 ar   
    71   64   42 1    
    72   44   43 ar   
    73   65   43 1    
    74   66   44 1    
@<TRIPOS>SUBSTRUCTURE
     1 NAD601      1 GROUP   
@<TRIPOS>SET

