#    Name: 4awk_CI1_1_INTS_M
#    Modification time : Tue Mar 25 06:18:17 2014

@<TRIPOS>MOLECULE
4awk_CI1_1_INTS_M
   70     0    12     0     0
SMALL
NO_CHARGES


@<TRIPOS>ATOM
      1 CA         61.8380   14.2965   17.3275 C.3       4 GLC5        0.0000 
      2 CA         60.6740   15.2690   18.9030 C.3      12 GLL5        0.0000 
      3 CA         63.0020   13.3240   15.7520 C.3       8 GLP5        0.0000 
      4 CA         56.5650   10.7385   19.3825 C.3       4 GLC5        0.0000 
      5 CA         58.6150   11.5290   19.4900 C.3      12 GLL5        0.0000 
      6 CA         54.5150    9.9480   19.2750 C.3       8 GLP5        0.0000 
      7 CA         59.1415   10.7215   21.4805 C.3       4 GLC5        0.0000 
      8 CA         59.6680    9.9140   23.4710 C.3       8 GLP5        0.0000 
      9 CA         61.6810   13.0630   17.0845 C.3       4 GLC5        0.0000 
     10 CA         60.3600   12.8020   18.4170 C.3      12 GLL5        0.0000 
     11 Zn         57.0950   16.8185   13.9125 Zn        3 ZIC7        0.0000 
     12 Zn         58.7460   16.5170   17.5690 Zn       11 ZIL7        0.0000 
     13 Zn         55.4440   17.1200   10.2560 Zn        7 ZIP7        0.0000 
     14 Zn         58.2215   15.8820   15.0590 Zn        3 ZIC7        0.0000 
     15 Zn         57.6970   15.2470   12.5490 Zn        7 ZIP7        0.0000 
     16 CA         57.9205   18.0720   20.0070 C.3       4 GLC5        0.0000 
     17 CA         58.4820   17.9200   17.9420 C.3      12 GLL5        0.0000 
     18 CA         57.3590   18.2240   22.0720 C.3       8 GLP5        0.0000 
     19 Zn         57.6450   15.5250   13.5590 Zn        3 ZIC7        0.0000 
     20 Zn         57.5930   15.8030   14.5690 Zn       11 ZIL7        0.0000 
     21 N          57.0560   14.6125   13.8505 N.am      1 SEC2        0.0000 
     22 N          57.5930   15.8030   14.5690 N.am      9 SEL2        0.0000 
     23 N          56.5190   13.4220   13.1320 N.am      5 SEP2        0.0000 
     24 CA         54.1070   16.4450   11.7495 C.3       4 GLC5        0.0000 
     25 CA         55.5160   17.3310   13.1320 C.3      12 GLL5        0.0000 
     26 CA         52.6980   15.5590   10.3670 C.3       8 GLP5        0.0000 
     27 Zn         55.8525   16.8885   11.2660 Zn        3 ZIC7        0.0000 
     28 Zn         56.2610   16.6570   12.2760 Zn       11 ZIL7        0.0000 
     29 Zn         56.9790   15.9520   12.4125 Zn        3 ZIC7        0.0000 
     30 NZ         54.4755   20.1785   12.8010 N.4       2 LYC4        0.0000 
     31 NZ         54.0060   19.0690   13.4710 N.4      10 LYL4        0.0000 
     32 NZ         54.9450   21.2880   12.1310 N.4       6 LYP4        0.0000 
     33 N          54.4755   20.1785   12.8010 N.am      1 SEC2        0.0000 
     34 N          54.0060   19.0690   13.4710 N.am      9 SEL2        0.0000 
     35 N          54.9450   21.2880   12.1310 N.am      5 SEP2        0.0000 
     36 NZ         54.5140   19.7635   11.8040 N.4       2 LYC4        0.0000 
     37 NZ         54.0830   18.2390   11.4770 N.4      10 LYL4        0.0000 
     38 Zn         54.7635   17.6795   10.8665 Zn        3 ZIC7        0.0000 
     39 Zn         54.0830   18.2390   11.4770 Zn       11 ZIL7        0.0000 
     40 N          54.5140   19.7635   11.8040 N.am      1 SEC2        0.0000 
     41 N          54.0830   18.2390   11.4770 N.am      9 SEL2        0.0000 
     42 CA         51.8810   14.7785   18.0590 C.3       4 GLC5        0.0000 
     43 CA         53.6410   15.9910   18.4040 C.3      12 GLL5        0.0000 
     44 CA         50.1210   13.5660   17.7140 C.3       8 GLP5        0.0000 
     45 CA         53.3950   12.5315   21.5950 C.3       4 GLC5        0.0000 
     46 CA         54.3120   13.9190   20.1360 C.3      12 GLL5        0.0000 
     47 CA         52.4780   11.1440   23.0540 C.3       8 GLP5        0.0000 
     48 CA         52.5215   12.9350   22.5800 C.3       4 GLC5        0.0000 
     49 CA         52.5650   14.7260   22.1060 C.3      12 GLL5        0.0000 
     50 CA         54.0840   15.7315   22.4190 C.3       4 GLC5        0.0000 
     51 CA         55.6030   16.7370   22.7320 C.3       8 GLP5        0.0000 
     52 CA         51.8890   15.1875   23.6000 C.3       4 GLC5        0.0000 
     53 CA         51.2130   15.6490   25.0940 C.3       8 GLP5        0.0000 
     54 CA         51.4155   16.0915   21.8620 C.3       4 GLC5        0.0000 
     55 CA         50.2660   17.4570   21.6180 C.3       8 GLP5        0.0000 
     56 CA         51.3975   14.0280   20.6590 C.3       4 GLC5        0.0000 
     57 CA         50.2300   13.3300   19.2120 C.3       8 GLP5        0.0000 
     58 CA         61.9123   13.5215   19.6852 C.3       4 GLC5        0.0000 
     59 CA         59.9570   13.9490   19.1040 C.3      12 GLL5        0.0000 
     60 CA         63.5090   12.4340   20.3670 C.3       8 GLP5        0.0000 
     61 CA         57.2980   13.7930   21.7005 C.3       4 GLC5        0.0000 
     62 CA         58.8870   13.8770   19.9910 C.3      12 GLL5        0.0000 
     63 CA         56.0470   14.3110   23.3150 C.3       8 GLP5        0.0000 
     64 CA         61.7677   12.3155   19.4403 C.3       4 GLC5        0.0000 
     65 CA         59.6930   11.5920   18.6100 C.3      12 GLL5        0.0000 
     66 CA         51.7285   16.4200   20.8480 C.3       4 GLC5        0.0000 
     67 CA         53.3590   14.8640   20.5090 C.3      12 GLL5        0.0000 
     68 CA         54.5703   11.9555   19.3955 C.3       4 GLC5        0.0000 
     69 CA         54.9412   14.3513   21.8188 C.3       4 GLC5        0.0000 
     70 CA         51.9907   13.9905   19.6595 C.3       4 GLC5        0.0000 
@<TRIPOS>BOND
@<TRIPOS>SUBSTRUCTURE
     1 SEC2       21 GROUP        1 X    SEC  0     ROOT SEC X 2
     2 LYC4       30 GROUP        1 X    LYC  0     **** LYC X 4
     3 ZIC7       11 GROUP        1 X    ZIC  0     **** ZIC X 5
     4 GLC5        1 GROUP        1 X    GLC  0     **** GLC X 6
     5 SEP2       23 GROUP        1 Y    SEP  0     ROOT SEP Y 9
     6 LYP4       32 GROUP        1 Y    LYP  0     **** LYP Y 11
     7 ZIP7       13 GROUP        1 Y    ZIP  0     **** ZIP Y 12
     8 GLP5        3 GROUP        1 Y    GLP  0     **** GLP Y 13
     9 SEL2       22 GROUP        1 Z    SEL  0     ROOT SEL Z 16
    10 LYL4       31 GROUP        1 Z    LYL  0     **** LYL Z 18
    11 ZIL7       12 GROUP        1 Z    ZIL  0     **** ZIL Z 19
    12 GLL5        2 GROUP        1 Z    GLL  0     **** GLL Z 20
@<TRIPOS>SET

