#    Name: 4awk_CI1_1_ligand
#    Modification time : Tue Mar 25 06:18:17 2014

@<TRIPOS>MOLECULE
4awk_CI1_1_ligand
   54    56     1     0     0
SMALL
NO_CHARGES


@<TRIPOS>ATOM
      1 O32        61.0650   17.1710   17.2850 O.2       1 CI1801      0.0000 
      2 S30        60.2050   16.0440   17.4920 S.o2      1 CI1801      0.0000 
      3 O31        60.3910   15.1540   16.3810 O.2       1 CI1801      0.0000 
      4 CP         60.6740   15.2690   18.9030 C.3       1 CI1801      0.0000 
      5 CGB        59.9570   13.9490   19.1040 C.ar      1 CI1801      0.0000 
      6 CD2        58.8870   13.8770   19.9910 C.ar      1 CI1801      0.0000 
      7 CE2        58.2110   12.6730   20.1810 C.ar      1 CI1801      0.0000 
      8 CZ         58.6150   11.5290   19.4900 C.ar      1 CI1801      0.0000 
      9 CE1        59.6930   11.5920   18.6100 C.ar      1 CI1801      0.0000 
     10 CD1        60.3600   12.8020   18.4170 C.ar      1 CI1801      0.0000 
     11 NJ         58.7460   16.5170   17.5690 N.pl3     1 CI1801      0.0000 
     12 CI         58.4820   17.9200   17.9420 C.3       1 CI1801      0.0000 
     13 CK         57.2740   18.4540   17.1880 C.3       1 CI1801      0.0000 
     14 CG         56.1260   17.4700   17.3620 C.3       1 CI1801      0.0000 
     15 CH         57.6660   15.5480   17.3230 C.3       1 CI1801      0.0000 
     16 CF         56.4360   16.1530   16.6440 C.3       1 CI1801      0.0000 
     17 CB         56.6730   16.3700   15.1580 C.2       1 CI1801      0.0000 
     18 O13        57.5930   15.8030   14.5690 O.2       1 CI1801      0.0000 
     19 CM         55.7060   17.2520   14.4610 C.2       1 CI1801      0.0000 
     20 CA         55.5160   17.3310   13.1320 C.2       1 CI1801      0.0000 
     21 O14        56.2610   16.6570   12.2760 O.3       1 CI1801      0.0000 
     22 CE         54.4650   18.2390   12.6590 C.2       1 CI1801      0.0000 
     23 OAN        54.0060   19.0690   13.4710 O.co2     1 CI1801      0.0000 
     24 OAO        54.0830   18.2390   11.4770 O.co2     1 CI1801      0.0000 
     25 CO         55.2800   15.1420   16.6860 C.3       1 CI1801      0.0000 
     26 CGA        54.6030   15.0480   18.0320 C.ar      1 CI1801      0.0000 
     27 CDB        53.6410   15.9910   18.4040 C.ar      1 CI1801      0.0000 
     28 CEB        53.0230   15.9020   19.6470 C.ar      1 CI1801      0.0000 
     29 CDA        54.9390   14.0070   18.8960 C.ar      1 CI1801      0.0000 
     30 CEA        54.3120   13.9190   20.1360 C.ar      1 CI1801      0.0000 
     31 CZB        53.3590   14.8640   20.5090 C.ar      1 CI1801      0.0000 
     32 CL         52.5650   14.7260   22.1060 Cl        1 CI1801      0.0000 
     33 H          60.4573   15.9687   19.7007 H         1 CI1801      0.0000 
     34 H          61.7450   15.1343   18.8144 H         1 CI1801      0.0000 
     35 H          58.5927   14.7164   20.5096 H         1 CI1801      0.0000 
     36 H          57.4158   12.6262   20.8289 H         1 CI1801      0.0000 
     37 H          58.1169   10.6424   19.6314 H         1 CI1801      0.0000 
     38 H          59.9960   10.7523   18.1053 H         1 CI1801      0.0000 
     39 H          61.1545   12.8502   17.7640 H         1 CI1801      0.0000 
     40 H          59.3467   18.5474   17.7055 H         1 CI1801      0.0000 
     41 H          58.2868   17.9996   19.0157 H         1 CI1801      0.0000 
     42 H          57.5142   18.5465   16.1391 H         1 CI1801      0.0000 
     43 H          56.9906   19.4143   17.5926 H         1 CI1801      0.0000 
     44 H          55.2161   17.8965   16.9463 H         1 CI1801      0.0000 
     45 H          55.9753   17.2715   18.4205 H         1 CI1801      0.0000 
     46 H          57.3387   15.0878   18.2762 H         1 CI1801      0.0000 
     47 H          58.0329   14.7172   16.6885 H         1 CI1801      0.0000 
     48 H          55.1311   17.8614   15.1226 H         1 CI1801      0.0000 
     49 H          55.6720   14.1517   16.4012 H         1 CI1801      0.0000 
     50 H          54.5394   15.4268   15.9205 H         1 CI1801      0.0000 
     51 H          53.3921   16.7492   17.7571 H         1 CI1801      0.0000 
     52 H          52.3234   16.5982   19.9259 H         1 CI1801      0.0000 
     53 H          55.6400   13.3144   18.6208 H         1 CI1801      0.0000 
     54 H          54.5533   13.1529   20.7797 H         1 CI1801      0.0000 
@<TRIPOS>BOND
     1    2    1 2    
     2    3    2 2    
     3    4    2 1    
     4   11    2 1    
     5    5    4 1    
     6   33    4 1    
     7   34    4 1    
     8    6    5 ar   
     9   10    5 ar   
    10    7    6 ar   
    11   35    6 1    
    12    8    7 ar   
    13   36    7 1    
    14    9    8 ar   
    15   37    8 1    
    16   10    9 ar   
    17   38    9 1    
    18   39   10 1    
    19   12   11 1    
    20   15   11 1    
    21   13   12 1    
    22   40   12 1    
    23   41   12 1    
    24   14   13 1    
    25   42   13 1    
    26   43   13 1    
    27   16   14 1    
    28   44   14 1    
    29   45   14 1    
    30   16   15 1    
    31   46   15 1    
    32   47   15 1    
    33   17   16 1    
    34   25   16 1    
    35   18   17 2    
    36   19   17 1    
    37   20   19 2    
    38   48   19 1    
    39   21   20 1    
    40   22   20 1    
    41   23   22 ar   
    42   24   22 ar   
    43   26   25 1    
    44   49   25 1    
    45   50   25 1    
    46   27   26 ar   
    47   29   26 ar   
    48   28   27 ar   
    49   51   27 1    
    50   31   28 ar   
    51   52   28 1    
    52   30   29 ar   
    53   53   29 1    
    54   31   30 ar   
    55   54   30 1    
    56   32   31 1    
@<TRIPOS>SUBSTRUCTURE
     1 CI1801      1 GROUP   
@<TRIPOS>SET

