#    Name: 3v9v_21L_1_INTS_M
#    Modification time : Tue Mar 25 00:20:55 2014

@<TRIPOS>MOLECULE
3v9v_21L_1_INTS_M
  103     0     6     0     0
SMALL
NO_CHARGES


@<TRIPOS>ATOM
      1 CA          5.1815   45.5570   56.3160 C.3       2 GLC5        0.0000 
      2 CA          6.2430   45.6110   57.9550 C.3       6 GLL5        0.0000 
      3 CA          4.1200   45.5030   54.6770 C.3       4 GLP5        0.0000 
      4 CA          8.9025   43.5990   58.2980 C.3       2 GLC5        0.0000 
      5 CA          7.5560   45.2070   57.9930 C.3       6 GLL5        0.0000 
      6 CA         10.2490   41.9910   58.6030 C.3       4 GLP5        0.0000 
      7 CA          7.4040   43.7310   59.5775 C.3       2 GLC5        0.0000 
      8 CA          7.2520   42.2550   61.1620 C.3       4 GLP5        0.0000 
      9 CA          4.7710   49.1295   56.6670 C.3       2 GLC5        0.0000 
     10 CA          6.6220   49.2110   57.6100 C.3       6 GLL5        0.0000 
     11 CA          2.9200   49.0480   55.7240 C.3       4 GLP5        0.0000 
     12 CA         10.0565   46.4225   64.0620 C.3       2 GLC5        0.0000 
     13 CA         11.9050   46.3200   62.9370 C.3       6 GLL5        0.0000 
     14 CA          8.2080   46.5250   65.1870 C.3       4 GLP5        0.0000 
     15 CA         11.3085   49.1425   60.9470 C.3       2 GLC5        0.0000 
     16 CA         12.5720   47.3270   60.8670 C.3       6 GLL5        0.0000 
     17 CA         10.0450   50.9580   61.0270 C.3       4 GLP5        0.0000 
     18 CA         13.7450   49.4280   59.8820 C.3       2 GLC5        0.0000 
     19 CA         13.6510   47.8860   61.5070 C.3       6 GLL5        0.0000 
     20 CA         13.8390   50.9700   58.2570 C.3       4 GLP5        0.0000 
     21 CA         10.0125   47.6450   61.4170 C.3       2 GLC5        0.0000 
     22 CA         11.6940   46.5380   61.5840 C.3       6 GLL5        0.0000 
     23 CA          8.3310   48.7520   61.2500 C.3       4 GLP5        0.0000 
     24 CA         15.3010   52.4710   62.1505 C.3       2 GLC5        0.0000 
     25 CA         15.7990   50.4700   62.0690 C.3       6 GLL5        0.0000 
     26 CA         14.8030   54.4720   62.2320 C.3       4 GLP5        0.0000 
     27 CA         14.1520   50.7410   64.2940 C.3       2 GLC5        0.0000 
     28 CA         16.0420   50.3980   64.4740 C.3       6 GLL5        0.0000 
     29 CA         12.2620   51.0840   64.1140 C.3       4 GLP5        0.0000 
     30 CA         17.2950   45.9030   64.1895 C.3       2 GLC5        0.0000 
     31 CA         16.2480   47.4210   63.3100 C.3       6 GLL5        0.0000 
     32 CA         18.3420   44.3850   65.0690 C.3       4 GLP5        0.0000 
     33 CA         15.4855   45.4060   62.9705 C.3       2 GLC5        0.0000 
     34 CA         14.7230   43.3910   62.6310 C.3       4 GLP5        0.0000 
     35 CA          8.9025   46.0900   63.5050 C.3       2 GLC5        0.0000 
     36 CA          9.5970   45.6550   61.8230 C.3       6 GLL5        0.0000 
     37 CA          8.9640   47.2035   61.5365 C.3       2 GLC5        0.0000 
     38 CA          9.9555   44.2205   63.1160 C.3       2 GLC5        0.0000 
     39 CA         10.3140   42.7860   64.4090 C.3       4 GLP5        0.0000 
     40 CA          8.3115   44.5870   62.5675 C.3       2 GLC5        0.0000 
     41 CA          7.0260   43.5190   63.3120 C.3       4 GLP5        0.0000 
     42 CA          5.3005   53.7710   53.2770 C.3       2 GLC5        0.0000 
     43 CA          4.9970   51.9540   53.2500 C.3       6 GLL5        0.0000 
     44 CA          5.6040   55.5880   53.3040 C.3       4 GLP5        0.0000 
     45 CA          6.9115   51.5570   52.8600 C.3       2 GLC5        0.0000 
     46 CA          8.8260   51.1600   52.4700 C.3       4 GLP5        0.0000 
     47 CA          4.0865   51.0725   52.1440 C.3       2 GLC5        0.0000 
     48 CA          3.1760   50.1910   51.0380 C.3       4 GLP5        0.0000 
     49 CA          3.9585   50.5010   54.4870 C.3       2 GLC5        0.0000 
     50 CA          3.3235   53.1535   53.9075 C.3       2 GLC5        0.0000 
     51 CA          1.6500   54.3530   54.5650 C.3       4 GLP5        0.0000 
     52 CA          5.3660   51.7165   58.3605 C.3       2 GLC5        0.0000 
     53 CA          7.2760   51.6110   57.3860 C.3       6 GLL5        0.0000 
     54 CA          3.4560   51.8220   59.3350 C.3       4 GLP5        0.0000 
     55 CA         12.3430   49.1690   57.3150 C.3       2 GLC5        0.0000 
     56 CA         10.7170   48.0920   57.7220 C.3       6 GLL5        0.0000 
     57 CA         13.9690   50.2460   56.9080 C.3       4 GLP5        0.0000 
     58 CA         10.5240   47.9240   55.5170 C.3       2 GLC5        0.0000 
     59 CA         10.3310   47.7560   53.3120 C.3       4 GLP5        0.0000 
     60 CA          8.1020   51.6205   54.2105 C.3       2 GLC5        0.0000 
     61 CA          7.3780   52.0810   55.9510 C.3       6 GLL5        0.0000 
     62 N          13.9455   49.1650   66.6335 N.am      1 SEC2        0.0000 
     63 N          14.4230   48.9960   65.4470 N.am      5 SEL2        0.0000 
     64 N          13.4680   49.3340   67.8200 N.am      3 SEP2        0.0000 
     65 N          14.7020   50.2740   67.2435 N.am      1 SEC2        0.0000 
     66 N          15.9360   51.2140   66.6670 N.am      5 SEL2        0.0000 
     67 N          15.6880   49.7705   67.5435 N.am      1 SEC2        0.0000 
     68 N          15.4400   48.3270   68.4200 N.am      3 SEP2        0.0000 
     69 CA          7.1835   47.5175   55.8868 C.3       2 GLC5        0.0000 
     70 CA          5.9430   46.9470   57.8280 C.3       6 GLL5        0.0000 
     71 CA          7.9190   47.6220   53.9910 C.3       4 GLP5        0.0000 
     72 CA          5.2645   47.2240   56.2632 C.3       2 GLC5        0.0000 
     73 CA          6.9530   47.8790   57.7370 C.3       6 GLL5        0.0000 
     74 CA          4.0810   47.0350   54.7440 C.3       4 GLP5        0.0000 
     75 CA          8.3758   47.7815   59.5440 C.3       2 GLC5        0.0000 
     76 CA          8.2750   47.4830   57.7730 C.3       6 GLL5        0.0000 
     77 CA          8.1698   47.2165   55.9145 C.3       2 GLC5        0.0000 
     78 CA          7.4669   44.5165   56.4387 C.3       2 GLC5        0.0000 
     79 CA          8.5660   46.1390   57.9030 C.3       6 GLL5        0.0000 
     80 CA          7.2010   43.2590   54.9390 C.3       4 GLP5        0.0000 
     81 CA          7.5592   48.6485   59.4617 C.3       2 GLC5        0.0000 
     82 CA          7.5180   48.6545   55.7765 C.3       2 GLC5        0.0000 
     83 CA          8.5087   48.3637   55.8032 C.3       2 GLC5        0.0000 
     84 CA          8.9290   49.7710   57.5530 C.3       6 GLL5        0.0000 
     85 CA         12.1917   44.8025   64.1970 C.3       2 GLC5        0.0000 
     86 CA         12.9940   46.8940   63.5610 C.3       6 GLL5        0.0000 
     87 CA         11.9340   42.9980   65.1450 C.3       4 GLP5        0.0000 
     88 CA          5.7275   46.9360   59.6661 C.3       2 GLC5        0.0000 
     89 CA          4.9320   46.7930   61.5180 C.3       4 GLP5        0.0000 
     90 CA         13.9401   45.2672   62.8383 C.3       2 GLC5        0.0000 
     91 CA         13.8650   47.6800   62.8420 C.3       6 GLL5        0.0000 
     92 CA          9.1618   48.5090   59.4750 C.3       2 GLC5        0.0000 
     93 CA         13.0114   45.5431   60.6587 C.3       2 GLC5        0.0000 
     94 CA         13.6200   44.0140   59.9320 C.3       4 GLP5        0.0000 
     95 CA         12.8190   49.2113   63.4909 C.3       2 GLC5        0.0000 
     96 CA         14.6750   50.4200   60.1570 C.3       2 GLC5        0.0000 
     97 CA         15.2230   49.2700   62.0450 C.3       6 GLL5        0.0000 
     98 CA         13.7835   50.1085   63.3810 C.3       2 GLC5        0.0000 
     99 CA          8.1761   50.6555   59.2279 C.3       2 GLC5        0.0000 
    100 CA          7.6120   50.1630   57.5140 C.3       6 GLL5        0.0000 
    101 CA          8.5790   50.5220   60.9960 C.3       4 GLP5        0.0000 
    102 CA          8.7325   53.2300   56.6688 C.3       2 GLC5        0.0000 
    103 CA         10.1380   54.6140   56.6690 C.3       4 GLP5        0.0000 
@<TRIPOS>BOND
@<TRIPOS>SUBSTRUCTURE
     1 SEC2       62 GROUP        1 X    SEC  0     ROOT SEC X 2
     2 GLC5        1 GROUP        1 X    GLC  0     **** GLC X 6
     3 SEP2       64 GROUP        1 Y    SEP  0     ROOT SEP Y 9
     4 GLP5        3 GROUP        1 Y    GLP  0     **** GLP Y 13
     5 SEL2       63 GROUP        1 Z    SEL  0     ROOT SEL Z 16
     6 GLL5        2 GROUP        1 Z    GLL  0     **** GLL Z 20
@<TRIPOS>SET

