#    Name: 3v9v_21L_1_ligand
#    Modification time : Tue Mar 25 00:20:55 2014

@<TRIPOS>MOLECULE
3v9v_21L_1_ligand
   70    74     1     0     0
SMALL
NO_CHARGES


@<TRIPOS>ATOM
      1 C1          6.2430   45.6110   57.9550 C.ar      1 21L501      0.0000 
      2 C2          7.5560   45.2070   57.9930 C.ar      1 21L501      0.0000 
      3 C3          5.9430   46.9470   57.8280 C.ar      1 21L501      0.0000 
      4 C4          8.5660   46.1390   57.9030 C.ar      1 21L501      0.0000 
      5 C5          6.6220   49.2110   57.6100 C.ar      1 21L501      0.0000 
      6 C6          8.9290   49.7710   57.5530 C.ar      1 21L501      0.0000 
      7 C7         11.9050   46.3200   62.9370 C.ar      1 21L501      0.0000 
      8 C8          6.9530   47.8790   57.7370 C.ar      1 21L501      0.0000 
      9 C9          8.2750   47.4830   57.7730 C.ar      1 21L501      0.0000 
     10 C10        12.5720   47.3270   60.8670 C.ar      1 21L501      0.0000 
     11 C11        13.8650   47.6800   62.8420 C.ar      1 21L501      0.0000 
     12 C12         7.6120   50.1630   57.5140 C.ar      1 21L501      0.0000 
     13 C13         9.2680   48.4400   57.6780 C.ar      1 21L501      0.0000 
     14 C14        13.6510   47.8860   61.5070 C.ar      1 21L501      0.0000 
     15 C15        11.6940   46.5380   61.5840 C.ar      1 21L501      0.0000 
     16 C16        12.9940   46.8940   63.5610 C.ar      1 21L501      0.0000 
     17 C17        15.7990   50.4700   62.0690 C.2       1 21L501      0.0000 
     18 C18        16.0420   50.3980   64.4740 C.2       1 21L501      0.0000 
     19 C19        16.3520   50.9560   63.2940 C.2       1 21L501      0.0000 
     20 C20        15.2230   49.2700   62.0450 C.2       1 21L501      0.0000 
     21 C21        15.1110   49.2460   64.4710 C.2       1 21L501      0.0000 
     22 C22        12.3780   47.5700   59.4340 C.2       1 21L501      0.0000 
     23 C23        16.6390   50.9560   65.7000 C.2       1 21L501      0.0000 
     24 C24         6.1200   51.7590   55.2100 C.2       1 21L501      0.0000 
     25 C25        15.0990   48.3960   63.2390 C.3       1 21L501      0.0000 
     26 C26        18.1190   51.1710   65.6990 C.3       1 21L501      0.0000 
     27 C27        16.2480   47.4210   63.3100 C.3       1 21L501      0.0000 
     28 C28         9.5970   45.6550   61.8230 C.3       1 21L501      0.0000 
     29 C29         4.9970   51.9540   53.2500 C.3       1 21L501      0.0000 
     30 C30         7.2760   51.6110   57.3860 C.3       1 21L501      0.0000 
     31 C31        10.7170   48.0920   57.7220 C.3       1 21L501      0.0000 
     32 C32         7.3780   52.0810   55.9510 C.3       1 21L501      0.0000 
     33 N33        11.0780   47.8450   59.0960 N.am      1 21L501      0.0000 
     34 O34        14.4230   48.9960   65.4470 O.2       1 21L501      0.0000 
     35 O35        13.3340   47.5090   58.6760 O.2       1 21L501      0.0000 
     36 O36        15.9360   51.2140   66.6670 O.2       1 21L501      0.0000 
     37 O37         5.1340   51.2190   55.6860 O.2       1 21L501      0.0000 
     38 O38        14.6170   48.6970   60.9410 O.3       1 21L501      0.0000 
     39 O39        13.1960   46.6740   64.9050 O.3       1 21L501      0.0000 
     40 O40        17.1940   52.0310   63.1400 O.co2     1 21L501      0.0000 
     41 O41        10.6220   45.9880   60.8970 O.3       1 21L501      0.0000 
     42 O42         6.2340   52.1550   53.9180 O.3       1 21L501      0.0000 
     43 H           5.4844   44.9144   58.0215 H         1 21L501      0.0000 
     44 H           7.7868   44.2045   58.0890 H         1 21L501      0.0000 
     45 H           4.9553   47.2542   57.8006 H         1 21L501      0.0000 
     46 H           9.5553   45.8305   57.9330 H         1 21L501      0.0000 
     47 H           5.6286   49.4950   57.5869 H         1 21L501      0.0000 
     48 H           9.6805   50.4854   57.4876 H         1 21L501      0.0000 
     49 H          11.2508   45.7324   63.4710 H         1 21L501      0.0000 
     50 H          15.8677   51.0740   61.2402 H         1 21L501      0.0000 
     51 H           7.9579   52.2072   58.0056 H         1 21L501      0.0000 
     52 H           6.2553   51.7893   57.7477 H         1 21L501      0.0000 
     53 H          11.2950   48.9204   57.3080 H         1 21L501      0.0000 
     54 H          10.8896   47.2071   57.1065 H         1 21L501      0.0000 
     55 H           7.5504   53.1588   55.9388 H         1 21L501      0.0000 
     56 H           8.2268   51.5888   55.4727 H         1 21L501      0.0000 
     57 H          10.3342   47.8824   59.8025 H         1 21L501      0.0000 
     58 H          18.6181   50.3180   65.5466 H         1 21L501      0.0000 
     59 H          18.4013   51.8079   64.9816 H         1 21L501      0.0000 
     60 H          18.4402   51.5473   66.5680 H         1 21L501      0.0000 
     61 H          17.1002   47.8702   63.5783 H         1 21L501      0.0000 
     62 H          16.0777   46.6942   63.9754 H         1 21L501      0.0000 
     63 H          16.4146   46.9786   62.4288 H         1 21L501      0.0000 
     64 H           9.9106   44.9902   62.5010 H         1 21L501      0.0000 
     65 H           9.2759   46.4574   62.3260 H         1 21L501      0.0000 
     66 H           8.8007   45.2563   61.3681 H         1 21L501      0.0000 
     67 H           5.0418   52.2376   52.2921 H         1 21L501      0.0000 
     68 H           4.7223   50.9925   53.2584 H         1 21L501      0.0000 
     69 H           4.2564   52.4742   53.6754 H         1 21L501      0.0000 
     70 H          13.6423   47.5043   65.2388 H         1 21L501      0.0000 
@<TRIPOS>BOND
     1    2    1 ar   
     2    3    1 ar   
     3   43    1 1    
     4    4    2 ar   
     5   44    2 1    
     6    8    3 ar   
     7   45    3 1    
     8    9    4 ar   
     9   46    4 1    
    10    8    5 ar   
    11   12    5 ar   
    12   47    5 1    
    13   12    6 ar   
    14   13    6 ar   
    15   48    6 1    
    16   15    7 ar   
    17   16    7 ar   
    18   49    7 1    
    19    9    8 ar   
    20   13    9 ar   
    21   14   10 ar   
    22   15   10 ar   
    23   22   10 1    
    24   14   11 ar   
    25   16   11 ar   
    26   25   11 1    
    27   30   12 1    
    28   31   13 1    
    29   38   14 1    
    30   41   15 1    
    31   39   16 1    
    32   19   17 1    
    33   20   17 2    
    34   50   17 1    
    35   19   18 2    
    36   21   18 1    
    37   23   18 1    
    38   40   19 ar   
    39   25   20 1    
    40   38   20 1    
    41   25   21 1    
    42   34   21 2    
    43   33   22 am   
    44   35   22 2    
    45   26   23 1    
    46   36   23 2    
    47   32   24 1    
    48   37   24 2    
    49   42   24 1    
    50   27   25 1    
    51   58   26 1    
    52   59   26 1    
    53   60   26 1    
    54   61   27 1    
    55   62   27 1    
    56   63   27 1    
    57   41   28 1    
    58   64   28 1    
    59   65   28 1    
    60   66   28 1    
    61   42   29 1    
    62   67   29 1    
    63   68   29 1    
    64   69   29 1    
    65   32   30 1    
    66   51   30 1    
    67   52   30 1    
    68   33   31 1    
    69   53   31 1    
    70   54   31 1    
    71   55   32 1    
    72   56   32 1    
    73   57   33 1    
    74   70   39 1    
@<TRIPOS>SUBSTRUCTURE
     1 21L501      1 GROUP   
@<TRIPOS>SET

