#    Name: 2BP1_3_CAVITY_N1_6.mol2
#    Modification time : Tue Mar 11 04:31:01 2014

@<TRIPOS>MOLECULE
2BP1_3_CAVITY_N1_6.mol2
   69     0     6     0     0
SMALL
NO_CHARGES


@<TRIPOS>ATOM
      1 CA        -52.2848    8.8873  -31.5145 C.3       5 GLY6        0.0000 
      2 CA        -51.0289    8.0730  -31.6121 C.3       5 GLY6        0.0000 
      3 CZ        -53.3356   10.1864  -32.8214 C.ar      4 PHE5        0.0000 
      4 OG        -52.0797    9.3721  -32.9191 O.2       1 SER1        0.0000 
      5 CA        -46.6456    7.0846  -36.1188 C.3       5 GLY6        0.0000 
      6 CA        -45.3897    6.2703  -36.2164 C.3       5 GLY6        0.0000 
      7 O         -48.9524    9.1980  -37.3281 O.2       2 ALA2        0.0000 
      8 CA        -47.6964    8.3837  -37.4257 C.3       5 GLY6        0.0000 
      9 CA        -46.4405    7.5694  -37.5234 C.3       5 GLY6        0.0000 
     10 N         -45.1845    6.7551  -37.6210 N.2       2 ALA2        0.0000 
     11 O         -48.7472    9.6828  -38.7327 O.2       2 ALA2        0.0000 
     12 O         -47.4913    8.8685  -38.8303 O.2       2 ALA2        0.0000 
     13 CA        -46.2353    8.0543  -38.9280 C.3       5 GLY6        0.0000 
     14 CA        -52.1578   11.5421  -28.9776 C.3       5 GLY6        0.0000 
     15 O         -53.2086   12.8413  -30.2846 O.2       2 ALA2        0.0000 
     16 O         -51.9527   12.0270  -30.3822 O.2       2 ALA2        0.0000 
     17 CA        -50.6967   11.2127  -30.4799 C.3       5 GLY6        0.0000 
     18 O         -53.0035   13.3261  -31.6892 O.2       2 ALA2        0.0000 
     19 O         -51.7475   12.5118  -31.7868 O.2       2 ALA2        0.0000 
     20 O         -50.4916   11.6975  -31.8844 O.2       2 ALA2        0.0000 
     21 OG        -49.2356   10.8832  -31.9821 O.2       1 SER1        0.0000 
     22 O         -51.5424   12.9966  -33.1914 O.2       2 ALA2        0.0000 
     23 OG        -50.2864   12.1823  -33.2890 O.2       1 SER1        0.0000 
     24 DU        -49.0305   11.3680  -33.3867 H         6 CUB7        0.0000 
     25 OG        -47.7745   10.5538  -33.4843 O.2       1 SER1        0.0000 
     26 CZ        -50.0813   12.6672  -34.6936 C.ar      4 PHE5        0.0000 
     27 CZ        -48.8254   11.8529  -34.7913 C.ar      4 PHE5        0.0000 
     28 CZ        -47.5694   11.0386  -34.8889 C.ar      4 PHE5        0.0000 
     29 OG        -46.3135   10.2243  -34.9865 O.2       1 SER1        0.0000 
     30 NZ        -45.0575    9.4100  -35.0842 N.2       3 LYS4        0.0000 
     31 CA        -44.8524    9.8948  -36.4888 C.3       5 GLY6        0.0000 
     32 CA        -52.7467   10.8643  -30.8995 C.3       5 GLY6        0.0000 
     33 CA        -51.4908   10.0500  -30.9972 C.3       5 GLY6        0.0000 
     34 O         -53.7975   12.1634  -32.2065 O.2       2 ALA2        0.0000 
     35 CZ        -52.5416   11.3491  -32.3041 C.ar      4 PHE5        0.0000 
     36 OG        -51.2856   10.5348  -32.4017 O.2       1 SER1        0.0000 
     37 CA        -50.0297    9.7205  -32.4994 C.3       5 GLY6        0.0000 
     38 OG        -52.3364   11.8339  -33.7087 O.2       1 SER1        0.0000 
     39 OG        -51.0805   11.0196  -33.8063 O.2       1 SER1        0.0000 
     40 CA        -49.8245   10.2053  -33.9040 C.3       5 GLY6        0.0000 
     41 CA        -46.0567    7.7625  -34.1969 C.3       5 GLY6        0.0000 
     42 OG        -49.6194   10.6902  -35.3086 O.2       1 SER1        0.0000 
     43 CA        -48.3635    9.8759  -35.4062 C.3       5 GLY6        0.0000 
     44 CA        -47.1075    9.0616  -35.5038 C.3       5 GLY6        0.0000 
     45 CA        -45.8516    8.2473  -35.6015 C.3       5 GLY6        0.0000 
     46 CA        -44.5956    7.4330  -35.6991 C.3       5 GLY6        0.0000 
     47 O         -48.1583   10.3607  -36.8108 O.2       2 ALA2        0.0000 
     48 CA        -46.9024    9.5464  -36.9084 C.3       5 GLY6        0.0000 
     49 CA        -45.6464    8.7321  -37.0061 C.3       5 GLY6        0.0000 
     50 CA        -44.3905    7.9178  -37.1037 C.3       5 GLY6        0.0000 
     51 O         -46.6972   10.0312  -38.3130 O.2       2 ALA2        0.0000 
     52 N         -45.4413    9.2170  -38.4107 N.2       2 ALA2        0.0000 
     53 O         -47.4424   13.6934  -32.3521 O.2       2 ALA2        0.0000 
     54 N         -46.1864   12.8792  -32.4497 N.2       2 ALA2        0.0000 
     55 CZ        -45.9813   13.3640  -33.8543 C.ar      4 PHE5        0.0000 
     56 O         -52.6197   13.5191  -28.3627 O.2       2 ALA2        0.0000 
     57 N         -49.9027   12.3754  -29.9625 N.2       2 ALA2        0.0000 
     58 O         -49.6975   12.8602  -31.3671 O.2       2 ALA2        0.0000 
     59 N         -48.4416   12.0459  -31.4648 N.2       2 ALA2        0.0000 
     60 O         -49.4924   13.3450  -32.7717 O.2       2 ALA2        0.0000 
     61 DU        -48.2364   12.5307  -32.8694 H         6 CUB7        0.0000 
     62 OG        -46.9805   11.7165  -32.9670 O.2       1 SER1        0.0000 
     63 CZ        -48.0313   13.0156  -34.2739 C.ar      4 PHE5        0.0000 
     64 CZ        -46.7754   12.2013  -34.3716 C.ar      4 PHE5        0.0000 
     65 N         -45.5194   11.3870  -34.4692 N.2       2 ALA2        0.0000 
     66 CZ        -52.8737    8.2094  -33.4364 C.ar      4 PHE5        0.0000 
     67 O         -48.4905    7.2210  -37.9430 O.2       2 ALA2        0.0000 
     68 CA        -47.2345    6.4067  -38.0407 C.3       5 GLY6        0.0000 
     69 CA        -48.2853    7.7058  -39.3476 C.3       5 GLY6        0.0000 
@<TRIPOS>BOND
@<TRIPOS>SUBSTRUCTURE
     1 SER1        4 GROUP   
     2 ALA2        7 GROUP   
     3 LYS4       30 GROUP   
     4 PHE5        3 GROUP   
     5 GLY6        1 GROUP   
     6 CUB7       24 GROUP   
@<TRIPOS>SET

