#    Name: 2bp1_NDP_3_INTS_M
#    Modification time : Mon Mar 24 21:23:47 2014

@<TRIPOS>MOLECULE
2bp1_NDP_3_INTS_M
  116     0    12     0     0
SMALL
NO_CHARGES


@<TRIPOS>ATOM
      1 N         -49.2010   10.0510  -43.3815 N.am      2 SEC2        0.0000 
      2 N         -49.5050    9.4370  -42.1390 N.am     10 SEL2        0.0000 
      3 N         -48.8970   10.6650  -44.6240 N.am      6 SEP2        0.0000 
      4 N         -50.9985    9.7830  -42.0790 N.am      2 SEC2        0.0000 
      5 N         -52.4920   10.1290  -42.0190 N.am      6 SEP2        0.0000 
      6 CA        -47.8665    5.5820  -40.8580 C.3       4 GLC5        0.0000 
      7 CA        -49.7940    5.8390  -41.1500 C.3      12 GLL5        0.0000 
      8 CA        -45.9390    5.3250  -40.5660 C.3       8 GLP5        0.0000 
      9 CA        -52.2700    5.9295  -42.9085 C.3       4 GLC5        0.0000 
     10 CA        -50.9970    4.9700  -41.3800 C.3      12 GLL5        0.0000 
     11 CA        -53.5430    6.8890  -44.4370 C.3       8 GLP5        0.0000 
     12 CA        -48.9880    2.6565  -41.0610 C.3       4 GLC5        0.0000 
     13 CA        -50.7090    3.5030  -41.1160 C.3      12 GLL5        0.0000 
     14 CA        -47.2670    1.8100  -41.0060 C.3       8 GLP5        0.0000 
     15 N         -50.9280    4.5150  -38.8730 N.am      2 SEC2        0.0000 
     16 N         -50.8310    3.1570  -39.7560 N.am     10 SEL2        0.0000 
     17 N         -51.0250    5.8730  -37.9900 N.am      6 SEP2        0.0000 
     18 CA        -52.6525    5.3420  -43.8180 C.3       4 GLC5        0.0000 
     19 CA        -51.7620    3.7950  -43.1990 C.3      12 GLL5        0.0000 
     20 N         -47.3500    3.3760  -45.3490 N.am      2 SEC2        0.0000 
     21 N         -48.8160    3.0690  -45.2780 N.am     10 SEL2        0.0000 
     22 N         -45.8840    3.6830  -45.4200 N.am      6 SEP2        0.0000 
     23 CA        -49.2315    4.5385  -46.1920 C.3       4 GLC5        0.0000 
     24 CA        -49.7850    2.4680  -45.9910 C.3      12 GLL5        0.0000 
     25 CA        -48.6780    6.6090  -46.3930 C.3       8 GLP5        0.0000 
     26 O         -48.5875    0.9605  -49.2040 O.2       1 ALC1        0.0000 
     27 O         -48.6580    1.7680  -47.9700 O.2       9 ALL1        0.0000 
     28 O         -48.5170    0.1530  -50.4380 O.2       5 ALP1        0.0000 
     29 O         -47.4295    2.5680  -47.7970 O.2       1 ALC1        0.0000 
     30 O         -46.2010    3.3680  -47.6240 O.2       5 ALP1        0.0000 
     31 CA        -52.1055    3.2585  -47.4985 C.3       4 GLC5        0.0000 
     32 CA        -52.1100    1.4460  -46.9860 C.3      12 GLL5        0.0000 
     33 CA        -52.1010    5.0710  -48.0110 C.3       8 GLP5        0.0000 
     34 CA        -54.0455    1.8845  -46.9445 C.3       4 GLC5        0.0000 
     35 CA        -55.9810    2.3230  -46.9030 C.3       8 GLP5        0.0000 
     36 CA        -50.8475    0.2860  -45.8895 C.3       4 GLC5        0.0000 
     37 CA        -49.5850   -0.8740  -44.7930 C.3       8 GLP5        0.0000 
     38 N         -53.4975    1.9260  -45.2835 N.am      2 SEC2        0.0000 
     39 N         -52.1460    2.1430  -45.8040 N.am     10 SEL2        0.0000 
     40 N         -54.8490    1.7090  -44.7630 N.am      6 SEP2        0.0000 
     41 NZ        -49.7515    6.4945  -38.1565 N.4       3 LYC4        0.0000 
     42 NZ        -48.4780    7.1160  -38.3230 N.4      11 LYL4        0.0000 
     43 NZ        -52.0730    6.6200  -37.6940 N.4       7 LYP4        0.0000 
     44 N         -49.7515    6.4945  -38.1565 N.am      2 SEC2        0.0000 
     45 N         -48.4780    7.1160  -38.3230 N.am     10 SEL2        0.0000 
     46 NZ        -50.8030    8.6300  -38.2970 N.4       3 LYC4        0.0000 
     47 NZ        -49.6320    9.3250  -38.8760 N.4      11 LYL4        0.0000 
     48 N         -49.9860   10.4970  -38.5785 N.am      2 SEC2        0.0000 
     49 N         -49.6320    9.3250  -38.8760 N.am     10 SEL2        0.0000 
     50 N         -50.3400   11.6690  -38.2810 N.am      6 SEP2        0.0000 
     51 N         -50.8030    8.6300  -38.2970 N.am      2 SEC2        0.0000 
     52 N         -51.9740    7.9350  -37.7180 N.am      6 SEP2        0.0000 
     53 N         -47.3675   10.7605  -39.1090 N.am      2 SEC2        0.0000 
     54 N         -47.1020    9.1990  -38.5320 N.am     10 SEL2        0.0000 
     55 N         -47.6330   12.3220  -39.6860 N.am      6 SEP2        0.0000 
     56 CA        -46.1725    9.6580  -40.2155 C.3       4 GLC5        0.0000 
     57 CA        -45.9490    8.3960  -38.4590 C.3      12 GLL5        0.0000 
     58 CA        -46.3960   10.9200  -41.9720 C.3       8 GLP5        0.0000 
     59 CA        -45.9440    6.8605  -39.5125 C.3       4 GLC5        0.0000 
     60 N         -45.4495    5.1320  -34.6640 N.am      2 SEC2        0.0000 
     61 N         -45.3660    6.2960  -35.8840 N.am     10 SEL2        0.0000 
     62 N         -45.5330    3.9680  -33.4440 N.am      6 SEP2        0.0000 
     63 CA        -45.6060    8.3630  -32.8015 C.3       4 GLC5        0.0000 
     64 CA        -45.2830    8.3650  -34.7790 C.3      12 GLL5        0.0000 
     65 CA        -45.9290    8.3610  -30.8240 C.3       8 GLP5        0.0000 
     66 O         -43.0885    8.7180  -33.8230 O.2       1 ALC1        0.0000 
     67 O         -44.0150    7.8300  -34.4570 O.2       9 ALL1        0.0000 
     68 O         -42.1620    9.6060  -33.1890 O.2       5 ALP1        0.0000 
     69 CA        -45.4280   11.3650  -36.3560 C.3       4 GLC5        0.0000 
     70 CA        -45.1580    9.8070  -35.2540 C.3      12 GLL5        0.0000 
     71 CA        -45.6980   12.9230  -37.4580 C.3       8 GLP5        0.0000 
     72 CA        -43.5515    9.4650  -36.5125 C.3       4 GLC5        0.0000 
     73 CA        -41.9450    9.1230  -37.7710 C.3       8 GLP5        0.0000 
     74 N         -47.8850   15.6150  -31.4835 N.am      2 SEC2        0.0000 
     75 N         -47.9800   14.2740  -32.0020 N.am     10 SEL2        0.0000 
     76 N         -47.7900   16.9560  -30.9650 N.am      6 SEP2        0.0000 
     77 O         -45.2050   15.3575  -32.1240 O.2       1 ALC1        0.0000 
     78 O         -45.6110   13.9660  -32.3030 O.2       9 ALL1        0.0000 
     79 O         -44.7990   16.7490  -31.9450 O.2       5 ALP1        0.0000 
     80 O         -44.4845   13.3250  -33.0285 O.2       1 ALC1        0.0000 
     81 O         -43.3580   12.6840  -33.7540 O.2       5 ALP1        0.0000 
     82 NZ        -54.1405    1.1960  -43.2580 N.4       3 LYC4        0.0000 
     83 NZ        -53.4320    0.6830  -41.7530 N.4      11 LYL4        0.0000 
     84 NZ        -54.8490    1.7090  -44.7630 N.4       7 LYP4        0.0000 
     85 N         -54.1405    1.1960  -43.2580 N.am      2 SEC2        0.0000 
     86 N         -53.4320    0.6830  -41.7530 N.am     10 SEL2        0.0000 
     87 N         -52.5360   -0.0310  -41.1180 N.am      2 SEC2        0.0000 
     88 N         -51.6400   -0.7450  -40.4830 N.am      6 SEP2        0.0000 
     89 N         -52.5760    0.0960  -42.7090 N.am      2 SEC2        0.0000 
     90 N         -51.7200   -0.4910  -43.6650 N.am      6 SEP2        0.0000 
     91 N         -55.7315    2.5635  -39.2215 N.am      2 SEC2        0.0000 
     92 N         -54.5110    1.6650  -39.6920 N.am     10 SEL2        0.0000 
     93 N         -56.9520    3.4620  -38.7510 N.am      6 SEP2        0.0000 
     94 NZ        -55.0895    1.9970  -43.3335 N.4       3 LYC4        0.0000 
     95 NZ        -55.3300    2.2850  -41.9040 N.4      11 LYL4        0.0000 
     96 N         -55.0895    1.9970  -43.3335 N.am      2 SEC2        0.0000 
     97 N         -55.3300    2.2850  -41.9040 N.am     10 SEL2        0.0000 
     98 CA        -51.7033    7.1783  -41.2720 C.3       4 GLC5        0.0000 
     99 CA        -53.0110    8.9520  -41.2790 C.3       8 GLP5        0.0000 
    100 CA        -51.1543    1.3450  -40.3805 C.3       4 GLC5        0.0000 
    101 CA        -51.0620   -0.5160  -39.2220 C.3       8 GLP5        0.0000 
    102 CA        -51.2403    3.7234  -46.9815 C.3       4 GLC5        0.0000 
    103 CA        -49.9823    0.7509  -45.3725 C.3       4 GLC5        0.0000 
    104 CA        -50.9960    2.6410  -45.3160 C.3      12 GLL5        0.0000 
    105 CA        -43.7613    8.7635  -37.7810 C.3       4 GLC5        0.0000 
    106 CA        -46.5295    6.6608  -34.4612 C.3       4 GLC5        0.0000 
    107 CA        -45.8090    7.6260  -35.9720 C.3      12 GLL5        0.0000 
    108 CA        -47.5130    5.3260  -33.5470 C.3       8 GLP5        0.0000 
    109 CA        -43.9856    6.9450  -36.1216 C.3       4 GLC5        0.0000 
    110 CA        -42.5760    5.6980  -36.5800 C.3       8 GLP5        0.0000 
    111 CA        -46.1522   12.5177  -35.6185 C.3       4 GLC5        0.0000 
    112 CA        -46.1170   11.6320  -33.9030 C.3      12 GLL5        0.0000 
    113 CA        -48.6820    9.0983  -34.5938 C.3       4 GLC5        0.0000 
    114 CA        -47.5530   10.4470  -35.3910 C.3      12 GLL5        0.0000 
    115 CA        -49.2650    7.3490  -33.9470 C.3       8 GLP5        0.0000 
    116 CA        -46.8810   12.0224  -36.2240 C.3       4 GLC5        0.0000 
@<TRIPOS>BOND
@<TRIPOS>SUBSTRUCTURE
     1 ALC1       26 GROUP        1 X    ALC  0     ROOT ALC X 1
     2 SEC2        1 GROUP        1 X    SEC  0     **** SEC X 2
     3 LYC4       41 GROUP        1 X    LYC  0     **** LYC X 4
     4 GLC5        6 GROUP        1 X    GLC  0     **** GLC X 6
     5 ALP1       28 GROUP        1 Y    ALP  0     ROOT ALP Y 8
     6 SEP2        3 GROUP        1 Y    SEP  0     **** SEP Y 9
     7 LYP4       43 GROUP        1 Y    LYP  0     **** LYP Y 11
     8 GLP5        8 GROUP        1 Y    GLP  0     **** GLP Y 13
     9 ALL1       27 GROUP        1 Z    ALL  0     ROOT ALL Z 15
    10 SEL2        2 GROUP        1 Z    SEL  0     **** SEL Z 16
    11 LYL4       42 GROUP        1 Z    LYL  0     **** LYL Z 18
    12 GLL5        7 GROUP        1 Z    GLL  0     **** GLL Z 20
@<TRIPOS>SET

