#    Name: 2bp1_NDP_3_ligand
#    Modification time : Mon Mar 24 21:23:47 2014

@<TRIPOS>MOLECULE
2bp1_NDP_3_ligand
   74    78     1     0     0
SMALL
NO_CHARGES


@<TRIPOS>ATOM
      1 PA        -48.9240    8.1340  -41.8070 P.3       1 NDP1361     0.0000 
      2 O1A       -49.5050    9.4370  -42.1390 O.co2     1 NDP1361     0.0000 
      3 O2A       -48.0570    7.6170  -42.8990 O.co2     1 NDP1361     0.0000 
      4 O5B       -50.1440    7.1490  -41.4900 O.3       1 NDP1361     0.0000 
      5 C5B       -49.7940    5.8390  -41.1500 C.3       1 NDP1361     0.0000 
      6 C4B       -50.9970    4.9700  -41.3800 C.3       1 NDP1361     0.0000 
      7 O4B       -51.4120    5.0760  -42.7270 O.3       1 NDP1361     0.0000 
      8 C3B       -50.7090    3.5030  -41.1160 C.3       1 NDP1361     0.0000 
      9 O3B       -50.8310    3.1570  -39.7560 O.3       1 NDP1361     0.0000 
     10 C2B       -51.7840    2.9090  -41.9620 C.3       1 NDP1361     0.0000 
     11 O2B       -53.0030    3.0420  -41.2570 O.3       1 NDP1361     0.0000 
     12 C1B       -51.7620    3.7950  -43.1990 C.3       1 NDP1361     0.0000 
     13 N9A       -50.7520    3.3620  -44.1870 N.pl3     1 NDP1361     0.0000 
     14 C8A       -49.3950    3.6140  -44.1740 C.2       1 NDP1361     0.0000 
     15 N7A       -48.8160    3.0690  -45.2780 N.2       1 NDP1361     0.0000 
     16 C5A       -49.7850    2.4680  -45.9910 C.ar      1 NDP1361     0.0000 
     17 C6A       -49.7410    1.7530  -47.1850 C.ar      1 NDP1361     0.0000 
     18 N6A       -48.6580    1.7680  -47.9700 N.pl3     1 NDP1361     0.0000 
     19 N1A       -50.9200    1.2460  -47.6630 N.ar      1 NDP1361     0.0000 
     20 C2A       -52.1100    1.4460  -46.9860 C.ar      1 NDP1361     0.0000 
     21 N3A       -52.1460    2.1430  -45.8040 N.ar      1 NDP1361     0.0000 
     22 C4A       -50.9960    2.6410  -45.3160 C.ar      1 NDP1361     0.0000 
     23 O3        -48.0190    8.1010  -40.4750 O.3       1 NDP1361     0.0000 
     24 PN        -48.4410    8.4250  -38.9490 P.3       1 NDP1361     0.0000 
     25 O1N       -48.4780    7.1160  -38.3230 O.co2     1 NDP1361     0.0000 
     26 O2N       -49.6320    9.3250  -38.8760 O.co2     1 NDP1361     0.0000 
     27 O5D       -47.1020    9.1990  -38.5320 O.3       1 NDP1361     0.0000 
     28 C5D       -45.9490    8.3960  -38.4590 C.3       1 NDP1361     0.0000 
     29 C4D       -45.2060    8.4120  -37.1230 C.3       1 NDP1361     0.0000 
     30 O4D       -45.0340    9.7370  -36.6640 O.3       1 NDP1361     0.0000 
     31 C3D       -45.8090    7.6260  -35.9720 C.3       1 NDP1361     0.0000 
     32 O3D       -45.3660    6.2960  -35.8840 O.3       1 NDP1361     0.0000 
     33 C2D       -45.2830    8.3650  -34.7790 C.3       1 NDP1361     0.0000 
     34 O2D       -44.0150    7.8300  -34.4570 O.3       1 NDP1361     0.0000 
     35 C1D       -45.1580    9.8070  -35.2540 C.3       1 NDP1361     0.0000 
     36 N1N       -46.3220   10.6420  -34.8360 N.pl3     1 NDP1361     0.0000 
     37 C2N       -46.1170   11.6320  -33.9030 C.2       1 NDP1361     0.0000 
     38 C3N       -47.0960   12.5930  -33.6550 C.2       1 NDP1361     0.0000 
     39 C7N       -46.8750   13.6330  -32.5940 C.2       1 NDP1361     0.0000 
     40 O7N       -47.9800   14.2740  -32.0020 O.2       1 NDP1361     0.0000 
     41 N7N       -45.6110   13.9660  -32.3030 N.am      1 NDP1361     0.0000 
     42 C4N       -48.5050   12.3450  -34.0880 C.3       1 NDP1361     0.0000 
     43 C5N       -48.6450   11.2480  -35.0900 C.2       1 NDP1361     0.0000 
     44 C6N       -47.5530   10.4470  -35.3910 C.2       1 NDP1361     0.0000 
     45 P2B       -54.1010    1.8850  -41.1230 P.3       1 NDP1361     0.0000 
     46 O1X       -53.4320    0.6830  -41.7530 O.co2     1 NDP1361     0.0000 
     47 O2X       -54.5110    1.6650  -39.6920 O.co2     1 NDP1361     0.0000 
     48 O3X       -55.3300    2.2850  -41.9040 O.co2     1 NDP1361     0.0000 
     49 H         -49.5032    5.7457  -40.0990 H         1 NDP1361     0.0000 
     50 H         -48.9744    5.4546  -41.7651 H         1 NDP1361     0.0000 
     51 H         -51.7909    5.2791  -40.7126 H         1 NDP1361     0.0000 
     52 H         -49.7737    3.2776  -41.5610 H         1 NDP1361     0.0000 
     53 H         -51.5286    1.9355  -42.2226 H         1 NDP1361     0.0000 
     54 H         -52.7385    3.7981  -43.6297 H         1 NDP1361     0.0000 
     55 H         -48.9358    4.1048  -43.4801 H         1 NDP1361     0.0000 
     56 H         -48.1285    2.6163  -47.9732 H         1 NDP1361     0.0000 
     57 H         -48.4749    0.9295  -48.4832 H         1 NDP1361     0.0000 
     58 H         -52.9903    1.0595  -47.3837 H         1 NDP1361     0.0000 
     59 H         -45.1992    8.6804  -39.2485 H         1 NDP1361     0.0000 
     60 H         -46.1832    7.3187  -38.6849 H         1 NDP1361     0.0000 
     61 H         -44.1907    7.9800  -37.3046 H         1 NDP1361     0.0000 
     62 H         -46.8599    7.7423  -35.9899 H         1 NDP1361     0.0000 
     63 H         -45.9837    8.3150  -34.0011 H         1 NDP1361     0.0000 
     64 H         -44.2466   10.2074  -34.8166 H         1 NDP1361     0.0000 
     65 H         -45.2272   11.6708  -33.3742 H         1 NDP1361     0.0000 
     66 H         -45.4920   14.6910  -31.6246 H         1 NDP1361     0.0000 
     67 H         -44.8993   13.4598  -32.7902 H         1 NDP1361     0.0000 
     68 H         -48.9255   13.2809  -34.5101 H         1 NDP1361     0.0000 
     69 H         -49.1223   12.1070  -33.1974 H         1 NDP1361     0.0000 
     70 H         -49.5511   11.1266  -35.5220 H         1 NDP1361     0.0000 
     71 H         -47.6895    9.6604  -36.0756 H         1 NDP1361     0.0000 
     72 H         -51.8157    3.1257  -39.5844 H         1 NDP1361     0.0000 
     73 H         -44.6305    6.3126  -35.2068 H         1 NDP1361     0.0000 
     74 H         -43.3908    8.6108  -34.4822 H         1 NDP1361     0.0000 
@<TRIPOS>BOND
     1    2    1 ar   
     2    3    1 ar   
     3    4    1 1    
     4   23    1 1    
     5    5    4 1    
     6    6    5 1    
     7   49    5 1    
     8   50    5 1    
     9    7    6 1    
    10    8    6 1    
    11   51    6 1    
    12   12    7 1    
    13    9    8 1    
    14   10    8 1    
    15   52    8 1    
    16   72    9 1    
    17   11   10 1    
    18   12   10 1    
    19   53   10 1    
    20   45   11 1    
    21   13   12 1    
    22   54   12 1    
    23   14   13 1    
    24   22   13 1    
    25   15   14 2    
    26   55   14 1    
    27   16   15 1    
    28   17   16 ar   
    29   22   16 ar   
    30   18   17 1    
    31   19   17 ar   
    32   56   18 1    
    33   57   18 1    
    34   20   19 ar   
    35   21   20 ar   
    36   58   20 1    
    37   22   21 ar   
    38   24   23 1    
    39   25   24 ar   
    40   26   24 ar   
    41   27   24 1    
    42   28   27 1    
    43   29   28 1    
    44   59   28 1    
    45   60   28 1    
    46   30   29 1    
    47   31   29 1    
    48   61   29 1    
    49   35   30 1    
    50   32   31 1    
    51   33   31 1    
    52   62   31 1    
    53   73   32 1    
    54   34   33 1    
    55   35   33 1    
    56   63   33 1    
    57   74   34 1    
    58   36   35 1    
    59   64   35 1    
    60   37   36 1    
    61   44   36 1    
    62   38   37 2    
    63   65   37 1    
    64   39   38 1    
    65   42   38 1    
    66   40   39 2    
    67   41   39 am   
    68   66   41 1    
    69   67   41 1    
    70   43   42 1    
    71   68   42 1    
    72   69   42 1    
    73   44   43 2    
    74   70   43 1    
    75   71   44 1    
    76   46   45 ar   
    77   47   45 ar   
    78   48   45 ar   
@<TRIPOS>SUBSTRUCTURE
     1 NDP1361     1 GROUP   
@<TRIPOS>SET

