#    Name: 3ngn_AMP_1_INTS_M
#    Modification time : Tue Mar 25 01:33:12 2014

@<TRIPOS>MOLECULE
3ngn_AMP_1_INTS_M
   35     0     9     0     0
SMALL
NO_CHARGES


@<TRIPOS>ATOM
      1 N          34.7050  -12.9605   10.7675 N.am      2 SEC2        0.0000 
      2 N          33.7950  -13.2390   11.6930 N.am      8 SEL2        0.0000 
      3 N          35.6150  -12.6820    9.8420 N.am      5 SEP2        0.0000 
      4 N          34.2090  -14.4435   12.2700 N.am      2 SEC2        0.0000 
      5 N          34.6230  -15.6480   12.8470 N.am      5 SEP2        0.0000 
      6 N          32.7555  -14.4615    9.1565 N.am      2 SEC2        0.0000 
      7 N          31.9290  -14.4090   10.3260 N.am      8 SEL2        0.0000 
      8 N          33.5820  -14.5140    7.9870 N.am      5 SEP2        0.0000 
      9 CA         31.6300  -15.5715   13.0135 C.3       3 GLC5        0.0000 
     10 CA         32.2730  -13.6260   13.9140 C.3       9 GLL5        0.0000 
     11 CA         30.9870  -17.5170   12.1130 C.3       6 GLP5        0.0000 
     12 CA         34.2200  -13.3000   14.3015 C.3       3 GLC5        0.0000 
     13 CA         36.1670  -12.9740   14.6890 C.3       6 GLP5        0.0000 
     14 N          32.5515  -11.4200   16.5625 N.am      2 SEC2        0.0000 
     15 N          31.4280  -12.0460   16.5390 N.am      8 SEL2        0.0000 
     16 N          33.6750  -10.7940   16.5860 N.am      5 SEP2        0.0000 
     17 CA         29.9745  -16.8590   15.4815 C.3       3 GLC5        0.0000 
     18 CA         31.3860  -15.6270   16.6510 C.3       9 GLL5        0.0000 
     19 CA         28.5630  -18.0910   14.3120 C.3       6 GLP5        0.0000 
     20 N          34.6590  -16.3175   14.4395 N.am      2 SEC2        0.0000 
     21 N          34.6950  -16.9870   16.0320 N.am      8 SEL2        0.0000 
     22 CA         33.8195  -19.5880   18.6425 C.3       3 GLC5        0.0000 
     23 CA         35.3230  -18.1120   18.2890 C.3       9 GLL5        0.0000 
     24 CA         32.3160  -21.0640   18.9960 C.3       6 GLP5        0.0000 
     25 O          36.6870  -18.6275   16.4380 O.2       1 ALC1        0.0000 
     26 O          36.5270  -18.5890   17.9540 O.2       7 ALL1        0.0000 
     27 O          36.8470  -18.6660   14.9220 O.2       4 ALP1        0.0000 
     28 CA         32.9630  -19.4280   19.4410 C.3       3 GLC5        0.0000 
     29 CA         33.6100  -17.7920   19.8860 C.3       9 GLL5        0.0000 
     30 CA         32.1210  -18.6235   18.3585 C.3       3 GLC5        0.0000 
     31 CA         33.2310  -16.8760   17.7630 C.3       9 GLL5        0.0000 
     32 CA         31.0110  -20.3710   18.9540 C.3       6 GLP5        0.0000 
     33 CA         32.7703  -13.2067   18.0867 C.3       3 GLC5        0.0000 
     34 CA         31.3150  -14.3310   17.3920 C.3       9 GLL5        0.0000 
     35 CA         33.9320  -12.5580   19.2950 C.3       6 GLP5        0.0000 
@<TRIPOS>BOND
@<TRIPOS>SUBSTRUCTURE
     1 ALC1       25 GROUP        1 X    ALC  0     ROOT ALC X 1
     2 SEC2        1 GROUP        1 X    SEC  0     **** SEC X 2
     3 GLC5        9 GROUP        1 X    GLC  0     **** GLC X 6
     4 ALP1       27 GROUP        1 Y    ALP  0     ROOT ALP Y 8
     5 SEP2        3 GROUP        1 Y    SEP  0     **** SEP Y 9
     6 GLP5       11 GROUP        1 Y    GLP  0     **** GLP Y 13
     7 ALL1       26 GROUP        1 Z    ALL  0     ROOT ALL Z 15
     8 SEL2        2 GROUP        1 Z    SEL  0     **** SEL Z 16
     9 GLL5       10 GROUP        1 Z    GLL  0     **** GLL Z 20
@<TRIPOS>SET

