#    Name: 3ngn_AMP_1_ligand
#    Modification time : Tue Mar 25 01:33:12 2014

@<TRIPOS>MOLECULE
3ngn_AMP_1_ligand
   35    37     1     0     0
SMALL
NO_CHARGES


@<TRIPOS>ATOM
      1 P          32.3230  -13.2920   11.3130 P.3       1 AMP556      0.0000 
      2 O1P        33.7950  -13.2390   11.6930 O.co2     1 AMP556      0.0000 
      3 O2P        31.7070  -11.9010   11.0320 O.co2     1 AMP556      0.0000 
      4 O3P        31.9290  -14.4090   10.3260 O.co2     1 AMP556      0.0000 
      5 O5'        31.5690  -13.7270   12.6850 O.3       1 AMP556      0.0000 
      6 C5'        32.2730  -13.6260   13.9140 C.3       1 AMP556      0.0000 
      7 C4'        31.3270  -13.9210   15.0590 C.3       1 AMP556      0.0000 
      8 O4'        31.1380  -15.3340   15.2790 O.3       1 AMP556      0.0000 
      9 C3'        31.9020  -13.3800   16.3650 C.3       1 AMP556      0.0000 
     10 O3'        31.4280  -12.0460   16.5390 O.3       1 AMP556      0.0000 
     11 C2'        31.3150  -14.3310   17.3920 C.3       1 AMP556      0.0000 
     12 O2'        29.8940  -14.1080   17.6010 O.3       1 AMP556      0.0000 
     13 C1'        31.3860  -15.6270   16.6510 C.3       1 AMP556      0.0000 
     14 N9         32.7210  -16.2350   16.7120 N.pl3     1 AMP556      0.0000 
     15 C8         33.5700  -16.3150   15.6710 C.2       1 AMP556      0.0000 
     16 N7         34.6950  -16.9870   16.0320 N.2       1 AMP556      0.0000 
     17 C5         34.5440  -17.3430   17.3250 C.ar      1 AMP556      0.0000 
     18 C6         35.3230  -18.1120   18.2890 C.ar      1 AMP556      0.0000 
     19 N6         36.5270  -18.5890   17.9540 N.pl3     1 AMP556      0.0000 
     20 N1         34.8190  -18.2890   19.5090 N.ar      1 AMP556      0.0000 
     21 C2         33.6100  -17.7920   19.8860 C.ar      1 AMP556      0.0000 
     22 N3         32.8160  -17.1290   19.0350 N.ar      1 AMP556      0.0000 
     23 C4         33.2310  -16.8760   17.7630 C.ar      1 AMP556      0.0000 
     24 H          32.6857  -12.6212   14.0658 H         1 AMP556      0.0000 
     25 H          33.1033  -14.3405   13.9679 H         1 AMP556      0.0000 
     26 H          30.3874  -13.4299   14.8916 H         1 AMP556      0.0000 
     27 H          32.9381  -13.4807   16.3392 H         1 AMP556      0.0000 
     28 H          31.8797  -14.3724   18.2356 H         1 AMP556      0.0000 
     29 H          30.6503  -16.2996   17.0282 H         1 AMP556      0.0000 
     30 H          33.4083  -15.9461   14.7817 H         1 AMP556      0.0000 
     31 H          37.2056  -18.6253   18.6876 H         1 AMP556      0.0000 
     32 H          36.6405  -18.8665   17.0000 H         1 AMP556      0.0000 
     33 H          33.2955  -17.9383   20.8837 H         1 AMP556      0.0000 
     34 H          30.6992  -12.1172   17.2201 H         1 AMP556      0.0000 
     35 H          29.4389  -14.6920   16.9289 H         1 AMP556      0.0000 
@<TRIPOS>BOND
     1    2    1 ar   
     2    3    1 ar   
     3    4    1 ar   
     4    5    1 1    
     5    6    5 1    
     6    7    6 1    
     7   24    6 1    
     8   25    6 1    
     9    8    7 1    
    10    9    7 1    
    11   26    7 1    
    12   13    8 1    
    13   10    9 1    
    14   11    9 1    
    15   27    9 1    
    16   34   10 1    
    17   12   11 1    
    18   13   11 1    
    19   28   11 1    
    20   35   12 1    
    21   14   13 1    
    22   29   13 1    
    23   15   14 1    
    24   23   14 1    
    25   16   15 2    
    26   30   15 1    
    27   17   16 1    
    28   18   17 ar   
    29   23   17 ar   
    30   19   18 1    
    31   20   18 ar   
    32   31   19 1    
    33   32   19 1    
    34   21   20 ar   
    35   22   21 ar   
    36   33   21 1    
    37   23   22 ar   
@<TRIPOS>SUBSTRUCTURE
     1 AMP556      1 GROUP   
@<TRIPOS>SET

