#    Name: 4l52_1UL_1_INTS_M
#    Modification time : Mon Apr  7 23:55:25 2014

@<TRIPOS>MOLECULE
4l52_1UL_1_INTS_M
   61     0     9     0     0
SMALL
NO_CHARGES


@<TRIPOS>ATOM
      1 CA        -20.2665  -47.9025  -16.3610 C.3       3 GLC5        0.0000 
      2 CA        -20.4430  -48.8850  -18.3240 C.3       9 GLL5        0.0000 
      3 CA        -20.0900  -46.9200  -14.3980 C.3       6 GLP5        0.0000 
      4 CA        -18.1225  -50.4235  -16.6170 C.3       3 GLC5        0.0000 
      5 CA        -18.1710  -48.4020  -17.2550 C.3       9 GLL5        0.0000 
      6 CA        -18.0740  -52.4450  -15.9790 C.3       6 GLP5        0.0000 
      7 CA        -15.0090  -47.9345  -13.8805 C.3       3 GLC5        0.0000 
      8 CA        -15.8840  -47.4800  -15.7990 C.3       9 GLL5        0.0000 
      9 CA        -14.1340  -48.3890  -11.9620 C.3       6 GLP5        0.0000 
     10 CA        -15.9435  -45.9435  -14.3665 C.3       3 GLC5        0.0000 
     11 CA        -16.0030  -44.4070  -12.9340 C.3       6 GLP5        0.0000 
     12 N         -15.2765  -45.6665  -15.2095 N.am      2 SEC2        0.0000 
     13 N         -14.8370  -47.0280  -15.0790 N.am      8 SEL2        0.0000 
     14 N         -15.7160  -44.3050  -15.3400 N.am      5 SEP2        0.0000 
     15 CA        -14.3065  -46.0260  -16.4100 C.3       3 GLC5        0.0000 
     16 CA        -13.6290  -47.5950  -15.1700 C.3       9 GLL5        0.0000 
     17 CA        -14.9840  -44.4570  -17.6500 C.3       6 GLP5        0.0000 
     18 O         -12.9440  -46.0505  -13.5735 O.2       1 ALC1        0.0000 
     19 O         -12.5820  -47.1410  -14.4430 O.2       7 ALL1        0.0000 
     20 O         -13.3060  -44.9600  -12.7040 O.2       4 ALP1        0.0000 
     21 CA        -13.3335  -50.3520  -14.7505 C.3       3 GLC5        0.0000 
     22 CA        -13.4970  -48.6500  -16.0360 C.3       9 GLL5        0.0000 
     23 CA        -13.1700  -52.0540  -13.4650 C.3       6 GLP5        0.0000 
     24 CA        -12.8530  -51.1775  -15.3000 C.3       3 GLC5        0.0000 
     25 CA        -12.5360  -50.3010  -17.1350 C.3       9 GLL5        0.0000 
     26 CA        -10.6465  -51.9140  -15.0120 C.3       3 GLC5        0.0000 
     27 CA         -9.8850  -50.2280  -15.6310 C.3       9 GLL5        0.0000 
     28 CA        -11.4080  -53.6000  -14.3930 C.3       6 GLP5        0.0000 
     29 CA        -10.2120  -49.8885  -13.8735 C.3       3 GLC5        0.0000 
     30 CA        -10.5390  -49.5490  -12.1160 C.3       6 GLP5        0.0000 
     31 CA         -9.1305  -49.4200  -17.1150 C.3       3 GLC5        0.0000 
     32 CA         -8.3760  -48.6120  -18.5990 C.3       6 GLP5        0.0000 
     33 CA        -13.1595  -53.5080  -18.1945 C.3       3 GLC5        0.0000 
     34 CA        -11.8190  -51.9900  -18.7350 C.3       9 GLL5        0.0000 
     35 CA        -14.5000  -55.0260  -17.6540 C.3       6 GLP5        0.0000 
     36 CA        -18.8810  -47.5602  -19.6073 C.3       3 GLC5        0.0000 
     37 CA        -17.1520  -46.8390  -20.4520 C.3       6 GLP5        0.0000 
     38 CA        -16.6208  -50.4012  -16.0700 C.3       3 GLC5        0.0000 
     39 CA        -16.9060  -48.9540  -17.4090 C.3       9 GLL5        0.0000 
     40 CA        -16.9020  -52.0520  -15.0880 C.3       6 GLP5        0.0000 
     41 CA        -15.4062  -46.2352  -16.9485 C.3       3 GLC5        0.0000 
     42 CA        -15.7730  -48.5470  -16.6950 C.3       9 GLL5        0.0000 
     43 CA        -16.9039  -47.7257  -18.7328 C.3       3 GLC5        0.0000 
     44 CA        -13.8485  -48.2558  -13.7825 C.3       3 GLC5        0.0000 
     45 CA        -12.5150  -47.2283  -16.6360 C.3       3 GLC5        0.0000 
     46 CA        -11.4670  -46.3340  -17.6690 C.3       6 GLP5        0.0000 
     47 CA        -15.5523  -50.8700  -16.1205 C.3       3 GLC5        0.0000 
     48 CA        -14.5170  -49.1510  -16.7920 C.3       9 GLL5        0.0000 
     49 CA        -13.3332  -48.6140  -18.3865 C.3       3 GLC5        0.0000 
     50 CA        -12.4640  -47.5400  -19.6200 C.3       6 GLP5        0.0000 
     51 CA        -12.2617  -49.1403  -18.4985 C.3       3 GLC5        0.0000 
     52 CA         -9.6687  -49.9060  -17.9603 C.3       3 GLC5        0.0000 
     53 CA        -10.3400  -51.2200  -17.0240 C.3       9 GLL5        0.0000 
     54 CA        -10.7766  -52.6160  -15.8939 C.3       3 GLC5        0.0000 
     55 CA         -9.3290  -52.0640  -17.4680 C.3       9 GLL5        0.0000 
     56 CA         -8.9150  -50.5438  -18.3072 C.3       3 GLC5        0.0000 
     57 CA         -7.4835  -52.2002  -18.4827 C.3       3 GLC5        0.0000 
     58 CA         -5.5130  -51.9250  -18.9500 C.3       6 GLP5        0.0000 
     59 CA         -9.1355  -54.5880  -18.7485 C.3       3 GLC5        0.0000 
     60 CA         -9.5790  -52.8870  -18.5630 C.3       9 GLL5        0.0000 
     61 CA         -8.0690  -56.3080  -18.6170 C.3       6 GLP5        0.0000 
@<TRIPOS>BOND
@<TRIPOS>SUBSTRUCTURE
     1 ALC1       18 GROUP        1 X    ALC  0     ROOT ALC X 1
     2 SEC2       12 GROUP        1 X    SEC  0     **** SEC X 2
     3 GLC5        1 GROUP        1 X    GLC  0     **** GLC X 6
     4 ALP1       20 GROUP        1 Y    ALP  0     ROOT ALP Y 8
     5 SEP2       14 GROUP        1 Y    SEP  0     **** SEP Y 9
     6 GLP5        3 GROUP        1 Y    GLP  0     **** GLP Y 13
     7 ALL1       19 GROUP        1 Z    ALL  0     ROOT ALL Z 15
     8 SEL2       13 GROUP        1 Z    SEL  0     **** SEL Z 16
     9 GLL5        2 GROUP        1 Z    GLL  0     **** GLL Z 20
@<TRIPOS>SET

