#    Name: 4l52_1UL_1_ligand
#    Modification time : Mon Apr  7 23:55:25 2014

@<TRIPOS>MOLECULE
4l52_1UL_1_ligand
   54    59     1     0     0
SMALL
NO_CHARGES


@<TRIPOS>ATOM
      1 O1        -23.4860  -49.9850  -21.7180 O.2       1 1UL501      0.0000 
      2 C1        -23.1710  -48.9010  -21.2410 C.2       1 1UL501      0.0000 
      3 C23       -23.2970  -47.6570  -22.0790 C.3       1 1UL501      0.0000 
      4 N1        -22.7170  -48.7900  -19.9750 N.am      1 1UL501      0.0000 
      5 C22       -22.2970  -47.5400  -19.3310 C.3       1 1UL501      0.0000 
      6 C21       -20.7770  -47.6780  -19.2010 C.3       1 1UL501      0.0000 
      7 C4        -20.4430  -48.8850  -18.3240 C.3       1 1UL501      0.0000 
      8 C3        -21.0530  -50.1550  -18.9320 C.3       1 1UL501      0.0000 
      9 C2        -22.5600  -49.9570  -19.0980 C.3       1 1UL501      0.0000 
     10 N2        -18.9790  -49.0340  -18.0900 N.pl3     1 1UL501      0.0000 
     11 C7        -18.1710  -48.4020  -17.2550 C.2       1 1UL501      0.0000 
     12 C6        -16.9060  -48.9540  -17.4090 C.2       1 1UL501      0.0000 
     13 C5        -17.0190  -49.9520  -18.3810 C.2       1 1UL501      0.0000 
     14 N3        -18.3020  -50.0230  -18.8100 N.2       1 1UL501      0.0000 
     15 C8        -15.7730  -48.5470  -16.6950 C.ar      1 1UL501      0.0000 
     16 C14       -15.8840  -47.4800  -15.7990 C.ar      1 1UL501      0.0000 
     17 N4        -14.8370  -47.0280  -15.0790 N.ar      1 1UL501      0.0000 
     18 C13       -13.6290  -47.5950  -15.1700 C.ar      1 1UL501      0.0000 
     19 N5        -12.5820  -47.1410  -14.4430 N.pl3     1 1UL501      0.0000 
     20 C12       -13.4970  -48.6500  -16.0360 C.ar      1 1UL501      0.0000 
     21 C9        -14.5170  -49.1510  -16.7920 C.ar      1 1UL501      0.0000 
     22 O2        -12.3240  -49.3860  -16.2870 O.3       1 1UL501      0.0000 
     23 C11       -12.5360  -50.3010  -17.1350 C.2       1 1UL501      0.0000 
     24 C10       -13.8880  -50.2250  -17.5140 C.2       1 1UL501      0.0000 
     25 C15       -11.5830  -51.1800  -17.6190 C.ar      1 1UL501      0.0000 
     26 C20       -10.3400  -51.2200  -17.0240 C.ar      1 1UL501      0.0000 
     27 S          -9.8850  -50.2280  -15.6310 S.3       1 1UL501      0.0000 
     28 N7         -8.2640  -50.9700  -15.6220 N.2       1 1UL501      0.0000 
     29 N6         -8.2150  -51.9210  -16.6880 N.2       1 1UL501      0.0000 
     30 C19        -9.3290  -52.0640  -17.4680 C.ar      1 1UL501      0.0000 
     31 C18        -9.5790  -52.8870  -18.5630 C.ar      1 1UL501      0.0000 
     32 C17       -10.8250  -52.8490  -19.1970 C.ar      1 1UL501      0.0000 
     33 C16       -11.8190  -51.9900  -18.7350 C.ar      1 1UL501      0.0000 
     34 H         -22.7180  -47.4446  -18.3537 H         1 1UL501      0.0000 
     35 H         -22.5137  -46.6932  -19.9454 H         1 1UL501      0.0000 
     36 H         -20.3736  -46.7808  -18.7474 H         1 1UL501      0.0000 
     37 H         -20.3447  -47.8170  -20.1845 H         1 1UL501      0.0000 
     38 H         -20.9433  -48.7273  -17.3521 H         1 1UL501      0.0000 
     39 H         -20.8695  -50.9905  -18.2715 H         1 1UL501      0.0000 
     40 H         -20.6047  -50.3390  -19.8980 H         1 1UL501      0.0000 
     41 H         -22.9765  -50.8403  -19.5480 H         1 1UL501      0.0000 
     42 H         -22.9930  -49.7772  -18.1304 H         1 1UL501      0.0000 
     43 H         -18.3796  -47.6950  -16.6457 H         1 1UL501      0.0000 
     44 H         -16.2825  -50.4934  -18.6831 H         1 1UL501      0.0000 
     45 H         -16.8272  -47.0269  -15.6974 H         1 1UL501      0.0000 
     46 H         -11.7017  -47.5828  -14.6159 H         1 1UL501      0.0000 
     47 H         -12.7813  -46.4039  -13.7973 H         1 1UL501      0.0000 
     48 H         -14.3271  -50.7777  -18.1365 H         1 1UL501      0.0000 
     49 H          -8.8500  -53.5230  -18.9072 H         1 1UL501      0.0000 
     50 H         -11.0049  -53.4574  -20.0055 H         1 1UL501      0.0000 
     51 H         -12.7276  -51.9490  -19.2123 H         1 1UL501      0.0000 
     52 H         -23.0108  -46.8407  -21.5773 H         1 1UL501      0.0000 
     53 H         -22.7340  -47.7064  -22.9040 H         1 1UL501      0.0000 
     54 H         -24.2394  -47.5032  -22.3760 H         1 1UL501      0.0000 
@<TRIPOS>BOND
     1    2    1 2    
     2    3    2 1    
     3    4    2 am   
     4   52    3 1    
     5   53    3 1    
     6   54    3 1    
     7    5    4 1    
     8    9    4 1    
     9    6    5 1    
    10   34    5 1    
    11   35    5 1    
    12    7    6 1    
    13   36    6 1    
    14   37    6 1    
    15    8    7 1    
    16   10    7 1    
    17   38    7 1    
    18    9    8 1    
    19   39    8 1    
    20   40    8 1    
    21   41    9 1    
    22   42    9 1    
    23   11   10 1    
    24   14   10 1    
    25   12   11 2    
    26   43   11 1    
    27   13   12 1    
    28   15   12 1    
    29   14   13 2    
    30   44   13 1    
    31   16   15 ar   
    32   21   15 ar   
    33   17   16 ar   
    34   45   16 1    
    35   18   17 ar   
    36   19   18 1    
    37   20   18 ar   
    38   46   19 1    
    39   47   19 1    
    40   21   20 ar   
    41   22   20 1    
    42   24   21 1    
    43   23   22 1    
    44   24   23 2    
    45   25   23 1    
    46   48   24 1    
    47   26   25 ar   
    48   33   25 ar   
    49   27   26 1    
    50   30   26 ar   
    51   28   27 1    
    52   29   28 2    
    53   30   29 1    
    54   31   30 ar   
    55   32   31 ar   
    56   49   31 1    
    57   33   32 ar   
    58   50   32 1    
    59   51   33 1    
@<TRIPOS>SUBSTRUCTURE
     1 1UL501      1 GROUP   
@<TRIPOS>SET

