#    Name: 3r9n_Z68_1_INTS_M
#    Modification time : Tue Mar 25 11:18:15 2014

@<TRIPOS>MOLECULE
3r9n_Z68_1_INTS_M
   55     0     9     0     0
SMALL
NO_CHARGES


@<TRIPOS>ATOM
      1 CA         96.7140   76.7305  -44.7395 C.3       3 GLC5        0.0000 
      2 CA         94.8620   76.6930  -45.8750 C.3       9 GLL5        0.0000 
      3 CA         98.5660   76.7680  -43.6040 C.3       6 GLP5        0.0000 
      4 CA         92.9390   82.3680  -47.6380 C.3       3 GLC5        0.0000 
      5 CA         92.1840   80.5770  -48.3090 C.3       9 GLL5        0.0000 
      6 CA         93.6940   84.1590  -46.9670 C.3       6 GLP5        0.0000 
      7 CA         96.4500   79.2475  -45.9085 C.3       3 GLC5        0.0000 
      8 CA         94.7740   78.2150  -45.8330 C.3       9 GLL5        0.0000 
      9 CA         98.1260   80.2800  -45.9840 C.3       6 GLP5        0.0000 
     10 N          90.8020   82.3360  -51.8775 N.am      2 SEC2        0.0000 
     11 N          91.8030   81.6670  -50.6500 N.am      8 SEL2        0.0000 
     12 N          89.8010   83.0050  -53.1050 N.am      5 SEP2        0.0000 
     13 CA         95.6855   80.5025  -47.1625 C.3       3 GLC5        0.0000 
     14 CA         94.4670   78.8940  -47.1590 C.3       9 GLL5        0.0000 
     15 CA         96.9040   82.1110  -47.1660 C.3       6 GLP5        0.0000 
     16 N          95.8405   77.9935  -50.3965 N.am      2 SEC2        0.0000 
     17 N          94.5990   78.4450  -50.6810 N.am      8 SEL2        0.0000 
     18 N          97.0820   77.5420  -50.1120 N.am      5 SEP2        0.0000 
     19 O          93.2730   81.1845  -53.3455 O.2       1 ALC1        0.0000 
     20 O          93.2430   80.4430  -52.0780 O.2       7 ALL1        0.0000 
     21 O          93.3030   81.9260  -54.6130 O.2       4 ALP1        0.0000 
     22 CA         94.2295   76.0810  -50.4370 C.3       3 GLC5        0.0000 
     23 CA         94.3710   76.6540  -48.3270 C.3       9 GLL5        0.0000 
     24 CA         94.0880   75.5080  -52.5470 C.3       6 GLP5        0.0000 
     25 CA         90.4755   84.1375  -48.6220 C.3       3 GLC5        0.0000 
     26 CA         89.9070   82.4370  -47.5640 C.3       9 GLL5        0.0000 
     27 CA         91.0440   85.8380  -49.6800 C.3       6 GLP5        0.0000 
     28 CA         89.1650   79.9805  -48.8470 C.3       3 GLC5        0.0000 
     29 CA         88.8040   81.2880  -47.5510 C.3       9 GLL5        0.0000 
     30 CA         89.5260   78.6730  -50.1430 C.3       6 GLP5        0.0000 
     31 CA         89.5035   85.0405  -48.4110 C.3       3 GLC5        0.0000 
     32 CA         89.2830   83.7890  -47.0990 C.3       9 GLL5        0.0000 
     33 CA         89.7240   86.2920  -49.7230 C.3       6 GLP5        0.0000 
     34 CA         96.0148   78.2600  -49.0890 C.3       3 GLC5        0.0000 
     35 CA         94.2690   78.1860  -48.3590 C.3       9 GLL5        0.0000 
     36 CA         97.6600   78.9230  -50.1350 C.3       6 GLP5        0.0000 
     37 CA         93.8752   74.6333  -48.3865 C.3       3 GLC5        0.0000 
     38 CA         93.2410   72.9580  -49.0270 C.3       6 GLP5        0.0000 
     39 CA         93.3890   75.9603  -45.2953 C.3       3 GLC5        0.0000 
     40 CA         94.6480   75.9630  -47.1650 C.3       9 GLL5        0.0000 
     41 CA         92.0450   75.2120  -44.0810 C.3       6 GLP5        0.0000 
     42 CA         94.1527   81.7072  -50.6782 C.3       3 GLC5        0.0000 
     43 CA         93.0320   79.9930  -49.6790 C.3       9 GLL5        0.0000 
     44 CA         95.4330   83.0710  -51.0950 C.3       6 GLP5        0.0000 
     45 CA         91.0932   79.5813  -50.0310 C.3       3 GLC5        0.0000 
     46 CA         92.7130   80.6940  -50.8440 C.3       9 GLL5        0.0000 
     47 CA         91.6445   83.6360  -47.1493 C.3       3 GLC5        0.0000 
     48 CA         88.0540   79.1580  -46.9155 C.3       3 GLC5        0.0000 
     49 CA         87.6140   77.1110  -46.9860 C.3       6 GLP5        0.0000 
     50 CA         87.6195   81.0735  -44.1360 C.3       3 GLC5        0.0000 
     51 CA         88.1840   81.1220  -46.1390 C.3       9 GLL5        0.0000 
     52 CA         87.3500   80.3430  -42.3880 C.3       6 GLP5        0.0000 
     53 CA         86.5525   81.3732  -47.3805 C.3       3 GLC5        0.0000 
     54 CA         87.5940   82.4860  -45.6290 C.3       9 GLL5        0.0000 
     55 CA         85.0610   80.9010  -48.5240 C.3       6 GLP5        0.0000 
@<TRIPOS>BOND
@<TRIPOS>SUBSTRUCTURE
     1 ALC1       19 GROUP        1 X    ALC  0     ROOT ALC X 1
     2 SEC2       10 GROUP        1 X    SEC  0     **** SEC X 2
     3 GLC5        1 GROUP        1 X    GLC  0     **** GLC X 6
     4 ALP1       21 GROUP        1 Y    ALP  0     ROOT ALP Y 8
     5 SEP2       12 GROUP        1 Y    SEP  0     **** SEP Y 9
     6 GLP5        3 GROUP        1 Y    GLP  0     **** GLP Y 13
     7 ALL1       20 GROUP        1 Z    ALL  0     ROOT ALL Z 15
     8 SEL2       11 GROUP        1 Z    SEL  0     **** SEL Z 16
     9 GLL5        2 GROUP        1 Z    GLL  0     **** GLL Z 20
@<TRIPOS>SET

