#    Name: 3r9n_Z68_1_ligand
#    Modification time : Tue Mar 25 11:18:15 2014

@<TRIPOS>MOLECULE
3r9n_Z68_1_ligand
   42    44     1     0     0
SMALL
NO_CHARGES


@<TRIPOS>ATOM
      1 C1         94.8620   76.6930  -45.8750 C.ar      1 Z68529      0.0000 
      2 N1         94.9440   78.9130  -44.7530 N.pl3     1 Z68529      0.0000 
      3 O1         94.8530   80.2470  -44.7500 O.2       1 Z68529      0.0000 
      4 S1         92.1840   80.5770  -48.3090 S.3       1 Z68529      0.0000 
      5 C2         94.7740   78.2150  -45.8330 C.ar      1 Z68529      0.0000 
      6 N2         91.8030   81.6670  -50.6500 N.2       1 Z68529      0.0000 
      7 O2         95.1920   78.3960  -43.6880 O.2       1 Z68529      0.0000 
      8 C3         94.4670   78.8940  -47.1590 C.ar      1 Z68529      0.0000 
      9 N3         90.5050   82.6090  -48.8930 N.pl3     1 Z68529      0.0000 
     10 O3         94.5990   78.4450  -50.6810 O.2       1 Z68529      0.0000 
     11 C4         94.2690   78.1860  -48.3590 C.ar      1 Z68529      0.0000 
     12 N4         93.2430   80.4430  -52.0780 N.pl3     1 Z68529      0.0000 
     13 C5         94.3710   76.6540  -48.3270 C.ar      1 Z68529      0.0000 
     14 C6         94.6480   75.9630  -47.1650 C.ar      1 Z68529      0.0000 
     15 C7         93.9930   78.8440  -49.5550 C.2       1 Z68529      0.0000 
     16 C8         93.0320   79.9930  -49.6790 C.2       1 Z68529      0.0000 
     17 C9         92.7130   80.6940  -50.8440 C.2       1 Z68529      0.0000 
     18 C10        91.4280   81.7140  -49.3460 C.2       1 Z68529      0.0000 
     19 C11        89.9070   82.4370  -47.5640 C.3       1 Z68529      0.0000 
     20 C12        88.8040   81.2880  -47.5510 C.3       1 Z68529      0.0000 
     21 C13        88.1840   81.1220  -46.1390 C.3       1 Z68529      0.0000 
     22 C14        87.5940   82.4860  -45.6290 C.3       1 Z68529      0.0000 
     23 C15        88.6370   83.6490  -45.6870 C.3       1 Z68529      0.0000 
     24 C16        89.2830   83.7890  -47.0990 C.3       1 Z68529      0.0000 
     25 H          95.0614   76.1980  -45.0423 H         1 Z68529      0.0000 
     26 H          94.4111   79.9206  -47.1290 H         1 Z68529      0.0000 
     27 H          90.1993   83.4134  -49.4425 H         1 Z68529      0.0000 
     28 H          93.9090   79.6987  -52.1277 H         1 Z68529      0.0000 
     29 H          92.9184   81.0256  -52.8231 H         1 Z68529      0.0000 
     30 H          94.2187   76.1919  -49.2270 H         1 Z68529      0.0000 
     31 H          94.7182   74.9477  -47.1312 H         1 Z68529      0.0000 
     32 H          90.6607   82.1622  -46.8371 H         1 Z68529      0.0000 
     33 H          89.2788   80.3647  -47.8514 H         1 Z68529      0.0000 
     34 H          88.0324   81.5566  -48.2586 H         1 Z68529      0.0000 
     35 H          88.9479   80.7965  -45.4472 H         1 Z68529      0.0000 
     36 H          87.3855   80.3949  -46.1805 H         1 Z68529      0.0000 
     37 H          87.2638   82.3589  -44.6006 H         1 Z68529      0.0000 
     38 H          86.7387   82.7476  -46.2478 H         1 Z68529      0.0000 
     39 H          89.4198   83.4540  -44.9583 H         1 Z68529      0.0000 
     40 H          88.1372   84.5805  -45.4334 H         1 Z68529      0.0000 
     41 H          88.5209   84.0871  -47.8075 H         1 Z68529      0.0000 
     42 H          90.0612   84.5402  -47.0578 H         1 Z68529      0.0000 
@<TRIPOS>BOND
     1    5    1 ar   
     2   14    1 ar   
     3   25    1 1    
     4    3    2 2    
     5    5    2 1    
     6    7    2 2    
     7   16    4 1    
     8   18    4 1    
     9    8    5 ar   
    10   17    6 1    
    11   18    6 2    
    12   11    8 ar   
    13   26    8 1    
    14   18    9 1    
    15   19    9 1    
    16   27    9 1    
    17   15   10 2    
    18   13   11 ar   
    19   15   11 1    
    20   17   12 1    
    21   28   12 1    
    22   29   12 1    
    23   14   13 ar   
    24   30   13 1    
    25   31   14 1    
    26   16   15 1    
    27   17   16 2    
    28   20   19 1    
    29   24   19 1    
    30   32   19 1    
    31   21   20 1    
    32   33   20 1    
    33   34   20 1    
    34   22   21 1    
    35   35   21 1    
    36   36   21 1    
    37   23   22 1    
    38   37   22 1    
    39   38   22 1    
    40   24   23 1    
    41   39   23 1    
    42   40   23 1    
    43   41   24 1    
    44   42   24 1    
@<TRIPOS>SUBSTRUCTURE
     1 Z68529      1 GROUP   
@<TRIPOS>SET

