#    Name: 3h9f_92M_1_INTS_M
#    Modification time : Tue Mar 25 13:45:33 2014

@<TRIPOS>MOLECULE
3h9f_92M_1_INTS_M
   83     0     9     0     0
SMALL
NO_CHARGES


@<TRIPOS>ATOM
      1 CA         -0.5520   20.7745   45.7735 C.3       3 GLC5        0.0000 
      2 CA          1.6090   20.6110   45.9040 C.3       9 GLL5        0.0000 
      3 CA         -2.7130   20.9380   45.6430 C.3       6 GLP5        0.0000 
      4 CA          0.5905   24.3300   47.5145 C.3       3 GLC5        0.0000 
      5 CA          1.2690   22.9260   46.3810 C.3       9 GLL5        0.0000 
      6 CA         -0.0880   25.7340   48.6480 C.3       6 GLP5        0.0000 
      7 N          -0.7665   23.4510   47.7390 N.am      2 SEC2        0.0000 
      8 N           0.4480   22.5690   47.3450 N.am      8 SEL2        0.0000 
      9 N          -1.9810   24.3330   48.1330 N.am      5 SEP2        0.0000 
     10 CA          1.1070   20.6130   51.4470 C.3       3 GLC5        0.0000 
     11 CA         -0.6490   20.4830   52.6490 C.3       9 GLL5        0.0000 
     12 CA          2.8630   20.7430   50.2450 C.3       6 GLP5        0.0000 
     13 CA          0.0380   22.3080   51.7100 C.3       3 GLC5        0.0000 
     14 CA          0.7250   24.1330   50.7710 C.3       6 GLP5        0.0000 
     15 O          -1.6215   21.8955   49.4595 O.2       1 ALC1        0.0000 
     16 O          -0.6220   20.9750   48.6210 O.2       7 ALL1        0.0000 
     17 O          -2.6210   22.8160   50.2980 O.2       4 ALP1        0.0000 
     18 CA          1.5300   21.0085   48.9305 C.3       3 GLC5        0.0000 
     19 CA          0.1970   21.2740   47.6160 C.3       9 GLL5        0.0000 
     20 CA          0.4610   22.7035   49.1935 C.3       3 GLC5        0.0000 
     21 CA         -1.5800   22.5705   47.9535 C.3       3 GLC5        0.0000 
     22 CA         -3.3570   23.8670   48.2910 C.3       6 GLP5        0.0000 
     23 CA         -1.2580   21.1060   46.6295 C.3       3 GLC5        0.0000 
     24 CA          4.5310   22.3800   46.0600 C.3       3 GLC5        0.0000 
     25 CA          3.4690   23.6240   44.9780 C.3       9 GLL5        0.0000 
     26 CA          5.5930   21.1360   47.1420 C.3       6 GLP5        0.0000 
     27 CA          3.7010   24.3250   46.5630 C.3       3 GLC5        0.0000 
     28 CA          3.9330   25.0260   48.1480 C.3       6 GLP5        0.0000 
     29 CA          2.0805   24.1305   43.7995 C.3       3 GLC5        0.0000 
     30 CA          0.6920   24.6370   42.6210 C.3       6 GLP5        0.0000 
     31 CA          3.8000   25.5175   44.5905 C.3       3 GLC5        0.0000 
     32 CA          4.1310   27.4110   44.2030 C.3       6 GLP5        0.0000 
     33 CA          1.3830   22.6330   42.8645 C.3       3 GLC5        0.0000 
     34 CA          2.0740   20.6290   43.1080 C.3       9 GLL5        0.0000 
     35 CA          4.5840   19.5275   44.6970 C.3       3 GLC5        0.0000 
     36 CA          2.6030   19.4570   43.9370 C.3       9 GLL5        0.0000 
     37 CA          6.5650   19.5980   45.4570 C.3       6 GLP5        0.0000 
     38 CA          4.8135   18.4430   45.6425 C.3       3 GLC5        0.0000 
     39 CA          3.0620   17.2880   45.8280 C.3       9 GLL5        0.0000 
     40 CA          4.8145   16.8085   44.5880 C.3       3 GLC5        0.0000 
     41 CA          6.5670   16.3290   43.3480 C.3       6 GLP5        0.0000 
     42 CA          2.6915   14.2150   46.8310 C.3       3 GLC5        0.0000 
     43 CA          2.5320   15.8760   45.7360 C.3       9 GLL5        0.0000 
     44 CA          2.8510   12.5540   47.9260 C.3       6 GLP5        0.0000 
     45 CA          0.8945   14.2360   46.1345 C.3       3 GLC5        0.0000 
     46 CA          1.1410   15.9930   45.1520 C.3       9 GLL5        0.0000 
     47 CA          0.6480   12.4790   47.1170 C.3       6 GLP5        0.0000 
     48 CA         -0.2435   18.4275   43.5035 C.3       3 GLC5        0.0000 
     49 CA          0.7850   17.4870   45.1300 C.3       9 GLL5        0.0000 
     50 CA         -1.2720   19.3680   41.8770 C.3       6 GLP5        0.0000 
     51 CA          3.6685   21.2048   46.4530 C.3       3 GLC5        0.0000 
     52 CA          2.7535   23.7285   47.0752 C.3       3 GLC5        0.0000 
     53 CA          1.8790   21.9360   45.6240 C.3       9 GLL5        0.0000 
     54 CA          1.1330   23.5340   44.3118 C.3       3 GLC5        0.0000 
     55 CA         -0.3315   22.8580   45.3738 C.3       3 GLC5        0.0000 
     56 CA         -2.2370   23.2850   44.7450 C.3       6 GLP5        0.0000 
     57 CA         -3.6160   15.0258   49.8630 C.3       3 GLC5        0.0000 
     58 CA         -1.2330   14.7570   49.9320 C.3       9 GLL5        0.0000 
     59 CA         -5.5430   15.8610   49.5450 C.3       6 GLP5        0.0000 
     60 CA         -3.1320   13.3878   49.1840 C.3       3 GLC5        0.0000 
     61 CA         -2.1450   13.6240   50.4300 C.3       9 GLL5        0.0000 
     62 CA         -4.5750   12.5850   48.1870 C.3       6 GLP5        0.0000 
     63 CA         -0.1330   13.2267   49.2660 C.3       3 GLC5        0.0000 
     64 CA          1.4230   12.2630   48.3510 C.3       6 GLP5        0.0000 
     65 CA          0.8453   17.8005   50.0453 C.3       3 GLC5        0.0000 
     66 CA         -1.1280   17.2140   50.2810 C.3       9 GLL5        0.0000 
     67 CA          2.7320   17.8290   49.3990 C.3       6 GLP5        0.0000 
     68 CA         -2.8687   17.9875   49.8647 C.3       3 GLC5        0.0000 
     69 CA         -4.6960   18.2030   49.0380 C.3       6 GLP5        0.0000 
     70 CA          1.0510   20.2050   50.0332 C.3       3 GLC5        0.0000 
     71 CA         -0.7650   19.5860   50.5150 C.3       9 GLL5        0.0000 
     72 CA         -2.7285   18.9350   49.4297 C.3       3 GLC5        0.0000 
     73 CA          0.8470   17.9195   49.0030 C.3       3 GLC5        0.0000 
     74 CA         -0.9540   18.6400   48.3170 C.3       9 GLL5        0.0000 
     75 CA         -2.8670   18.1065   48.8225 C.3       3 GLC5        0.0000 
     76 CA         -1.1220   17.3800   48.8970 C.3       9 GLL5        0.0000 
     77 CA         -1.7843   20.0660   47.1827 C.3       3 GLC5        0.0000 
     78 CA          0.5333   19.7055   42.6997 C.3       3 GLC5        0.0000 
     79 CA          4.3370   15.9665   46.9755 C.3       3 GLC5        0.0000 
     80 CA          5.8770   15.3510   48.1690 C.3       6 GLP5        0.0000 
     81 CA          2.6105   17.3189   47.6039 C.3       3 GLC5        0.0000 
     82 CA         -1.1495   16.4270   45.0180 C.3       3 GLC5        0.0000 
     83 CA         -3.2620   16.1140   44.8950 C.3       6 GLP5        0.0000 
@<TRIPOS>BOND
@<TRIPOS>SUBSTRUCTURE
     1 ALC1       15 GROUP        1 X    ALC  0     ROOT ALC X 1
     2 SEC2        7 GROUP        1 X    SEC  0     **** SEC X 2
     3 GLC5        1 GROUP        1 X    GLC  0     **** GLC X 6
     4 ALP1       17 GROUP        1 Y    ALP  0     ROOT ALP Y 8
     5 SEP2        9 GROUP        1 Y    SEP  0     **** SEP Y 9
     6 GLP5        3 GROUP        1 Y    GLP  0     **** GLP Y 13
     7 ALL1       16 GROUP        1 Z    ALL  0     ROOT ALL Z 15
     8 SEL2        8 GROUP        1 Z    SEL  0     **** SEL Z 16
     9 GLL5        2 GROUP        1 Z    GLL  0     **** GLL Z 20
@<TRIPOS>SET

