#    Name: 3h9f_92M_1_ligand
#    Modification time : Tue Mar 25 13:45:33 2014

@<TRIPOS>MOLECULE
3h9f_92M_1_ligand
   68    72     1     0     0
SMALL
NO_CHARGES


@<TRIPOS>ATOM
      1 C4          1.6090   20.6110   45.9040 C.ar      1 92M809      0.0000 
      2 C5          1.8790   21.9360   45.6240 C.ar      1 92M809      0.0000 
      3 C6          1.2690   22.9260   46.3810 C.ar      1 92M809      0.0000 
      4 N1          0.4480   22.5690   47.3450 N.ar      1 92M809      0.0000 
      5 N3          0.7640   20.3120   46.8930 N.ar      1 92M809      0.0000 
      6 CAT        -1.4920   15.7290   52.2680 C.3       1 92M809      0.0000 
      7 CAU        -0.9510   14.3240   52.5500 C.3       1 92M809      0.0000 
      8 CAV        -1.9180   13.2920   51.9240 C.3       1 92M809      0.0000 
      9 OAW        -1.4230   11.9460   52.0620 O.3       1 92M809      0.0000 
     10 CAX        -2.1450   13.6240   50.4300 C.3       1 92M809      0.0000 
     11 CAY        -1.2330   14.7570   49.9320 C.3       1 92M809      0.0000 
     12 NAS        -1.2910   15.9400   50.8220 N.3       1 92M809      0.0000 
     13 CAR        -1.1280   17.2140   50.2810 C.ar      1 92M809      0.0000 
     14 CAZ        -0.9550   18.3300   51.1020 C.ar      1 92M809      0.0000 
     15 CBA        -0.7650   19.5860   50.5150 C.ar      1 92M809      0.0000 
     16 OBB        -0.5740   20.6930   51.2570 O.3       1 92M809      0.0000 
     17 CBC        -0.6490   20.4830   52.6490 C.3       1 92M809      0.0000 
     18 CAQ        -1.1220   17.3800   48.8970 C.ar      1 92M809      0.0000 
     19 CAP        -0.9540   18.6400   48.3170 C.ar      1 92M809      0.0000 
     20 CAO        -0.7570   19.7480   49.1280 C.ar      1 92M809      0.0000 
     21 NAN        -0.6220   20.9750   48.6210 N.pl3     1 92M809      0.0000 
     22 C2          0.1970   21.2740   47.6160 C.ar      1 92M809      0.0000 
     23 NBG         2.6780   22.4160   44.6830 N.am      1 92M809      0.0000 
     24 CBH         3.4690   23.6240   44.9780 C.3       1 92M809      0.0000 
     25 CAB         2.8320   21.8590   43.4870 C.2       1 92M809      0.0000 
     26 OAA         3.6150   22.3740   42.6770 O.2       1 92M809      0.0000 
     27 CAC         2.0740   20.6290   43.1080 C.3       1 92M809      0.0000 
     28 CAD         2.6030   19.4570   43.9370 C.3       1 92M809      0.0000 
     29 NAE         2.0550   19.5140   45.2920 N.3       1 92M809      0.0000 
     30 CAF         1.8300   18.1950   45.9350 C.3       1 92M809      0.0000 
     31 CAG         3.0620   17.2880   45.8280 C.3       1 92M809      0.0000 
     32 CAH         2.5320   15.8760   45.7360 C.3       1 92M809      0.0000 
     33 CAI         1.1410   15.9930   45.1520 C.3       1 92M809      0.0000 
     34 CAJ         0.7850   17.4870   45.1300 C.3       1 92M809      0.0000 
     35 H           1.4774   23.9147   46.1655 H         1 92M809      0.0000 
     36 H          -0.9299   16.4374   52.8433 H         1 92M809      0.0000 
     37 H          -2.5333   15.7554   52.5209 H         1 92M809      0.0000 
     38 H          -0.9021   14.1609   53.6128 H         1 92M809      0.0000 
     39 H           0.0210   14.2129   52.1011 H         1 92M809      0.0000 
     40 H          -2.8802   13.4030   52.4237 H         1 92M809      0.0000 
     41 H          -3.1891   13.9155   50.2890 H         1 92M809      0.0000 
     42 H          -1.9568   12.7250   49.8373 H         1 92M809      0.0000 
     43 H          -1.5459   15.0269   48.9158 H         1 92M809      0.0000 
     44 H          -0.2077   14.3712   49.8746 H         1 92M809      0.0000 
     45 H          -0.9667   18.2325   52.1174 H         1 92M809      0.0000 
     46 H          -1.2445   16.5532   48.2848 H         1 92M809      0.0000 
     47 H          -0.9769   18.7404   47.2969 H         1 92M809      0.0000 
     48 H          -1.2085   21.7649   49.0497 H         1 92M809      0.0000 
     49 H           2.2164   20.4077   42.0576 H         1 92M809      0.0000 
     50 H           1.0192   20.7577   43.3163 H         1 92M809      0.0000 
     51 H           3.6941   19.5151   43.9542 H         1 92M809      0.0000 
     52 H           2.3158   18.5281   43.4383 H         1 92M809      0.0000 
     53 H           1.5258   18.2743   46.9256 H         1 92M809      0.0000 
     54 H           3.6611   17.4010   46.7074 H         1 92M809      0.0000 
     55 H           3.6073   17.5362   44.9414 H         1 92M809      0.0000 
     56 H           2.4793   15.4420   46.7148 H         1 92M809      0.0000 
     57 H           3.1524   15.2957   45.0822 H         1 92M809      0.0000 
     58 H           0.4357   15.4717   45.7719 H         1 92M809      0.0000 
     59 H           1.1295   15.6131   44.1475 H         1 92M809      0.0000 
     60 H           0.7954   17.8329   44.1121 H         1 92M809      0.0000 
     61 H          -0.1857   17.6206   45.5724 H         1 92M809      0.0000 
     62 H           0.0399   19.8300   52.9637 H         1 92M809      0.0000 
     63 H          -0.5053   21.3301   53.1607 H         1 92M809      0.0000 
     64 H          -1.5408   20.1229   52.9227 H         1 92M809      0.0000 
     65 H           4.0845   23.4846   45.7537 H         1 92M809      0.0000 
     66 H           4.0351   23.8964   44.2000 H         1 92M809      0.0000 
     67 H           2.8854   24.4042   45.2033 H         1 92M809      0.0000 
     68 H          -1.2335   12.4103   52.9273 H         1 92M809      0.0000 
@<TRIPOS>BOND
     1    2    1 ar   
     2    5    1 ar   
     3   29    1 1    
     4    3    2 ar   
     5   23    2 1    
     6    4    3 ar   
     7   35    3 1    
     8   22    4 ar   
     9   22    5 ar   
    10    7    6 1    
    11   12    6 1    
    12   36    6 1    
    13   37    6 1    
    14    8    7 1    
    15   38    7 1    
    16   39    7 1    
    17    9    8 1    
    18   10    8 1    
    19   40    8 1    
    20   68    9 1    
    21   11   10 1    
    22   41   10 1    
    23   42   10 1    
    24   12   11 1    
    25   43   11 1    
    26   44   11 1    
    27   13   12 1    
    28   14   13 ar   
    29   18   13 ar   
    30   15   14 ar   
    31   45   14 1    
    32   16   15 1    
    33   20   15 ar   
    34   17   16 1    
    35   62   17 1    
    36   63   17 1    
    37   64   17 1    
    38   19   18 ar   
    39   46   18 1    
    40   20   19 ar   
    41   47   19 1    
    42   21   20 1    
    43   22   21 1    
    44   48   21 1    
    45   24   23 1    
    46   25   23 am   
    47   65   24 1    
    48   66   24 1    
    49   67   24 1    
    50   26   25 2    
    51   27   25 1    
    52   28   27 1    
    53   49   27 1    
    54   50   27 1    
    55   29   28 1    
    56   51   28 1    
    57   52   28 1    
    58   30   29 1    
    59   31   30 1    
    60   34   30 1    
    61   53   30 1    
    62   32   31 1    
    63   54   31 1    
    64   55   31 1    
    65   33   32 1    
    66   56   32 1    
    67   57   32 1    
    68   34   33 1    
    69   58   33 1    
    70   59   33 1    
    71   60   34 1    
    72   61   34 1    
@<TRIPOS>SUBSTRUCTURE
     1 92M809      1 GROUP   
@<TRIPOS>SET

