#    Name: 4M0C_2_CAVITY_N1_6.mol2
#    Modification time : Tue Mar 11 14:32:13 2014

@<TRIPOS>MOLECULE
4M0C_2_CAVITY_N1_6.mol2
  132     0     5     0     0
SMALL
NO_CHARGES


@<TRIPOS>ATOM
      1 CA         21.0801    2.6314  -30.1582 C.3       4 GLY6        0.0000 
      2 DU         20.5606    0.5892  -30.4019 H         5 CUB7        0.0000 
      3 CA         19.8125    1.8881  -30.4595 C.3       4 GLY6        0.0000 
      4 CA         19.0645    3.1869  -30.5171 C.3       4 GLY6        0.0000 
      5 O          18.3164    4.4858  -30.5747 O.2       2 ALA2        0.0000 
      6 OG         18.5450    1.1447  -30.7608 O.2       1 SER1        0.0000 
      7 CZ         17.7970    2.4436  -30.8184 C.ar      3 PHE5        0.0000 
      8 CZ         17.0489    3.7425  -30.8760 C.ar      3 PHE5        0.0000 
      9 CZ         16.3009    5.0414  -30.9336 C.ar      3 PHE5        0.0000 
     10 CZ         15.5528    6.3402  -30.9912 C.ar      3 PHE5        0.0000 
     11 CA         21.7658   -7.3920  -30.7165 C.3       4 GLY6        0.0000 
     12 CZ         15.7814    2.9991  -31.1773 C.ar      3 PHE5        0.0000 
     13 OG         15.0333    4.2980  -31.2349 O.2       1 SER1        0.0000 
     14 DU         21.5387    1.2309  -28.6323 H         5 CUB7        0.0000 
     15 O          20.7906    2.5298  -28.6899 O.2       2 ALA2        0.0000 
     16 DU         21.0192   -0.8113  -28.8760 H         5 CUB7        0.0000 
     17 DU         20.2711    0.4876  -28.9336 H         5 CUB7        0.0000 
     18 DU         19.5231    1.7865  -28.9912 H         5 CUB7        0.0000 
     19 CA         18.7750    3.0854  -29.0488 C.3       4 GLY6        0.0000 
     20 O          18.0270    4.3842  -29.1064 O.2       2 ALA2        0.0000 
     21 O          17.2789    5.6831  -29.1640 O.2       2 ALA2        0.0000 
     22 CZ         21.9958   -5.4513  -29.0045 C.ar      3 PHE5        0.0000 
     23 DU         21.2478   -4.1524  -29.0621 H         5 CUB7        0.0000 
     24 DU         20.4997   -2.8535  -29.1197 H         5 CUB7        0.0000 
     25 OG         19.7517   -1.5547  -29.1773 O.2       1 SER1        0.0000 
     26 OG         19.0036   -0.2558  -29.2349 O.2       1 SER1        0.0000 
     27 OG         18.2556    1.0431  -29.2925 O.2       1 SER1        0.0000 
     28 OG         17.5075    2.3420  -29.3501 O.2       1 SER1        0.0000 
     29 DU         16.7595    3.6409  -29.4077 H         5 CUB7        0.0000 
     30 CZ         16.0114    4.9398  -29.4653 C.ar      3 PHE5        0.0000 
     31 CZ         20.7283   -6.1947  -29.3058 C.ar      3 PHE5        0.0000 
     32 DU         19.9802   -4.8958  -29.3634 H         5 CUB7        0.0000 
     33 OG         19.2322   -3.5969  -29.4210 O.2       1 SER1        0.0000 
     34 OG         18.4841   -2.2980  -29.4786 O.2       1 SER1        0.0000 
     35 CZ         16.2400    1.5986  -29.6514 C.ar      3 PHE5        0.0000 
     36 CZ         15.4919    2.8975  -29.7090 C.ar      3 PHE5        0.0000 
     37 OG         14.7439    4.1964  -29.7666 O.2       1 SER1        0.0000 
     38 DU         19.4608   -6.9380  -29.6071 H         5 CUB7        0.0000 
     39 CA         18.7127   -5.6391  -29.6647 C.3       4 GLY6        0.0000 
     40 CA         17.9647   -4.3403  -29.7223 C.3       4 GLY6        0.0000 
     41 N          22.5167    1.8727  -26.8627 N.2       2 ALA2        0.0000 
     42 N          21.7687    3.1716  -26.9203 N.2       2 ALA2        0.0000 
     43 CA         23.4934   -2.7673  -26.9912 C.3       4 GLY6        0.0000 
     44 CA         22.7453   -1.4684  -27.0488 C.3       4 GLY6        0.0000 
     45 CA         21.9973   -0.1695  -27.1064 C.3       4 GLY6        0.0000 
     46 N          21.2492    1.1294  -27.1640 N.2       2 ALA2        0.0000 
     47 N          20.5012    2.4282  -27.2216 N.2       2 ALA2        0.0000 
     48 O          19.7531    3.7271  -27.2792 O.2       2 ALA2        0.0000 
     49 O          19.0051    5.0260  -27.3368 O.2       2 ALA2        0.0000 
     50 CZ         22.2258   -3.5107  -27.2925 C.ar      3 PHE5        0.0000 
     51 DU         21.4778   -2.2118  -27.3501 H         5 CUB7        0.0000 
     52 DU         20.7297   -0.9129  -27.4077 H         5 CUB7        0.0000 
     53 DU         19.9817    0.3860  -27.4653 H         5 CUB7        0.0000 
     54 DU         19.2336    1.6849  -27.5229 H         5 CUB7        0.0000 
     55 DU         18.4856    2.9838  -27.5805 H         5 CUB7        0.0000 
     56 OG         17.7375    4.2826  -27.6381 O.2       1 SER1        0.0000 
     57 CZ         20.9583   -4.2540  -27.5938 C.ar      3 PHE5        0.0000 
     58 DU         19.4622   -1.6562  -27.7090 H         5 CUB7        0.0000 
     59 OG         18.7142   -0.3574  -27.7666 O.2       1 SER1        0.0000 
     60 OG         17.9661    0.9415  -27.8242 O.2       1 SER1        0.0000 
     61 DU         17.2180    2.2404  -27.8818 H         5 CUB7        0.0000 
     62 CZ         16.4700    3.5393  -27.9394 C.ar      3 PHE5        0.0000 
     63 CZ         15.7219    4.8382  -27.9970 C.ar      3 PHE5        0.0000 
     64 CZ         20.4388   -6.2963  -27.8375 C.ar      3 PHE5        0.0000 
     65 DU         19.6908   -4.9974  -27.8951 H         5 CUB7        0.0000 
     66 DU         18.9427   -3.6985  -27.9527 H         5 CUB7        0.0000 
     67 OG         18.1947   -2.3996  -28.0103 O.2       1 SER1        0.0000 
     68 OG         17.4466   -1.1007  -28.0679 O.2       1 SER1        0.0000 
     69 OG         16.6986    0.1982  -28.1255 O.2       1 SER1        0.0000 
     70 OG         15.9505    1.4970  -28.1831 O.2       1 SER1        0.0000 
     71 CZ         15.2025    2.7959  -28.2407 C.ar      3 PHE5        0.0000 
     72 CZ         14.4544    4.0948  -28.2983 C.ar      3 PHE5        0.0000 
     73 CZ         19.9194   -8.3385  -28.0812 C.ar      3 PHE5        0.0000 
     74 CA         19.1713   -7.0396  -28.1388 C.3       4 GLY6        0.0000 
     75 O          18.4233   -5.7407  -28.1964 O.2       2 ALA2        0.0000 
     76 O          17.6752   -4.4418  -28.2540 O.2       2 ALA2        0.0000 
     77 CZ         16.9271   -3.1430  -28.3116 C.ar      3 PHE5        0.0000 
     78 CZ         15.4310   -0.5452  -28.4268 C.ar      3 PHE5        0.0000 
     79 CZ         14.6830    0.7537  -28.4844 C.ar      3 PHE5        0.0000 
     80 OG         13.9349    2.0526  -28.5420 O.2       1 SER1        0.0000 
     81 OG         13.1869    3.3515  -28.5996 O.2       1 SER1        0.0000 
     82 N          17.8578    5.8863  -32.1006 N.2       2 ALA2        0.0000 
     83 CA         17.1098    7.1852  -32.1582 C.3       4 GLY6        0.0000 
     84 CA         17.3384    3.8441  -32.3443 C.3       4 GLY6        0.0000 
     85 CA         16.5903    5.1429  -32.4019 C.3       4 GLY6        0.0000 
     86 CA         23.2039   -2.8689  -25.5229 C.3       4 GLY6        0.0000 
     87 CA         22.4559   -1.5700  -25.5805 C.3       4 GLY6        0.0000 
     88 CA         21.7078   -0.2711  -25.6381 C.3       4 GLY6        0.0000 
     89 N          19.4636    3.6255  -25.8109 N.2       2 ALA2        0.0000 
     90 OG         18.7156    4.9244  -25.8685 O.2       1 SER1        0.0000 
     91 CZ         21.9364   -3.6122  -25.8242 C.ar      3 PHE5        0.0000 
     92 CA         21.1883   -2.3134  -25.8818 C.3       4 GLY6        0.0000 
     93 CA         20.4403   -1.0145  -25.9394 C.3       4 GLY6        0.0000 
     94 N          19.6922    0.2844  -25.9970 N.2       2 ALA2        0.0000 
     95 N          18.9442    1.5833  -26.0546 N.2       2 ALA2        0.0000 
     96 DU         18.1961    2.8822  -26.1122 H         5 CUB7        0.0000 
     97 OG         17.4481    4.1811  -26.1698 O.2       1 SER1        0.0000 
     98 CZ         20.6689   -4.3556  -26.1255 C.ar      3 PHE5        0.0000 
     99 DU         19.9208   -3.0567  -26.1831 H         5 CUB7        0.0000 
    100 N          19.1727   -1.7578  -26.2407 N.2       2 ALA2        0.0000 
    101 N          18.4247   -0.4590  -26.2983 N.2       2 ALA2        0.0000 
    102 DU         17.6766    0.8399  -26.3559 H         5 CUB7        0.0000 
    103 CZ         16.9286    2.1388  -26.4135 C.ar      3 PHE5        0.0000 
    104 CZ         16.1805    3.4377  -26.4711 C.ar      3 PHE5        0.0000 
    105 CZ         19.4013   -5.0990  -26.4268 C.ar      3 PHE5        0.0000 
    106 N          18.6533   -3.8001  -26.4844 N.2       2 ALA2        0.0000 
    107 N          17.9052   -2.5012  -26.5420 N.2       2 ALA2        0.0000 
    108 N          17.1572   -1.2023  -26.5996 N.2       2 ALA2        0.0000 
    109 CZ         16.4091    0.0966  -26.6572 C.ar      3 PHE5        0.0000 
    110 CZ         15.6611    1.3955  -26.7148 C.ar      3 PHE5        0.0000 
    111 CA         18.8818   -7.1412  -26.6705 C.3       4 GLY6        0.0000 
    112 N          18.1338   -5.8423  -26.7281 N.2       2 ALA2        0.0000 
    113 N          17.3857   -4.5434  -26.7857 N.2       2 ALA2        0.0000 
    114 CZ         16.6377   -3.2445  -26.8433 C.ar      3 PHE5        0.0000 
    115 CZ         15.1416   -0.6468  -26.9585 C.ar      3 PHE5        0.0000 
    116 CZ         14.3935    0.6521  -27.0161 C.ar      3 PHE5        0.0000 
    117 CZ         13.6455    1.9510  -27.0737 C.ar      3 PHE5        0.0000 
    118 CZ         13.1260   -0.0913  -27.3175 C.ar      3 PHE5        0.0000 
    119 CA         21.6469   -3.7138  -24.3559 C.3       4 GLY6        0.0000 
    120 CA         20.8989   -2.4150  -24.4135 C.3       4 GLY6        0.0000 
    121 CA         20.1508   -1.1161  -24.4711 C.3       4 GLY6        0.0000 
    122 O          17.9067    2.7806  -24.6439 O.2       2 ALA2        0.0000 
    123 CZ         20.3794   -4.4572  -24.6572 C.ar      3 PHE5        0.0000 
    124 O          19.6313   -3.1583  -24.7148 O.2       2 ALA2        0.0000 
    125 N          18.8833   -1.8594  -24.7724 N.2       2 ALA2        0.0000 
    126 O          17.3872    0.7383  -24.8876 O.2       2 ALA2        0.0000 
    127 CZ         16.6391    2.0372  -24.9452 C.ar      3 PHE5        0.0000 
    128 N          19.1119   -5.2006  -24.9585 N.2       2 ALA2        0.0000 
    129 N          18.3638   -3.9017  -25.0161 N.2       2 ALA2        0.0000 
    130 N          16.1197   -0.0050  -25.1889 N.2       2 ALA2        0.0000 
    131 CA         14.8521   -0.7484  -25.4902 C.3       4 GLY6        0.0000 
    132 CZ         14.1041    0.5505  -25.5478 C.ar      3 PHE5        0.0000 
@<TRIPOS>BOND
@<TRIPOS>SUBSTRUCTURE
     1 SER1        6 GROUP   
     2 ALA2        5 GROUP   
     3 PHE5        7 GROUP   
     4 GLY6        1 GROUP   
     5 CUB7        2 GROUP   
@<TRIPOS>SET

