#    Name: 4m0c_FMN_2_INTS_M
#    Modification time : Tue Mar 25 11:39:42 2014

@<TRIPOS>MOLECULE
4m0c_FMN_2_INTS_M
   69     0     9     0     0
SMALL
NO_CHARGES


@<TRIPOS>ATOM
      1 N          20.7840    4.6875  -28.0790 N.am      2 SEC2        0.0000 
      2 N          19.8730    3.7640  -27.2770 N.am      8 SEL2        0.0000 
      3 N          21.6950    5.6110  -28.8810 N.am      5 SEP2        0.0000 
      4 N          19.1570    6.3645  -28.4905 N.am      2 SEC2        0.0000 
      5 N          18.9050    5.7980  -27.2980 N.am      8 SEL2        0.0000 
      6 N          19.4090    6.9310  -29.6830 N.am      5 SEP2        0.0000 
      7 N          18.0400    6.3500  -26.4485 N.am      2 SEC2        0.0000 
      8 N          17.1750    6.9020  -25.5990 N.am      5 SEP2        0.0000 
      9 O          17.6300    5.5955  -25.6895 O.2       1 ALC1        0.0000 
     10 O          18.0850    4.2890  -25.7800 O.2       7 ALL1        0.0000 
     11 O          17.1750    6.9020  -25.5990 O.2       4 ALP1        0.0000 
     12 N          17.4080    2.8260  -22.7945 N.am      2 SEC2        0.0000 
     13 N          17.4060    2.6520  -24.3200 N.am      8 SEL2        0.0000 
     14 N          17.4100    3.0000  -21.2690 N.am      5 SEP2        0.0000 
     15 N          18.9805    0.7905  -23.7845 N.am      2 SEC2        0.0000 
     16 N          19.1560    0.8220  -25.2140 N.am      8 SEL2        0.0000 
     17 N          18.8050    0.7590  -22.3550 N.am      5 SEP2        0.0000 
     18 CA         21.8685   -4.1525  -23.4355 C.3       3 GLC5        0.0000 
     19 CA         21.2720   -3.6080  -25.0940 C.3       9 GLL5        0.0000 
     20 CA         22.4650   -4.6970  -21.7770 C.3       6 GLP5        0.0000 
     21 CA         21.7630   -5.2750  -25.1580 C.3       3 GLC5        0.0000 
     22 CA         22.2540   -6.9420  -25.2220 C.3       6 GLP5        0.0000 
     23 CA         24.7190   -3.7500  -26.3305 C.3       3 GLC5        0.0000 
     24 CA         23.0750   -2.7780  -27.2300 C.3       9 GLL5        0.0000 
     25 CA         26.3630   -4.7220  -25.4310 C.3       6 GLP5        0.0000 
     26 N          22.2780    4.5585  -27.7745 N.am      2 SEC2        0.0000 
     27 N          22.8610    3.5060  -26.6680 N.am      8 SEL2        0.0000 
     28 O          22.3540    3.0550  -25.4930 O.2       1 ALC1        0.0000 
     29 O          22.8610    3.5060  -26.6680 O.2       7 ALL1        0.0000 
     30 O          21.8470    2.6040  -24.3180 O.2       4 ALP1        0.0000 
     31 N          25.2320    4.7595  -30.3325 N.am      2 SEC2        0.0000 
     32 N          26.0460    4.2340  -29.2650 N.am      8 SEL2        0.0000 
     33 N          24.4180    5.2850  -31.4000 N.am      5 SEP2        0.0000 
     34 CA         26.4575    2.6590  -25.5170 C.3       3 GLC5        0.0000 
     35 CA         26.0890    2.7320  -27.4430 C.3       9 GLL5        0.0000 
     36 CA         26.8260    2.5860  -23.5910 C.3       6 GLP5        0.0000 
     37 N          29.9295    2.6240  -25.4390 N.am      2 SEC2        0.0000 
     38 N          29.5510    3.9290  -26.3910 N.am      8 SEL2        0.0000 
     39 N          30.3080    1.3190  -24.4870 N.am      5 SEP2        0.0000 
     40 N          30.7745    3.4175  -26.3170 N.am      2 SEC2        0.0000 
     41 N          31.9980    2.9060  -26.2430 N.am      5 SEP2        0.0000 
     42 N          30.3520    5.0525  -26.5835 N.am      2 SEC2        0.0000 
     43 N          31.1530    6.1760  -26.7760 N.am      5 SEP2        0.0000 
     44 N          30.0565    4.4590  -25.3005 N.am      2 SEC2        0.0000 
     45 N          30.5620    4.9890  -24.2100 N.am      5 SEP2        0.0000 
     46 N          29.5855    1.4135  -25.5950 N.am      2 SEC2        0.0000 
     47 N          28.8630    1.5080  -26.7030 N.am      8 SEL2        0.0000 
     48 N          30.4305    2.2070  -26.4730 N.am      2 SEC2        0.0000 
     49 N          30.1790    3.7255  -28.8105 N.am      2 SEC2        0.0000 
     50 N          28.9430    3.0770  -28.6110 N.am      8 SEL2        0.0000 
     51 N          31.4150    4.3740  -29.0100 N.am      5 SEP2        0.0000 
     52 CA         20.7055    0.0260  -23.8775 C.3       3 GLC5        0.0000 
     53 CA         20.1160   -0.0670  -25.6980 C.3       9 GLL5        0.0000 
     54 CA         21.2430    0.7620  -22.3240 C.3       6 GLP5        0.0000 
     55 CA         22.4765   -1.5808  -24.6035 C.3       3 GLC5        0.0000 
     56 CA         21.1800   -2.2270  -25.6640 C.3       9 GLL5        0.0000 
     57 CA         23.7270   -0.2440  -23.8280 C.3       6 GLP5        0.0000 
     58 CA         23.1422   -1.2743  -25.3942 C.3       3 GLC5        0.0000 
     59 CA         22.0400   -1.8310  -26.6910 C.3       9 GLL5        0.0000 
     60 CA         22.5943   -0.1748  -25.4002 C.3       3 GLC5        0.0000 
     61 CA         21.9410   -0.5460  -27.2220 C.3       9 GLL5        0.0000 
     62 CA         22.2104    4.0580  -29.3066 C.3       3 GLC5        0.0000 
     63 CA         24.0090    3.1160  -28.7760 C.3       9 GLL5        0.0000 
     64 CA         21.1910    5.3980  -30.2240 C.3       6 GLP5        0.0000 
     65 CA         26.5888    5.0068  -27.1918 C.3       3 GLC5        0.0000 
     66 CA         25.2540    3.7530  -28.1960 C.3       9 GLL5        0.0000 
     67 CA         27.5060    6.7710  -26.5640 C.3       6 GLP5        0.0000 
     68 CA         23.6594    5.0405  -27.6823 C.3       3 GLC5        0.0000 
     69 CA         22.9120    6.7900  -27.1510 C.3       6 GLP5        0.0000 
@<TRIPOS>BOND
@<TRIPOS>SUBSTRUCTURE
     1 ALC1        9 GROUP        1 X    ALC  0     ROOT ALC X 1
     2 SEC2        1 GROUP        1 X    SEC  0     **** SEC X 2
     3 GLC5       18 GROUP        1 X    GLC  0     **** GLC X 6
     4 ALP1       11 GROUP        1 Y    ALP  0     ROOT ALP Y 8
     5 SEP2        3 GROUP        1 Y    SEP  0     **** SEP Y 9
     6 GLP5       20 GROUP        1 Y    GLP  0     **** GLP Y 13
     7 ALL1       10 GROUP        1 Z    ALL  0     ROOT ALL Z 15
     8 SEL2        2 GROUP        1 Z    SEL  0     **** SEL Z 16
     9 GLL5       19 GROUP        1 Z    GLL  0     **** GLL Z 20
@<TRIPOS>SET

