#    Name: 4m0c_FMN_2_ligand
#    Modification time : Tue Mar 25 11:39:43 2014

@<TRIPOS>MOLECULE
4m0c_FMN_2_ligand
   50    52     1     0     0
SMALL
NO_CHARGES


@<TRIPOS>ATOM
      1 N1         19.8730    3.7640  -27.2770 N.2       1 FMN301      0.0000 
      2 C2         18.9480    4.6640  -26.8000 C.2       1 FMN301      0.0000 
      3 O2         18.9050    5.7980  -27.2980 O.2       1 FMN301      0.0000 
      4 N3         18.0850    4.2890  -25.7800 N.am      1 FMN301      0.0000 
      5 C4         18.1500    3.0080  -25.2390 C.2       1 FMN301      0.0000 
      6 O4         17.4060    2.6520  -24.3200 O.2       1 FMN301      0.0000 
      7 C4A        19.0830    2.1030  -25.7270 C.2       1 FMN301      0.0000 
      8 N5         19.1560    0.8220  -25.2140 N.2       1 FMN301      0.0000 
      9 C5A        20.1160   -0.0670  -25.6980 C.ar      1 FMN301      0.0000 
     10 C6         20.2200   -1.3530  -25.1640 C.ar      1 FMN301      0.0000 
     11 C7         21.1800   -2.2270  -25.6640 C.ar      1 FMN301      0.0000 
     12 C7M        21.2720   -3.6080  -25.0940 C.3       1 FMN301      0.0000 
     13 C8         22.0400   -1.8310  -26.6910 C.ar      1 FMN301      0.0000 
     14 C8M        23.0750   -2.7780  -27.2300 C.3       1 FMN301      0.0000 
     15 C9         21.9410   -0.5460  -27.2220 C.ar      1 FMN301      0.0000 
     16 C9A        20.9820    0.3350  -26.7230 C.ar      1 FMN301      0.0000 
     17 N10        20.8840    1.6170  -27.2330 N.pl3     1 FMN301      0.0000 
     18 C10        19.9460    2.4940  -26.7420 C.2       1 FMN301      0.0000 
     19 C1'        21.7910    2.0980  -28.3190 C.3       1 FMN301      0.0000 
     20 C2'        23.1100    2.5420  -27.6860 C.3       1 FMN301      0.0000 
     21 O2'        22.8610    3.5060  -26.6680 O.3       1 FMN301      0.0000 
     22 C3'        24.0090    3.1160  -28.7760 C.3       1 FMN301      0.0000 
     23 O3'        24.4230    2.0640  -29.6100 O.3       1 FMN301      0.0000 
     24 C4'        25.2540    3.7530  -28.1960 C.3       1 FMN301      0.0000 
     25 O4'        26.0460    4.2340  -29.2650 O.3       1 FMN301      0.0000 
     26 C5'        26.0890    2.7320  -27.4430 C.3       1 FMN301      0.0000 
     27 O5'        27.1580    3.4060  -26.8170 O.3       1 FMN301      0.0000 
     28 P          28.6590    2.9530  -27.1420 P.3       1 FMN301      0.0000 
     29 O1P        29.5510    3.9290  -26.3910 O.co2     1 FMN301      0.0000 
     30 O2P        28.8630    1.5080  -26.7030 O.co2     1 FMN301      0.0000 
     31 O3P        28.9430    3.0770  -28.6110 O.co2     1 FMN301      0.0000 
     32 H          17.3914    4.9612  -25.4197 H         1 FMN301      0.0000 
     33 H          19.5934   -1.6483  -24.4102 H         1 FMN301      0.0000 
     34 H          22.5695   -0.2499  -27.9752 H         1 FMN301      0.0000 
     35 H          21.3473    2.9406  -28.8336 H         1 FMN301      0.0000 
     36 H          21.9904    1.3003  -29.0230 H         1 FMN301      0.0000 
     37 H          23.5933    1.6589  -27.2868 H         1 FMN301      0.0000 
     38 H          23.4607    3.8583  -29.3205 H         1 FMN301      0.0000 
     39 H          24.9756    4.5347  -27.5286 H         1 FMN301      0.0000 
     40 H          26.4358    1.9861  -28.1639 H         1 FMN301      0.0000 
     41 H          25.4361    2.2321  -26.7217 H         1 FMN301      0.0000 
     42 H          21.9971   -4.1418  -25.5290 H         1 FMN301      0.0000 
     43 H          21.4673   -3.5928  -24.1134 H         1 FMN301      0.0000 
     44 H          20.4200   -4.1174  -25.2153 H         1 FMN301      0.0000 
     45 H          23.6175   -2.3598  -27.9585 H         1 FMN301      0.0000 
     46 H          23.7149   -3.0721  -26.5200 H         1 FMN301      0.0000 
     47 H          22.6599   -3.6042  -27.6110 H         1 FMN301      0.0000 
     48 H          22.4602    2.9872  -25.9129 H         1 FMN301      0.0000 
     49 H          24.1541    2.3435  -30.5317 H         1 FMN301      0.0000 
     50 H          26.8889    3.6975  -29.2243 H         1 FMN301      0.0000 
@<TRIPOS>BOND
     1    2    1 1    
     2   18    1 2    
     3    3    2 2    
     4    4    2 am   
     5    5    4 am   
     6   32    4 1    
     7    6    5 2    
     8    7    5 1    
     9    8    7 2    
    10   18    7 1    
    11    9    8 1    
    12   10    9 ar   
    13   16    9 ar   
    14   11   10 ar   
    15   33   10 1    
    16   12   11 1    
    17   13   11 ar   
    18   42   12 1    
    19   43   12 1    
    20   44   12 1    
    21   14   13 1    
    22   15   13 ar   
    23   45   14 1    
    24   46   14 1    
    25   47   14 1    
    26   16   15 ar   
    27   34   15 1    
    28   17   16 1    
    29   18   17 1    
    30   19   17 1    
    31   20   19 1    
    32   35   19 1    
    33   36   19 1    
    34   21   20 1    
    35   22   20 1    
    36   37   20 1    
    37   48   21 1    
    38   23   22 1    
    39   24   22 1    
    40   38   22 1    
    41   49   23 1    
    42   25   24 1    
    43   26   24 1    
    44   39   24 1    
    45   50   25 1    
    46   27   26 1    
    47   40   26 1    
    48   41   26 1    
    49   28   27 1    
    50   29   28 ar   
    51   30   28 ar   
    52   31   28 ar   
@<TRIPOS>SUBSTRUCTURE
     1 FMN301      1 GROUP   
@<TRIPOS>SET

