#    Name: 1f0q_EMO_1_INTS_M
#    Modification time : Tue Mar 25 00:29:38 2014

@<TRIPOS>MOLECULE
1f0q_EMO_1_INTS_M
   47     0     6     0     0
SMALL
NO_CHARGES


@<TRIPOS>ATOM
      1 CA         46.0140    8.2920    0.7880 C.3       2 GLC5        0.0000 
      2 CA         44.1340    7.7130    1.7570 C.3       6 GLL5        0.0000 
      3 CA         47.8940    8.8710   -0.1810 C.3       4 GLP5        0.0000 
      4 CA         41.7720    6.1675    0.6915 C.3       2 GLC5        0.0000 
      5 CA         43.3440    6.5560    2.0280 C.3       6 GLL5        0.0000 
      6 CA         40.2000    5.7790   -0.6450 C.3       4 GLP5        0.0000 
      7 O          42.5810    6.4205   -0.4330 O.2       1 ALC1        0.0000 
      8 O          43.0370    5.6540    1.0140 O.2       5 ALL1        0.0000 
      9 O          42.1250    7.1870   -1.8800 O.2       3 ALP1        0.0000 
     10 CA         41.1530    7.8565    5.6225 C.3       2 GLC5        0.0000 
     11 CA         42.9280    7.8720    7.0010 C.3       6 GLL5        0.0000 
     12 CA         39.3780    7.8410    4.2440 C.3       4 GLP5        0.0000 
     13 CA         40.6935    7.9645   10.4455 C.3       2 GLC5        0.0000 
     14 CA         42.3340    8.3970   10.8460 C.3       6 GLL5        0.0000 
     15 CA         39.0530    7.5320   10.0450 C.3       4 GLP5        0.0000 
     16 CA         41.8395   10.1105   10.9945 C.3       2 GLC5        0.0000 
     17 CA         41.3450   11.8240   11.1430 C.3       4 GLP5        0.0000 
     18 CA         45.7180    9.0740    5.9490 C.3       2 GLC5        0.0000 
     19 CA         43.7500    9.0500    6.7400 C.3       6 GLL5        0.0000 
     20 CA         47.6860    9.0980    5.1580 C.3       4 GLP5        0.0000 
     21 CA         42.2790    9.2252    3.4093 C.3       2 GLC5        0.0000 
     22 CA         44.4380    8.6260    2.8160 C.3       6 GLL5        0.0000 
     23 CA         40.3690    9.9520    3.3240 C.3       4 GLP5        0.0000 
     24 CA         42.7875    8.6499    0.8626 C.3       2 GLC5        0.0000 
     25 CA         41.7600    9.9370   -0.4320 C.3       4 GLP5        0.0000 
     26 CA         41.1815    7.2875    4.0675 C.3       2 GLC5        0.0000 
     27 CA         42.8410    6.2870    3.3480 C.3       6 GLL5        0.0000 
     28 CA         44.7743    7.0225    5.4848 C.3       2 GLC5        0.0000 
     29 CA         43.1290    7.1810    4.4340 C.3       6 GLL5        0.0000 
     30 CA         46.0140    6.2690    6.6660 C.3       4 GLP5        0.0000 
     31 CA         44.6765    7.3650    6.7683 C.3       2 GLC5        0.0000 
     32 CA         44.5752    7.7195    8.9175 C.3       2 GLC5        0.0000 
     33 CA         42.7810    8.5510    9.4250 C.3       6 GLL5        0.0000 
     34 CA         46.5320    7.3520    8.9440 C.3       4 GLP5        0.0000 
     35 CA         43.0276    6.8795   10.5817 C.3       2 GLC5        0.0000 
     36 CA         43.5790    5.5170   11.2950 C.3       4 GLP5        0.0000 
     37 CA         41.1309    8.9098    9.2180 C.3       2 GLC5        0.0000 
     38 CA         42.4560    7.6230    8.3570 C.3       6 GLL5        0.0000 
     39 CA         39.1620    8.9240    9.4130 C.3       4 GLP5        0.0000 
     40 CA         45.3335   10.9445    9.1235 C.3       2 GLC5        0.0000 
     41 CA         43.5810    9.7040    9.1550 C.3       6 GLL5        0.0000 
     42 CA         46.8540   12.0630    9.7560 C.3       4 GLP5        0.0000 
     43 CA         45.1725    8.5890    8.7175 C.3       2 GLC5        0.0000 
     44 CA         44.0450    9.9480    7.8270 C.3       6 GLL5        0.0000 
     45 CA         45.8390    8.2416    3.3949 C.3       2 GLC5        0.0000 
     46 CA         43.9400    8.3710    4.1730 C.3       6 GLL5        0.0000 
     47 CA         47.5650    8.2130    3.5600 C.3       4 GLP5        0.0000 
@<TRIPOS>BOND
@<TRIPOS>SUBSTRUCTURE
     1 ALC1        7 GROUP        1 X    ALC  0     ROOT ALC X 1
     2 GLC5        1 GROUP        1 X    GLC  0     **** GLC X 6
     3 ALP1        9 GROUP        1 Y    ALP  0     ROOT ALP Y 8
     4 GLP5        3 GROUP        1 Y    GLP  0     **** GLP Y 13
     5 ALL1        8 GROUP        1 Z    ALL  0     ROOT ALL Z 15
     6 GLL5        2 GROUP        1 Z    GLL  0     **** GLL Z 20
@<TRIPOS>SET

