#    Name: 1f0q_EMO_1_ligand
#    Modification time : Tue Mar 25 00:29:38 2014

@<TRIPOS>MOLECULE
1f0q_EMO_1_ligand
   30    32     1     0     0
SMALL
NO_CHARGES


@<TRIPOS>ATOM
      1 C1         44.4380    8.6260    2.8160 C.ar      1 EMO400      0.0000 
      2 O1         45.2150    9.7220    2.4500 O.3       1 EMO400      0.0000 
      3 C2         44.1340    7.7130    1.7570 C.ar      1 EMO400      0.0000 
      4 C3         43.3440    6.5560    2.0280 C.ar      1 EMO400      0.0000 
      5 O3         43.0370    5.6540    1.0140 O.3       1 EMO400      0.0000 
      6 C4         42.8410    6.2870    3.3480 C.ar      1 EMO400      0.0000 
      7 C5         43.1290    7.1810    4.4340 C.ar      1 EMO400      0.0000 
      8 C6         42.5980    6.8860    5.8540 C.2       1 EMO400      0.0000 
      9 O6         41.9180    5.8870    6.0690 O.2       1 EMO400      0.0000 
     10 C7         42.9280    7.8720    7.0010 C.ar      1 EMO400      0.0000 
     11 C8         42.4560    7.6230    8.3570 C.ar      1 EMO400      0.0000 
     12 C9         42.7810    8.5510    9.4250 C.ar      1 EMO400      0.0000 
     13 C10        42.3340    8.3970   10.8460 C.3       1 EMO400      0.0000 
     14 C16        43.5810    9.7040    9.1550 C.ar      1 EMO400      0.0000 
     15 C17        44.0450    9.9480    7.8270 C.ar      1 EMO400      0.0000 
     16 O17        44.8310   11.1160    7.6330 O.3       1 EMO400      0.0000 
     17 C18        43.7500    9.0500    6.7400 C.ar      1 EMO400      0.0000 
     18 C19        44.2690    9.3490    5.3210 C.2       1 EMO400      0.0000 
     19 O19        44.9520   10.3400    5.0970 O.2       1 EMO400      0.0000 
     20 C20        43.9400    8.3710    4.1730 C.ar      1 EMO400      0.0000 
     21 H          44.4785    7.8885    0.8208 H         1 EMO400      0.0000 
     22 H          42.2773    5.4573    3.5126 H         1 EMO400      0.0000 
     23 H          41.9022    6.8031    8.5516 H         1 EMO400      0.0000 
     24 H          43.8176   10.3453    9.9033 H         1 EMO400      0.0000 
     25 H          42.6635    7.5429   11.2485 H         1 EMO400      0.0000 
     26 H          42.6690    9.1415   11.4235 H         1 EMO400      0.0000 
     27 H          41.3370    8.3920   10.9232 H         1 EMO400      0.0000 
     28 H          45.3593   10.2316    3.2982 H         1 EMO400      0.0000 
     29 H          42.8083    6.2218    0.2232 H         1 EMO400      0.0000 
     30 H          45.0876   11.0975    6.6667 H         1 EMO400      0.0000 
@<TRIPOS>BOND
     1    2    1 1    
     2    3    1 ar   
     3   20    1 ar   
     4   28    2 1    
     5    4    3 ar   
     6   21    3 1    
     7    5    4 1    
     8    6    4 ar   
     9   29    5 1    
    10    7    6 ar   
    11   22    6 1    
    12    8    7 1    
    13   20    7 ar   
    14    9    8 2    
    15   10    8 1    
    16   11   10 ar   
    17   17   10 ar   
    18   12   11 ar   
    19   23   11 1    
    20   13   12 1    
    21   14   12 ar   
    22   25   13 1    
    23   26   13 1    
    24   27   13 1    
    25   15   14 ar   
    26   24   14 1    
    27   16   15 1    
    28   17   15 ar   
    29   30   16 1    
    30   18   17 1    
    31   19   18 2    
    32   20   18 1    
@<TRIPOS>SUBSTRUCTURE
     1 EMO400      1 GROUP   
@<TRIPOS>SET

