#    Name: 3g51_ANP_1_INTS_M
#    Modification time : Tue Mar 25 07:08:33 2014

@<TRIPOS>MOLECULE
3g51_ANP_1_INTS_M
   72     0    12     0     0
SMALL
NO_CHARGES


@<TRIPOS>ATOM
      1 NZ         17.6025   34.5715   85.5090 N.4       3 LYC4        0.0000 
      2 NZ         18.5070   33.7660   84.2480 N.4      11 LYL4        0.0000 
      3 NZ         16.6980   35.3770   86.7700 N.4       7 LYP4        0.0000 
      4 N          18.6200   32.2210   84.0975 N.am      2 SEC2        0.0000 
      5 N          18.5070   33.7660   84.2480 N.am     10 SEL2        0.0000 
      6 N          18.7330   30.6760   83.9470 N.am      6 SEP2        0.0000 
      7 N          17.6025   34.5715   85.5090 N.am      2 SEC2        0.0000 
      8 N          16.6980   35.3770   86.7700 N.am      6 SEP2        0.0000 
      9 NZ         18.1550   33.4275   80.8920 N.4       3 LYC4        0.0000 
     10 NZ         19.5620   34.1150   81.9580 N.4      11 LYL4        0.0000 
     11 NZ         16.7480   32.7400   79.8260 N.4       7 LYP4        0.0000 
     12 N          20.3390   35.4285   81.6365 N.am      2 SEC2        0.0000 
     13 N          19.5620   34.1150   81.9580 N.am     10 SEL2        0.0000 
     14 N          21.1160   36.7420   81.3150 N.am      6 SEP2        0.0000 
     15 NZ         19.6560   34.7820   87.4795 N.4       3 LYC4        0.0000 
     16 NZ         19.3170   35.3160   86.2930 N.4      11 LYL4        0.0000 
     17 NZ         19.9950   34.2480   88.6660 N.4       7 LYP4        0.0000 
     18 NZ         18.0075   35.3465   86.5315 N.4       3 LYC4        0.0000 
     19 N          19.6560   34.7820   87.4795 N.am      2 SEC2        0.0000 
     20 N          19.3170   35.3160   86.2930 N.am     10 SEL2        0.0000 
     21 N          19.9950   34.2480   88.6660 N.am      6 SEP2        0.0000 
     22 N          18.0075   35.3465   86.5315 N.am      2 SEC2        0.0000 
     23 NZ         20.2955   33.3295   87.6290 N.4       3 LYC4        0.0000 
     24 NZ         20.5960   32.4110   86.5920 N.4      11 LYL4        0.0000 
     25 N          20.2955   33.3295   87.6290 N.am      2 SEC2        0.0000 
     26 N          20.5960   32.4110   86.5920 N.am     10 SEL2        0.0000 
     27 N          20.1570   31.1430   86.8540 N.am      2 SEC2        0.0000 
     28 N          19.7180   29.8750   87.1160 N.am      6 SEP2        0.0000 
     29 CA         23.3940   34.1815   83.3725 C.3       4 GLC5        0.0000 
     30 CA         23.7660   32.6690   84.3730 C.3      12 GLL5        0.0000 
     31 CA         23.0220   35.6940   82.3720 C.3       8 GLP5        0.0000 
     32 CA         26.9795   32.6190   84.5880 C.3       4 GLC5        0.0000 
     33 CA         25.0120   31.8180   84.5710 C.3      12 GLL5        0.0000 
     34 CA         28.9470   33.4200   84.6050 C.3       8 GLP5        0.0000 
     35 CA         24.3955   28.3550   85.2700 C.3       4 GLC5        0.0000 
     36 CA         24.6950   30.3400   84.7510 C.3      12 GLL5        0.0000 
     37 CA         24.0960   26.3700   85.7890 C.3       8 GLP5        0.0000 
     38 O          23.3135   29.1265   83.6240 O.2       1 ALC1        0.0000 
     39 O          24.5810   29.6240   83.5190 O.2       9 ALL1        0.0000 
     40 O          22.0460   28.6290   83.7290 O.2       5 ALP1        0.0000 
     41 CA         27.5740   32.2230   85.5155 C.3       4 GLC5        0.0000 
     42 CA         26.2010   31.0260   86.4260 C.3      12 GLL5        0.0000 
     43 CA         26.2345   32.9570   87.3905 C.3       4 GLC5        0.0000 
     44 CA         26.2680   34.8880   88.3550 C.3       8 GLP5        0.0000 
     45 CA         23.2650   29.4985   88.8545 C.3       4 GLC5        0.0000 
     46 CA         24.9360   30.4470   89.8380 C.3      12 GLL5        0.0000 
     47 CA         21.5940   28.5500   87.8710 C.3       8 GLP5        0.0000 
     48 CA         24.6880   28.1155   91.7915 C.3       4 GLC5        0.0000 
     49 CA         25.2220   29.8740   91.1640 C.3      12 GLL5        0.0000 
     50 CA         24.1540   26.3570   92.4190 C.3       8 GLP5        0.0000 
     51 O          24.6145   29.7810   93.4730 O.2       1 ALC1        0.0000 
     52 O          24.2910   29.9690   92.1400 O.2       9 ALL1        0.0000 
     53 O          24.9380   29.5930   94.8060 O.2       5 ALP1        0.0000 
     54 N          26.6385   28.2175   92.3820 N.am      2 SEC2        0.0000 
     55 N          26.4280   29.2800   91.3510 N.am     10 SEL2        0.0000 
     56 N          26.8490   27.1550   93.4130 N.am      6 SEP2        0.0000 
     57 CA         28.4705   30.5690   90.8100 C.3       4 GLC5        0.0000 
     58 CA         27.3430   29.1950   90.3670 C.3      12 GLL5        0.0000 
     59 CA         29.5980   31.9430   91.2530 C.3       8 GLP5        0.0000 
     60 CA         26.4130   27.5510   91.0770 C.3       4 GLC5        0.0000 
     61 CA         25.4830   25.9070   91.7870 C.3       8 GLP5        0.0000 
     62 CA         26.3350   28.0555   89.1450 C.3       4 GLC5        0.0000 
     63 CA         25.3270   26.9160   87.9230 C.3       8 GLP5        0.0000 
     64 CA         24.6535   33.6247   86.0605 C.3       4 GLC5        0.0000 
     65 CA         24.9180   35.0060   87.6490 C.3       8 GLP5        0.0000 
     66 CA         25.6833   28.6750   86.9537 C.3       4 GLC5        0.0000 
     67 CA         25.7728   32.3263   89.5355 C.3       4 GLC5        0.0000 
     68 CA         25.9850   30.3120   88.8140 C.3      12 GLL5        0.0000 
     69 CA         26.0850   34.2730   89.7450 C.3       8 GLP5        0.0000 
     70 CA         25.6990   31.3102   91.9055 C.3       4 GLC5        0.0000 
     71 CA         26.3190   32.4600   93.3100 C.3       8 GLP5        0.0000 
     72 CA         25.4295   28.5761   88.7902 C.3       4 GLC5        0.0000 
@<TRIPOS>BOND
@<TRIPOS>SUBSTRUCTURE
     1 ALC1       38 GROUP        1 X    ALC  0     ROOT ALC X 1
     2 SEC2        4 GROUP        1 X    SEC  0     **** SEC X 2
     3 LYC4        1 GROUP        1 X    LYC  0     **** LYC X 4
     4 GLC5       29 GROUP        1 X    GLC  0     **** GLC X 6
     5 ALP1       40 GROUP        1 Y    ALP  0     ROOT ALP Y 8
     6 SEP2        6 GROUP        1 Y    SEP  0     **** SEP Y 9
     7 LYP4        3 GROUP        1 Y    LYP  0     **** LYP Y 11
     8 GLP5       31 GROUP        1 Y    GLP  0     **** GLP Y 13
     9 ALL1       39 GROUP        1 Z    ALL  0     ROOT ALL Z 15
    10 SEL2        5 GROUP        1 Z    SEL  0     **** SEL Z 16
    11 LYL4        2 GROUP        1 Z    LYL  0     **** LYL Z 18
    12 GLL5       30 GROUP        1 Z    GLL  0     **** GLL Z 20
@<TRIPOS>SET

