#    Name: 3g51_ANP_1_ligand
#    Modification time : Tue Mar 25 07:08:33 2014

@<TRIPOS>MOLECULE
3g51_ANP_1_ligand
   43    45     1     0     0
SMALL
NO_CHARGES


@<TRIPOS>ATOM
      1 PG         18.9380   34.7480   83.1860 P.3       1 ANP480      0.0000 
      2 O1G        17.8770   35.7720   82.8690 O.co2     1 ANP480      0.0000 
      3 O2G        18.5070   33.7660   84.2480 O.co2     1 ANP480      0.0000 
      4 O3G        19.5620   34.1150   81.9580 O.co2     1 ANP480      0.0000 
      5 PB         20.5150   35.6430   85.4310 P.3       1 ANP480      0.0000 
      6 O1B        21.2560   36.9320   85.7010 O.co2     1 ANP480      0.0000 
      7 O2B        19.3170   35.3160   86.2930 O.co2     1 ANP480      0.0000 
      8 N3B        20.1640   35.5870   83.8560 N.4       1 ANP480      0.0000 
      9 PA         21.3190   32.9100   85.3670 P.3       1 ANP480      0.0000 
     10 O1A        20.5960   32.4110   86.5920 O.co2     1 ANP480      0.0000 
     11 O2A        20.7170   32.6340   84.0140 O.co2     1 ANP480      0.0000 
     12 O3A        21.6270   34.4810   85.5490 O.3       1 ANP480      0.0000 
     13 O5'        22.8060   32.2970   85.3580 O.3       1 ANP480      0.0000 
     14 C5'        23.7660   32.6690   84.3730 C.3       1 ANP480      0.0000 
     15 C4'        25.0120   31.8180   84.5710 C.3       1 ANP480      0.0000 
     16 O4'        25.6930   32.1960   85.7800 O.3       1 ANP480      0.0000 
     17 C3'        24.6950   30.3400   84.7510 C.3       1 ANP480      0.0000 
     18 O3'        24.5810   29.6240   83.5190 O.3       1 ANP480      0.0000 
     19 C2'        25.8780   29.8420   85.5430 C.3       1 ANP480      0.0000 
     20 O2'        26.9770   29.6460   84.6370 O.3       1 ANP480      0.0000 
     21 C1'        26.2010   31.0260   86.4260 C.3       1 ANP480      0.0000 
     22 N9         25.4950   30.8930   87.7210 N.pl3     1 ANP480      0.0000 
     23 C8         24.2540   31.3530   87.9870 C.2       1 ANP480      0.0000 
     24 N7         23.8900   31.0930   89.2700 N.2       1 ANP480      0.0000 
     25 C5         24.9360   30.4470   89.8380 C.ar      1 ANP480      0.0000 
     26 C6         25.2220   29.8740   91.1640 C.ar      1 ANP480      0.0000 
     27 N6         24.2910   29.9690   92.1400 N.pl3     1 ANP480      0.0000 
     28 N1         26.4280   29.2800   91.3510 N.ar      1 ANP480      0.0000 
     29 C2         27.3430   29.1950   90.3670 C.ar      1 ANP480      0.0000 
     30 N3         27.1460   29.6950   89.1270 N.ar      1 ANP480      0.0000 
     31 C4         25.9850   30.3120   88.8140 C.ar      1 ANP480      0.0000 
     32 H          24.0563   33.7175   84.4626 H         1 ANP480      0.0000 
     33 H          23.3978   32.4968   83.3598 H         1 ANP480      0.0000 
     34 H          25.6638   31.9229   83.7271 H         1 ANP480      0.0000 
     35 H          23.8302   30.2595   85.3728 H         1 ANP480      0.0000 
     36 H          25.6244   29.0279   86.1061 H         1 ANP480      0.0000 
     37 H          27.2451   31.0832   86.5751 H         1 ANP480      0.0000 
     38 H          23.6811   31.8187   87.3367 H         1 ANP480      0.0000 
     39 H          24.5360   29.5674   93.0224 H         1 ANP480      0.0000 
     40 H          23.4400   30.4324   91.8928 H         1 ANP480      0.0000 
     41 H          28.2679   28.7105   90.5738 H         1 ANP480      0.0000 
     42 H          23.6782   29.1952   83.5516 H         1 ANP480      0.0000 
     43 H          26.5700   29.2333   83.8222 H         1 ANP480      0.0000 
@<TRIPOS>BOND
     1    2    1 ar   
     2    3    1 ar   
     3    4    1 ar   
     4    8    1 1    
     5    6    5 ar   
     6    7    5 ar   
     7    8    5 1    
     8   12    5 1    
     9   10    9 ar   
    10   11    9 ar   
    11   12    9 1    
    12   13    9 1    
    13   14   13 1    
    14   15   14 1    
    15   32   14 1    
    16   33   14 1    
    17   16   15 1    
    18   17   15 1    
    19   34   15 1    
    20   21   16 1    
    21   18   17 1    
    22   19   17 1    
    23   35   17 1    
    24   42   18 1    
    25   20   19 1    
    26   21   19 1    
    27   36   19 1    
    28   43   20 1    
    29   22   21 1    
    30   37   21 1    
    31   23   22 1    
    32   31   22 1    
    33   24   23 2    
    34   38   23 1    
    35   25   24 1    
    36   26   25 ar   
    37   31   25 ar   
    38   27   26 1    
    39   28   26 ar   
    40   39   27 1    
    41   40   27 1    
    42   29   28 ar   
    43   30   29 ar   
    44   41   29 1    
    45   31   30 ar   
@<TRIPOS>SUBSTRUCTURE
     1 ANP480      1 GROUP   
@<TRIPOS>SET

