#    Name: 3fxw_F10_1_INTS_M
#    Modification time : Tue Mar 25 06:44:23 2014

@<TRIPOS>MOLECULE
3fxw_F10_1_INTS_M
   70     0     9     0     0
SMALL
NO_CHARGES


@<TRIPOS>ATOM
      1 O          16.0435   -0.9785   18.8240 O.2       1 ALC1        0.0000 
      2 O          16.3010    0.4090   18.3860 O.2       7 ALL1        0.0000 
      3 O          15.7860   -2.3660   19.2620 O.2       4 ALP1        0.0000 
      4 N          17.4855    0.4445   20.9880 N.am      2 SEC2        0.0000 
      5 N          18.0590    0.6660   19.7370 N.am      8 SEL2        0.0000 
      6 N          16.9120    0.2230   22.2390 N.am      5 SEP2        0.0000 
      7 CA         20.6525    9.0435   14.5495 C.3       3 GLC5        0.0000 
      8 CA         21.4400    8.1570   13.2430 C.3       9 GLL5        0.0000 
      9 CA         19.8650    9.9300   15.8560 C.3       6 GLP5        0.0000 
     10 CA         22.9955    6.9510   12.7875 C.3       3 GLC5        0.0000 
     11 CA         24.5510    5.7450   12.3320 C.3       6 GLP5        0.0000 
     12 CA         20.2630    3.2600   19.3335 C.3       3 GLC5        0.0000 
     13 CA         19.2170    2.6230   17.7120 C.3       9 GLL5        0.0000 
     14 CA         21.3090    3.8970   20.9550 C.3       6 GLP5        0.0000 
     15 CA         13.8750    2.1745   17.6260 C.3       3 GLC5        0.0000 
     16 CA         15.4880    0.7190   17.2060 C.3       9 GLL5        0.0000 
     17 CA         12.2620    3.6300   18.0460 C.3       6 GLP5        0.0000 
     18 CA         14.3245    0.6975   18.7970 C.3       3 GLC5        0.0000 
     19 CA         13.1610    0.6760   20.3880 C.3       6 GLP5        0.0000 
     20 CA         23.9520    3.6430   16.7975 C.3       3 GLC5        0.0000 
     21 CA         22.4380    5.1620   16.1410 C.3       9 GLL5        0.0000 
     22 CA         25.4660    2.1240   17.4540 C.3       6 GLP5        0.0000 
     23 CA         21.6300    7.0105   16.2720 C.3       3 GLC5        0.0000 
     24 CA         20.9740    5.9910   14.4560 C.3       9 GLL5        0.0000 
     25 CA         22.2860    8.0300   18.0880 C.3       6 GLP5        0.0000 
     26 CA         20.9695    3.9180   14.0320 C.3       3 GLC5        0.0000 
     27 CA         20.9650    1.8450   13.6080 C.3       6 GLP5        0.0000 
     28 CA         20.1205    3.5280   12.0870 C.3       3 GLC5        0.0000 
     29 CA         19.2870    5.3920   12.0980 C.3       9 GLL5        0.0000 
     30 CA         20.9540    1.6640   12.0760 C.3       6 GLP5        0.0000 
     31 N          23.3670    6.3320   14.2805 N.am      2 SEC2        0.0000 
     32 N          22.1800    5.9780   15.0910 N.am      8 SEL2        0.0000 
     33 N          24.5540    6.6860   13.4700 N.am      5 SEP2        0.0000 
     34 CA         22.7903    9.5087   13.1775 C.3       3 GLC5        0.0000 
     35 CA         24.2330   10.4310   13.6660 C.3       6 GLP5        0.0000 
     36 CA         22.6268    8.4902   11.1810 C.3       3 GLC5        0.0000 
     37 CA         23.9060    8.3940    9.6730 C.3       6 GLP5        0.0000 
     38 CA         19.1578    7.1915   14.7948 C.3       3 GLC5        0.0000 
     39 CA         17.8570    8.8130   14.9070 C.3       6 GLP5        0.0000 
     40 CA         19.7605    9.9342   12.7535 C.3       3 GLC5        0.0000 
     41 CA         21.2550    9.0160   12.1350 C.3       9 GLL5        0.0000 
     42 CA         18.6710   11.0250   13.9100 C.3       6 GLP5        0.0000 
     43 CA         15.6000    3.7673   15.9747 C.3       3 GLC5        0.0000 
     44 CA         17.2900    2.3020   16.5110 C.3       9 GLL5        0.0000 
     45 CA         14.5770    5.5170   15.6160 C.3       6 GLP5        0.0000 
     46 CA         19.5559    5.6698   17.2619 C.3       3 GLC5        0.0000 
     47 CA         19.9430    5.1490   14.9090 C.3       9 GLL5        0.0000 
     48 CA         18.3670    6.8150   18.4960 C.3       6 GLP5        0.0000 
     49 CA         22.1095    6.3860   17.2308 C.3       3 GLC5        0.0000 
     50 CA         21.4280    4.3220   16.6060 C.3       9 GLL5        0.0000 
     51 CA         22.8495    4.7285   18.1112 C.3       3 GLC5        0.0000 
     52 CA         23.7660    4.7150   19.8490 C.3       6 GLP5        0.0000 
     53 CA         23.2855    4.1990   15.1163 C.3       3 GLC5        0.0000 
     54 CA         24.6380    3.6560   13.8590 C.3       6 GLP5        0.0000 
     55 CA         21.4490    3.2935   14.9908 C.3       3 GLC5        0.0000 
     56 CA         17.7120    3.9262   18.1058 C.3       3 GLC5        0.0000 
     57 CA         16.8660    5.0150   19.3800 C.3       6 GLP5        0.0000 
     58 CA         20.2876    2.9495   14.8029 C.3       3 GLC5        0.0000 
     59 CA         19.1590    3.3810   16.5460 C.3       9 GLL5        0.0000 
     60 CA         19.6635    1.1867   16.7047 C.3       3 GLC5        0.0000 
     61 CA         20.7690   -0.4640   16.5780 C.3       6 GLP5        0.0000 
     62 CA         22.3627    5.4357   13.3027 C.3       3 GLC5        0.0000 
     63 CA         23.8470    4.4150   12.7330 C.3       6 GLP5        0.0000 
     64 CA         19.1082    7.7782   13.8047 C.3       3 GLC5        0.0000 
     65 CA         20.7830    6.9220   13.2890 C.3       9 GLL5        0.0000 
     66 CA         22.0095    8.2265   10.3600 C.3       3 GLC5        0.0000 
     67 CA         19.7810    7.4470   11.0350 C.3       9 GLL5        0.0000 
     68 CA         20.0009    5.3935   10.0224 C.3       3 GLC5        0.0000 
     69 CA         19.9360    6.5650   12.1160 C.3       9 GLL5        0.0000 
     70 CA         20.4290    4.5880    8.2080 C.3       6 GLP5        0.0000 
@<TRIPOS>BOND
@<TRIPOS>SUBSTRUCTURE
     1 ALC1        1 GROUP        1 X    ALC  0     ROOT ALC X 1
     2 SEC2        4 GROUP        1 X    SEC  0     **** SEC X 2
     3 GLC5        7 GROUP        1 X    GLC  0     **** GLC X 6
     4 ALP1        3 GROUP        1 Y    ALP  0     ROOT ALP Y 8
     5 SEP2        6 GROUP        1 Y    SEP  0     **** SEP Y 9
     6 GLP5        9 GROUP        1 Y    GLP  0     **** GLP Y 13
     7 ALL1        2 GROUP        1 Z    ALL  0     ROOT ALL Z 15
     8 SEL2        5 GROUP        1 Z    SEL  0     **** SEL Z 16
     9 GLL5        8 GROUP        1 Z    GLL  0     **** GLL Z 20
@<TRIPOS>SET

