#    Name: 3fxw_F10_1_ligand
#    Modification time : Tue Mar 25 06:44:23 2014

@<TRIPOS>MOLECULE
3fxw_F10_1_ligand
   37    40     1     0     0
SMALL
NO_CHARGES


@<TRIPOS>ATOM
      1 N1         16.3010    0.4090   18.3860 N.am      1 F101        0.0000 
      2 O3         18.0590    0.6660   19.7370 O.2       1 F101        0.0000 
      3 C10        21.4400    8.1570   13.2430 C.ar      1 F101        0.0000 
      4 C11        19.9430    5.1490   14.9090 C.ar      1 F101        0.0000 
      5 C9         21.2550    9.0160   12.1350 C.ar      1 F101        0.0000 
      6 C14        19.2170    2.6230   17.7120 C.2       1 F101        0.0000 
      7 C17        15.4880    0.7190   17.2060 C.3       1 F101        0.0000 
      8 C18        15.9560    1.7330   16.1560 C.3       1 F101        0.0000 
      9 C15        18.0310    1.9480   17.7340 C.2       1 F101        0.0000 
     10 C16        17.4480    0.9730   18.7090 C.2       1 F101        0.0000 
     11 C21        21.4280    4.3220   16.6060 C.ar      1 F101        0.0000 
     12 C22        22.4380    5.1620   16.1410 C.ar      1 F101        0.0000 
     13 C19        17.2900    2.3020   16.5110 C.2       1 F101        0.0000 
     14 C12        20.1800    4.3050   15.9900 C.ar      1 F101        0.0000 
     15 C13        19.1590    3.3810   16.5460 C.2       1 F101        0.0000 
     16 C2         20.9740    5.9910   14.4560 C.ar      1 F101        0.0000 
     17 C4         20.7830    6.9220   13.2890 C.ar      1 F101        0.0000 
     18 C5         19.9360    6.5650   12.1160 C.ar      1 F101        0.0000 
     19 C7         19.7810    7.4470   11.0350 C.ar      1 F101        0.0000 
     20 C8         20.4450    8.6710   11.0590 C.ar      1 F101        0.0000 
     21 F6         19.2870    5.3920   12.0980 F         1 F101        0.0000 
     22 N20        18.0410    3.1770   15.8130 N.pl3     1 F101        0.0000 
     23 N23        22.1800    5.9780   15.0910 N.ar      1 F101        0.0000 
     24 H          15.8750   -0.3544   19.0082 H         1 F101        0.0000 
     25 H          22.0556    8.4442   14.0079 H         1 F101        0.0000 
     26 H          19.0339    5.1614   14.4462 H         1 F101        0.0000 
     27 H          21.7449    9.9329   12.1346 H         1 F101        0.0000 
     28 H          19.9130    2.5948   18.3251 H         1 F101        0.0000 
     29 H          14.4466    1.0502   17.5420 H         1 F101        0.0000 
     30 H          15.2517   -0.2493   16.6459 H         1 F101        0.0000 
     31 H          15.2120    2.5319   16.0881 H         1 F101        0.0000 
     32 H          16.0072    1.2306   15.1858 H         1 F101        0.0000 
     33 H          21.6078    3.7069   17.4149 H         1 F101        0.0000 
     34 H          23.3566    5.1493   16.5989 H         1 F101        0.0000 
     35 H          19.1894    7.1905   10.2455 H         1 F101        0.0000 
     36 H          20.3340    9.3274   10.2701 H         1 F101        0.0000 
     37 H          17.8298    3.5725   14.9744 H         1 F101        0.0000 
@<TRIPOS>BOND
     1    7    1 1    
     2   10    1 am   
     3   24    1 1    
     4   10    2 2    
     5    5    3 ar   
     6   17    3 ar   
     7   25    3 1    
     8   14    4 ar   
     9   16    4 ar   
    10   26    4 1    
    11   20    5 ar   
    12   27    5 1    
    13    9    6 1    
    14   15    6 2    
    15   28    6 1    
    16    8    7 1    
    17   29    7 1    
    18   30    7 1    
    19   13    8 1    
    20   31    8 1    
    21   32    8 1    
    22   10    9 1    
    23   13    9 2    
    24   12   11 ar   
    25   14   11 ar   
    26   33   11 1    
    27   23   12 ar   
    28   34   12 1    
    29   22   13 1    
    30   15   14 1    
    31   22   15 1    
    32   17   16 1    
    33   23   16 ar   
    34   18   17 ar   
    35   19   18 ar   
    36   21   18 1    
    37   20   19 ar   
    38   35   19 1    
    39   36   20 1    
    40   37   22 1    
@<TRIPOS>SUBSTRUCTURE
     1 F101        1 GROUP   
@<TRIPOS>SET

