#    Name: 4d9t_0JG_1_INTS_M
#    Modification time : Mon Apr  7 22:26:37 2014

@<TRIPOS>MOLECULE
4d9t_0JG_1_INTS_M
   66     0     9     0     0
SMALL
NO_CHARGES


@<TRIPOS>ATOM
      1 O         -34.9415   15.7455  -19.4470 O.2       1 ALC1        0.0000 
      2 O         -33.8570   14.9370  -19.9370 O.2       7 ALL1        0.0000 
      3 O         -36.0260   16.5540  -18.9570 O.2       4 ALP1        0.0000 
      4 CA        -35.4935   15.5000  -21.2680 C.3       3 GLC5        0.0000 
      5 CA        -33.4580   14.6180  -21.2810 C.3       9 GLL5        0.0000 
      6 CA        -37.5290   16.3820  -21.2550 C.3       6 GLP5        0.0000 
      7 CA        -33.2740   16.6150  -21.6165 C.3       3 GLC5        0.0000 
      8 CA        -33.0900   18.6120  -21.9520 C.3       6 GLP5        0.0000 
      9 CA        -32.1015   10.8545  -24.2545 C.3       3 GLC5        0.0000 
     10 CA        -30.3020   12.0080  -24.2500 C.3       9 GLL5        0.0000 
     11 CA        -33.9010    9.7010  -24.2590 C.3       6 GLP5        0.0000 
     12 O         -29.9995   10.6975  -26.8015 O.2       1 ALC1        0.0000 
     13 O         -28.9640   11.7470  -27.1260 O.2       7 ALL1        0.0000 
     14 O         -31.0350    9.6480  -26.4770 O.2       4 ALP1        0.0000 
     15 CA        -28.7130    8.4560  -20.5115 C.3       3 GLC5        0.0000 
     16 CA        -26.9340    7.7420  -20.3750 C.3       9 GLL5        0.0000 
     17 CA        -30.4920    9.1700  -20.6480 C.3       6 GLP5        0.0000 
     18 CA        -27.2405    8.2645  -18.4850 C.3       3 GLC5        0.0000 
     19 CA        -27.5470    8.7870  -16.5950 C.3       6 GLP5        0.0000 
     20 N         -26.7485   10.0875  -17.9885 N.am      2 SEC2        0.0000 
     21 N         -26.8760   10.2550  -19.6240 N.am      8 SEL2        0.0000 
     22 N         -26.6210    9.9200  -16.3530 N.am      5 SEP2        0.0000 
     23 CA        -26.1080   13.1280  -20.0095 C.3       3 GLC5        0.0000 
     24 CA        -27.5050   12.3350  -21.4490 C.3       9 GLL5        0.0000 
     25 CA        -24.7110   13.9210  -18.5700 C.3       6 GLP5        0.0000 
     26 CA        -30.5685   13.5540  -13.3980 C.3       3 GLC5        0.0000 
     27 CA        -31.0730   12.4000  -14.9190 C.3       9 GLL5        0.0000 
     28 CA        -30.0640   14.7080  -11.8770 C.3       6 GLP5        0.0000 
     29 CA        -29.5150   11.2180  -16.6040 C.3       3 GLC5        0.0000 
     30 CA        -30.0990   13.3210  -17.0990 C.3       9 GLL5        0.0000 
     31 CA        -28.9310    9.1150  -16.1090 C.3       6 GLP5        0.0000 
     32 CA        -34.3350   12.7590  -23.6450 C.3       3 GLC5        0.0000 
     33 CA        -33.7970   14.8830  -23.6690 C.3       9 GLL5        0.0000 
     34 CA        -34.8730   10.6350  -23.6210 C.3       6 GLP5        0.0000 
     35 CA        -35.6340   14.3760  -23.5285 C.3       3 GLC5        0.0000 
     36 CA        -37.4710   13.8690  -23.3880 C.3       6 GLP5        0.0000 
     37 CA        -33.7560   16.7060  -23.4985 C.3       3 GLC5        0.0000 
     38 CA        -33.7150   18.5290  -23.3280 C.3       6 GLP5        0.0000 
     39 CA        -32.0315   15.9905  -23.5940 C.3       3 GLC5        0.0000 
     40 CA        -30.2660   17.0980  -23.5190 C.3       6 GLP5        0.0000 
     41 N         -34.9905   16.3380  -22.4780 N.am      2 SEC2        0.0000 
     42 N         -34.1480   15.1790  -22.3630 N.am      8 SEL2        0.0000 
     43 N         -35.8330   17.4970  -22.5930 N.am      5 SEP2        0.0000 
     44 CA        -34.2660   13.3490  -20.7122 C.3       3 GLC5        0.0000 
     45 CA        -35.6270   12.5360  -20.0100 C.3       6 GLP5        0.0000 
     46 CA        -33.5277   12.1000  -22.9303 C.3       3 GLC5        0.0000 
     47 CA        -32.3520   13.7060  -21.5480 C.3       9 GLL5        0.0000 
     48 CA        -31.2242   15.3315  -22.8792 C.3       3 GLC5        0.0000 
     49 CA        -32.0130   13.4240  -22.9310 C.3       9 GLL5        0.0000 
     50 CA        -30.2428   10.4230  -20.9098 C.3       3 GLC5        0.0000 
     51 CA        -30.4530   12.1400  -21.5560 C.3       9 GLL5        0.0000 
     52 CA        -29.1773   10.4383  -21.0425 C.3       3 GLC5        0.0000 
     53 CA        -28.2200   11.0780  -21.4250 C.3       9 GLL5        0.0000 
     54 CA        -31.1530   10.8234  -19.9436 C.3       3 GLC5        0.0000 
     55 CA        -32.2980   12.0590  -18.5080 C.3       9 GLL5        0.0000 
     56 CA        -33.7205   12.5064  -19.6246 C.3       3 GLC5        0.0000 
     57 CA        -31.7625   10.2652  -17.0237 C.3       3 GLC5        0.0000 
     58 CA        -31.2770    8.5360  -16.2630 C.3       6 GLP5        0.0000 
     59 CA        -31.1923   10.5012  -15.9538 C.3       3 GLC5        0.0000 
     60 CA        -31.1420   12.5330  -16.3700 C.3       9 GLL5        0.0000 
     61 CA        -31.8287   11.8193  -13.9823 C.3       3 GLC5        0.0000 
     62 CA        -32.5500   11.1720  -12.3200 C.3       6 GLP5        0.0000 
     63 CA        -32.6108   13.4664  -15.3051 C.3       3 GLC5        0.0000 
     64 CA        -33.8500   14.6170  -14.7930 C.3       6 GLP5        0.0000 
     65 CA        -31.1809   14.8710  -17.1826 C.3       3 GLC5        0.0000 
     66 CA        -31.9520   16.5540  -16.7410 C.3       6 GLP5        0.0000 
@<TRIPOS>BOND
@<TRIPOS>SUBSTRUCTURE
     1 ALC1        1 GROUP        1 X    ALC  0     ROOT ALC X 1
     2 SEC2       20 GROUP        1 X    SEC  0     **** SEC X 2
     3 GLC5        4 GROUP        1 X    GLC  0     **** GLC X 6
     4 ALP1        3 GROUP        1 Y    ALP  0     ROOT ALP Y 8
     5 SEP2       22 GROUP        1 Y    SEP  0     **** SEP Y 9
     6 GLP5        6 GROUP        1 Y    GLP  0     **** GLP Y 13
     7 ALL1        2 GROUP        1 Z    ALL  0     ROOT ALL Z 15
     8 SEL2       21 GROUP        1 Z    SEL  0     **** SEL Z 16
     9 GLL5        5 GROUP        1 Z    GLL  0     **** GLL Z 20
@<TRIPOS>SET

