#    Name: 4d9t_0JG_1_ligand
#    Modification time : Mon Apr  7 22:26:37 2014

@<TRIPOS>MOLECULE
4d9t_0JG_1_ligand
   50    52     1     0     0
SMALL
NO_CHARGES


@<TRIPOS>ATOM
      1 N01       -33.8570   14.9370  -19.9370 N.pl3     1 0JG900      0.0000 
      2 C02       -33.4580   14.6180  -21.2810 C.ar      1 0JG900      0.0000 
      3 C03       -32.3520   13.7060  -21.5480 C.ar      1 0JG900      0.0000 
      4 C04       -32.0130   13.4240  -22.9310 C.ar      1 0JG900      0.0000 
      5 N05       -30.8810   12.4850  -22.9700 N.pl3     1 0JG900      0.0000 
      6 C06       -30.3020   12.0080  -24.2500 C.2       1 0JG900      0.0000 
      7 C07       -29.1300   12.7390  -24.8650 C.2       1 0JG900      0.0000 
      8 C08       -28.3570   11.9560  -25.8990 C.3       1 0JG900      0.0000 
      9 O09       -28.9640   11.7470  -27.1260 O.3       1 0JG900      0.0000 
     10 C10       -30.4530   12.1400  -21.5560 C.2       1 0JG900      0.0000 
     11 C11       -29.5340   11.2120  -20.7870 C.3       1 0JG900      0.0000 
     12 C12       -28.2200   11.0780  -21.4250 C.3       1 0JG900      0.0000 
     13 C13       -27.5220    9.9770  -20.6670 C.2       1 0JG900      0.0000 
     14 O14       -27.5820    8.7620  -21.0710 O.3       1 0JG900      0.0000 
     15 C15       -26.9340    7.7420  -20.3750 C.3       1 0JG900      0.0000 
     16 O16       -26.8760   10.2550  -19.6240 O.2       1 0JG900      0.0000 
     17 C17       -27.5050   12.3350  -21.4490 C.1       1 0JG900      0.0000 
     18 N18       -26.9620   13.3000  -21.4320 N.1       1 0JG900      0.0000 
     19 C19       -31.3680   12.9470  -20.7160 C.2       1 0JG900      0.0000 
     20 C20       -31.2920   12.8420  -19.2250 C.ar      1 0JG900      0.0000 
     21 C21       -32.2980   12.0590  -18.5080 C.ar      1 0JG900      0.0000 
     22 C22       -32.1980   11.9300  -17.0610 C.ar      1 0JG900      0.0000 
     23 C23       -31.1420   12.5330  -16.3700 C.ar      1 0JG900      0.0000 
     24 C24       -31.0730   12.4000  -14.9190 C.3       1 0JG900      0.0000 
     25 C25       -30.0990   13.3210  -17.0990 C.ar      1 0JG900      0.0000 
     26 C26       -30.1990   13.4490  -18.5140 C.ar      1 0JG900      0.0000 
     27 N27       -32.7320   14.0090  -23.9600 N.ar      1 0JG900      0.0000 
     28 C28       -33.7970   14.8830  -23.6690 C.ar      1 0JG900      0.0000 
     29 N29       -34.1480   15.1790  -22.3630 N.ar      1 0JG900      0.0000 
     30 H         -34.6320   15.5622  -19.8447 H         1 0JG900      0.0000 
     31 H         -33.3262   14.5071  -19.2066 H         1 0JG900      0.0000 
     32 H         -30.6740   11.2127  -24.7108 H         1 0JG900      0.0000 
     33 H         -28.8973   13.6279  -24.6177 H         1 0JG900      0.0000 
     34 H         -28.0654   10.9733  -25.4083 H         1 0JG900      0.0000 
     35 H         -27.3545   12.4782  -26.0164 H         1 0JG900      0.0000 
     36 H         -30.0230   10.2267  -20.7049 H         1 0JG900      0.0000 
     37 H         -29.4244   11.6017  -19.7609 H         1 0JG900      0.0000 
     38 H         -28.3856   10.7079  -22.4458 H         1 0JG900      0.0000 
     39 H         -33.0434   11.6192  -19.0074 H         1 0JG900      0.0000 
     40 H         -32.9128   11.3931  -16.5730 H         1 0JG900      0.0000 
     41 H         -29.3603   13.7363  -16.5739 H         1 0JG900      0.0000 
     42 H         -29.4954   13.9722  -19.0310 H         1 0JG900      0.0000 
     43 H         -34.3216   15.3074  -24.4545 H         1 0JG900      0.0000 
     44 H         -25.9472    7.8959  -20.3240 H         1 0JG900      0.0000 
     45 H         -27.2673    7.6636  -19.4355 H         1 0JG900      0.0000 
     46 H         -27.0697    6.8516  -20.8094 H         1 0JG900      0.0000 
     47 H         -31.0091   11.4429  -14.6364 H         1 0JG900      0.0000 
     48 H         -30.2764   12.8712  -14.5403 H         1 0JG900      0.0000 
     49 H         -31.8808   12.7843  -14.4720 H         1 0JG900      0.0000 
     50 H         -29.6745   11.0656  -26.9504 H         1 0JG900      0.0000 
@<TRIPOS>BOND
     1    2    1 1    
     2   30    1 1    
     3   31    1 1    
     4    3    2 ar   
     5   29    2 ar   
     6    4    3 ar   
     7   19    3 1    
     8    5    4 1    
     9   27    4 ar   
    10    6    5 1    
    11   10    5 1    
    12    7    6 2    
    13   32    6 1    
    14    8    7 1    
    15   33    7 1    
    16    9    8 1    
    17   34    8 1    
    18   35    8 1    
    19   50    9 1    
    20   11   10 1    
    21   19   10 2    
    22   12   11 1    
    23   36   11 1    
    24   37   11 1    
    25   13   12 1    
    26   17   12 1    
    27   38   12 1    
    28   14   13 1    
    29   16   13 2    
    30   15   14 1    
    31   44   15 1    
    32   45   15 1    
    33   46   15 1    
    34   18   17 3    
    35   20   19 1    
    36   21   20 ar   
    37   26   20 ar   
    38   22   21 ar   
    39   39   21 1    
    40   23   22 ar   
    41   40   22 1    
    42   24   23 1    
    43   25   23 ar   
    44   47   24 1    
    45   48   24 1    
    46   49   24 1    
    47   26   25 ar   
    48   41   25 1    
    49   42   26 1    
    50   28   27 ar   
    51   29   28 ar   
    52   43   28 1    
@<TRIPOS>SUBSTRUCTURE
     1 0JG900      1 GROUP   
@<TRIPOS>SET

