#    Name: 3cx8_GSP_1_INTS_M
#    Modification time : Mon Mar 24 22:28:08 2014

@<TRIPOS>MOLECULE
3cx8_GSP_1_INTS_M
   93     0    15     0     0
SMALL
NO_CHARGES


@<TRIPOS>ATOM
      1 N          12.6200    8.2970   18.1995 N.am      2 SEC2        0.0000 
      2 N          11.5760    7.5630   17.4380 N.am     12 SEL2        0.0000 
      3 N          13.6640    9.0310   18.9610 N.am      7 SEP2        0.0000 
      4 N          10.4845    8.1645   18.3600 N.am      2 SEC2        0.0000 
      5 N           9.3930    8.7660   19.2820 N.am      7 SEP2        0.0000 
      6 CA         13.3340    6.7375   19.7925 C.3       5 GLC5        0.0000 
      7 CA         11.5040    6.1310   19.7620 C.3      15 GLL5        0.0000 
      8 CA         15.1640    7.3440   19.8230 C.3      10 GLP5        0.0000 
      9 CA          9.5840    5.7545   20.0545 C.3       5 GLC5        0.0000 
     10 CA          7.6640    5.3780   20.3470 C.3      10 GLP5        0.0000 
     11 CA         12.5630    5.6610   21.1490 C.3       5 GLC5        0.0000 
     12 CA         13.6220    5.1910   22.5360 C.3      10 GLP5        0.0000 
     13 Zn         10.0870    5.3795   16.2350 Zn        4 ZIC7        0.0000 
     14 Zn         10.5890    5.2910   17.1900 Zn       14 ZIL7        0.0000 
     15 Zn          9.5850    5.4680   15.2800 Zn        9 ZIP7        0.0000 
     16 N           9.4500    4.5325   17.9185 N.am      2 SEC2        0.0000 
     17 N          10.5890    5.2910   17.1900 N.am     12 SEL2        0.0000 
     18 N           8.3110    3.7740   18.6470 N.am      7 SEP2        0.0000 
     19 N          13.8525    5.7225   16.5200 N.am      2 SEC2        0.0000 
     20 N          12.9050    5.3560   17.5570 N.am     12 SEL2        0.0000 
     21 N          14.8000    6.0890   15.4830 N.am      7 SEP2        0.0000 
     22 N          13.6160    4.2515   17.7390 N.am      2 SEC2        0.0000 
     23 N          14.3270    3.1470   17.9210 N.am      7 SEP2        0.0000 
     24 NZ         13.8700    7.0870   15.4115 N.4       3 LYC4        0.0000 
     25 NZ         12.9400    8.0850   15.3400 N.4      13 LYL4        0.0000 
     26 NZ         14.8000    6.0890   15.4830 N.4       8 LYP4        0.0000 
     27 N          13.1550    9.4985   14.8425 N.am      2 SEC2        0.0000 
     28 N          12.9400    8.0850   15.3400 N.am     12 SEL2        0.0000 
     29 N          13.3700   10.9120   14.3450 N.am      7 SEP2        0.0000 
     30 N          12.7735    8.5155   13.9200 N.am      2 SEC2        0.0000 
     31 N          12.6070    8.9460   12.5000 N.am      7 SEP2        0.0000 
     32 N          13.8700    7.0870   15.4115 N.am      2 SEC2        0.0000 
     33 Zn         10.1590    6.3765   15.1705 Zn        4 ZIC7        0.0000 
     34 Zn         10.7330    7.2850   15.0610 Zn       14 ZIL7        0.0000 
     35 N          10.4040    7.3765   13.5875 N.am      2 SEC2        0.0000 
     36 N          10.7330    7.2850   15.0610 N.am     12 SEL2        0.0000 
     37 N          10.0750    7.4680   12.1140 N.am      7 SEP2        0.0000 
     38 N           8.9460    9.9030   12.7900 N.am      2 SEC2        0.0000 
     39 N           9.3970   10.2170   14.2210 N.am     12 SEL2        0.0000 
     40 N           8.4950    9.5890   11.3590 N.am      7 SEP2        0.0000 
     41 N           8.7830   11.1320   13.5015 N.am      2 SEC2        0.0000 
     42 N           8.1690   12.0470   12.7820 N.am      7 SEP2        0.0000 
     43 N           9.0100    9.1445   17.8970 N.am      2 SEC2        0.0000 
     44 N           8.6270    9.5230   16.5120 N.am     12 SEL2        0.0000 
     45 N          12.2200   10.2525   15.1635 N.am      2 SEC2        0.0000 
     46 N          11.0700    9.5930   15.9820 N.am     12 SEL2        0.0000 
     47 CA         11.4440   11.2630   18.0280 C.3       5 GLC5        0.0000 
     48 CA          9.7070   12.1620   17.4290 C.3      15 GLL5        0.0000 
     49 CA         13.1810   10.3640   18.6270 C.3      10 GLP5        0.0000 
     50 N          11.3700   14.8135   17.2540 N.am      2 SEC2        0.0000 
     51 N           9.8170   14.4760   16.7080 N.am     12 SEL2        0.0000 
     52 N          12.9230   15.1510   17.8000 N.am      7 SEP2        0.0000 
     53 CA          6.3655   12.6900   18.3395 C.3       5 GLC5        0.0000 
     54 CA          7.6550   13.4990   16.8500 C.3      15 GLL5        0.0000 
     55 CA          5.0760   11.8810   19.8290 C.3      10 GLP5        0.0000 
     56 O           5.4250   14.5280   17.2180 O.2       1 ALC1        0.0000 
     57 O           6.8040   14.3610   17.5570 O.2      11 ALL1        0.0000 
     58 O           4.0460   14.6950   16.8790 O.2       6 ALP1        0.0000 
     59 CA          5.8150   14.8760   15.0800 C.3       5 GLC5        0.0000 
     60 CA          7.8350   14.0910   15.4590 C.3      15 GLL5        0.0000 
     61 CA          3.7950   15.6610   14.7010 C.3      10 GLP5        0.0000 
     62 O           5.8580   14.2725   13.9180 O.2       1 ALC1        0.0000 
     63 O           6.7290   14.6950   14.8630 O.2      11 ALL1        0.0000 
     64 O           4.9870   13.8500   12.9730 O.2       6 ALP1        0.0000 
     65 CA         11.0125   15.3450   16.0680 C.3       5 GLC5        0.0000 
     66 CA          8.9140   15.1260   15.7570 C.3      15 GLL5        0.0000 
     67 CA         13.1110   15.5640   16.3790 C.3      10 GLP5        0.0000 
     68 CA          8.2720   16.0380   13.8170 C.3       5 GLC5        0.0000 
     69 CA          7.6300   16.9500   11.8770 C.3      10 GLP5        0.0000 
     70 N          12.6075   14.8200   12.4470 N.am      2 SEC2        0.0000 
     71 N          11.1580   15.1120   12.9470 N.am     12 SEL2        0.0000 
     72 N          14.0570   14.5280   11.9470 N.am      7 SEP2        0.0000 
     73 CA         12.6405   16.7655   13.9430 C.3       5 GLC5        0.0000 
     74 CA         11.0470   16.4590   13.1570 C.3      15 GLL5        0.0000 
     75 CA         14.2340   17.0720   14.7290 C.3      10 GLP5        0.0000 
     76 CA         11.1740   15.3700   11.3460 C.3       5 GLC5        0.0000 
     77 CA         11.3010   14.2810    9.5350 C.3      10 GLP5        0.0000 
     78 N          13.9965   17.6895   11.8795 N.am      2 SEC2        0.0000 
     79 N          12.4080   17.6560   11.6850 N.am     12 SEL2        0.0000 
     80 N          15.5850   17.7230   12.0740 N.am      7 SEP2        0.0000 
     81 O          12.0480   20.0830   12.8535 O.2       1 ALC1        0.0000 
     82 O          11.2880   18.8850   13.1450 O.2      11 ALL1        0.0000 
     83 O          12.8080   21.2810   12.5620 O.2       6 ALP1        0.0000 
     84 O          11.0935   20.5880   12.9915 O.2       1 ALC1        0.0000 
     85 O          10.8990   22.2910   12.8380 O.2       6 ALP1        0.0000 
     86 O          10.4675   21.2515   13.7430 O.2       1 ALC1        0.0000 
     87 O          10.0360   20.2120   14.6480 O.2      11 ALL1        0.0000 
     88 CA         11.6580   16.0955   15.3195 C.3       5 GLC5        0.0000 
     89 CA         10.2050   16.6270   14.2600 C.3      15 GLL5        0.0000 
     90 CA          8.2907   11.6520   18.7245 C.3       5 GLC5        0.0000 
     91 CA          9.0620   13.5380   17.4870 C.3      15 GLL5        0.0000 
     92 CA          7.1970   10.4540   19.9910 C.3      10 GLP5        0.0000 
     93 CA          9.1280   16.7465   12.7927 C.3       5 GLC5        0.0000 
@<TRIPOS>BOND
@<TRIPOS>SUBSTRUCTURE
     1 ALC1       56 GROUP        1 X    ALC  0     ROOT ALC X 1
     2 SEC2        1 GROUP        1 X    SEC  0     **** SEC X 2
     3 LYC4       24 GROUP        1 X    LYC  0     **** LYC X 4
     4 ZIC7       13 GROUP        1 X    ZIC  0     **** ZIC X 5
     5 GLC5        6 GROUP        1 X    GLC  0     **** GLC X 6
     6 ALP1       58 GROUP        1 Y    ALP  0     ROOT ALP Y 8
     7 SEP2        3 GROUP        1 Y    SEP  0     **** SEP Y 9
     8 LYP4       26 GROUP        1 Y    LYP  0     **** LYP Y 11
     9 ZIP7       15 GROUP        1 Y    ZIP  0     **** ZIP Y 12
    10 GLP5        8 GROUP        1 Y    GLP  0     **** GLP Y 13
    11 ALL1       57 GROUP        1 Z    ALL  0     ROOT ALL Z 15
    12 SEL2        2 GROUP        1 Z    SEL  0     **** SEL Z 16
    13 LYL4       25 GROUP        1 Z    LYL  0     **** LYL Z 18
    14 ZIL7       14 GROUP        1 Z    ZIL  0     **** ZIL Z 19
    15 GLL5        7 GROUP        1 Z    GLL  0     **** GLL Z 20
@<TRIPOS>SET

