#    Name: 3cx8_GSP_1_ligand
#    Modification time : Mon Mar 24 22:28:08 2014

@<TRIPOS>MOLECULE
3cx8_GSP_1_ligand
   45    47     1     0     0
SMALL
NO_CHARGES


@<TRIPOS>ATOM
      1 PG         11.6150    6.0280   17.9300 P.3       1 GSP755      0.0000 
      2 O3B        11.5760    7.5630   17.4380 O.3       1 GSP755      0.0000 
      3 S1G        11.5040    6.1310   19.7620 S.2       1 GSP755      0.0000 
      4 O2G        10.5890    5.2910   17.1900 O.3       1 GSP755      0.0000 
      5 O3G        12.9050    5.3560   17.5570 O.3       1 GSP755      0.0000 
      6 PB         11.5930    8.0890   15.9060 P.3       1 GSP755      0.0000 
      7 O1B        12.9400    8.0850   15.3400 O.co2     1 GSP755      0.0000 
      8 O2B        10.7330    7.2850   15.0610 O.co2     1 GSP755      0.0000 
      9 PA          9.6100   10.2230   15.6530 P.3       1 GSP755      0.0000 
     10 O1A         9.3970   10.2170   14.2210 O.co2     1 GSP755      0.0000 
     11 O2A         8.6270    9.5230   16.5120 O.co2     1 GSP755      0.0000 
     12 O3A        11.0700    9.5930   15.9820 O.3       1 GSP755      0.0000 
     13 O5'         9.8520   11.6960   16.0870 O.3       1 GSP755      0.0000 
     14 C5'         9.7070   12.1620   17.4290 C.3       1 GSP755      0.0000 
     15 C4'         9.0620   13.5380   17.4870 C.3       1 GSP755      0.0000 
     16 O4'         9.8170   14.4760   16.7080 O.3       1 GSP755      0.0000 
     17 C3'         7.6550   13.4990   16.8500 C.3       1 GSP755      0.0000 
     18 O3'         6.8040   14.3610   17.5570 O.3       1 GSP755      0.0000 
     19 C2'         7.8350   14.0910   15.4590 C.3       1 GSP755      0.0000 
     20 O2'         6.7290   14.6950   14.8630 O.3       1 GSP755      0.0000 
     21 C1'         8.9140   15.1260   15.7570 C.3       1 GSP755      0.0000 
     22 N9          9.7900   15.3880   14.6270 N.pl3     1 GSP755      0.0000 
     23 C8         10.3840   14.4620   13.8000 C.2       1 GSP755      0.0000 
     24 N7         11.1580   15.1120   12.9470 N.2       1 GSP755      0.0000 
     25 C5         11.0470   16.4590   13.1570 C.2       1 GSP755      0.0000 
     26 C6         11.6150   17.6430   12.6050 C.2       1 GSP755      0.0000 
     27 O6         12.4080   17.6560   11.6850 O.2       1 GSP755      0.0000 
     28 N1         11.2880   18.8850   13.1450 N.am      1 GSP755      0.0000 
     29 C2         10.4050   19.0030   14.1900 C.2       1 GSP755      0.0000 
     30 N2         10.0360   20.2120   14.6480 N.pl3     1 GSP755      0.0000 
     31 N3          9.8390   17.8630   14.7330 N.2       1 GSP755      0.0000 
     32 C4         10.2050   16.6270   14.2600 C.2       1 GSP755      0.0000 
     33 H          10.6852   12.2276   17.9413 H         1 GSP755      0.0000 
     34 H           9.0842   11.4733   18.0302 H         1 GSP755      0.0000 
     35 H           8.9608   13.8533   18.4945 H         1 GSP755      0.0000 
     36 H           7.3335   12.5185   16.7755 H         1 GSP755      0.0000 
     37 H           8.3202   13.3376   14.8529 H         1 GSP755      0.0000 
     38 H           8.5114   15.9852   16.1691 H         1 GSP755      0.0000 
     39 H          10.2403   13.5110   13.8580 H         1 GSP755      0.0000 
     40 H          11.7278   19.7380   12.7410 H         1 GSP755      0.0000 
     41 H          10.4320   21.0005   14.1774 H         1 GSP755      0.0000 
     42 H           9.3984   20.2149   15.4184 H         1 GSP755      0.0000 
     43 H          13.2733    5.9025   16.8049 H         1 GSP755      0.0000 
     44 H           6.1323   14.6706   16.8841 H         1 GSP755      0.0000 
     45 H           6.3735   14.0117   14.2252 H         1 GSP755      0.0000 
@<TRIPOS>BOND
     1    2    1 1    
     2    3    1 2    
     3    4    1 1    
     4    5    1 1    
     5    6    2 1    
     6   43    5 1    
     7    7    6 ar   
     8    8    6 ar   
     9   12    6 1    
    10   10    9 ar   
    11   11    9 ar   
    12   12    9 1    
    13   13    9 1    
    14   14   13 1    
    15   15   14 1    
    16   33   14 1    
    17   34   14 1    
    18   16   15 1    
    19   17   15 1    
    20   35   15 1    
    21   21   16 1    
    22   18   17 1    
    23   19   17 1    
    24   36   17 1    
    25   44   18 1    
    26   20   19 1    
    27   21   19 1    
    28   37   19 1    
    29   45   20 1    
    30   22   21 1    
    31   38   21 1    
    32   23   22 1    
    33   32   22 1    
    34   24   23 2    
    35   39   23 1    
    36   25   24 1    
    37   26   25 1    
    38   32   25 2    
    39   27   26 2    
    40   28   26 am   
    41   29   28 1    
    42   40   28 1    
    43   30   29 1    
    44   31   29 2    
    45   41   30 1    
    46   42   30 1    
    47   32   31 1    
@<TRIPOS>SUBSTRUCTURE
     1 GSP755      1 GROUP   
@<TRIPOS>SET

