#    Name: 4jvf_17X_1_INTS_M
#    Modification time : Tue Mar 25 06:34:34 2014

@<TRIPOS>MOLECULE
4jvf_17X_1_INTS_M
  114     0     6     0     0
SMALL
NO_CHARGES


@<TRIPOS>ATOM
      1 CA        -31.0365    6.3895   -2.5770 C.3       2 GLC5        0.0000 
      2 CA        -31.6440    8.4580   -2.8320 C.3       6 GLL5        0.0000 
      3 CA        -30.4290    4.3210   -2.3220 C.3       4 GLP5        0.0000 
      4 CA        -29.8090    5.8525   -4.6685 C.3       2 GLC5        0.0000 
      5 CA        -30.1890    7.8030   -4.6330 C.3       6 GLL5        0.0000 
      6 CA        -29.4290    3.9020   -4.7040 C.3       4 GLP5        0.0000 
      7 CA        -27.5475    9.2880   -4.2575 C.3       2 GLC5        0.0000 
      8 CA        -28.2100    9.4010   -6.3220 C.3       6 GLL5        0.0000 
      9 CA        -26.8850    9.1750   -2.1930 C.3       4 GLP5        0.0000 
     10 N         -31.1315    7.3555   -9.5275 N.am      1 SEC2        0.0000 
     11 N         -30.5200    7.7600   -8.2550 N.am      5 SEL2        0.0000 
     12 N         -31.7430    6.9510  -10.8000 N.am      3 SEP2        0.0000 
     13 N         -29.6245    6.6930   -8.6860 N.am      1 SEC2        0.0000 
     14 N         -28.7290    5.6260   -9.1170 N.am      3 SEP2        0.0000 
     15 CA        -34.3315    8.5875   -5.5105 C.3       2 GLC5        0.0000 
     16 CA        -33.0790    6.9490   -5.9250 C.3       6 GLL5        0.0000 
     17 CA        -35.5840   10.2260   -5.0960 C.3       4 GLP5        0.0000 
     18 CA        -32.4850    4.4065   -3.9090 C.3       2 GLC5        0.0000 
     19 CA        -33.6270    5.6920   -5.2450 C.3       6 GLL5        0.0000 
     20 CA        -31.3430    3.1210   -2.5730 C.3       4 GLP5        0.0000 
     21 CA        -34.0095    5.7890   -8.9600 C.3       2 GLC5        0.0000 
     22 CA        -32.2820    5.4530   -7.8540 C.3       6 GLL5        0.0000 
     23 CA        -35.7370    6.1250  -10.0660 C.3       4 GLP5        0.0000 
     24 CA        -31.1460    4.0600   -5.9175 C.3       2 GLC5        0.0000 
     25 CA        -32.8630    4.2180   -7.1310 C.3       6 GLL5        0.0000 
     26 CA        -34.8985    5.3470   -8.1585 C.3       2 GLC5        0.0000 
     27 CA        -34.0600    4.5690   -6.2510 C.3       6 GLL5        0.0000 
     28 CA        -36.5830    0.9210   -7.2670 C.3       2 GLC5        0.0000 
     29 CA        -36.7040    2.5980   -5.9180 C.3       6 GLL5        0.0000 
     30 CA        -36.4620   -0.7560   -8.6160 C.3       4 GLP5        0.0000 
     31 CA        -36.8265    2.8560   -7.7290 C.3       2 GLC5        0.0000 
     32 CA        -36.9490    3.1140   -9.5400 C.3       4 GLP5        0.0000 
     33 CA        -41.0495    4.6350   -5.7785 C.3       2 GLC5        0.0000 
     34 CA        -41.1300    2.8400   -4.7550 C.3       6 GLL5        0.0000 
     35 CA        -40.9690    6.4300   -6.8020 C.3       4 GLP5        0.0000 
     36 CA        -41.3395   -0.2025   -7.9145 C.3       2 GLC5        0.0000 
     37 CA        -40.6350    1.5920   -6.8910 C.3       6 GLL5        0.0000 
     38 CA        -42.0440   -1.9970   -8.9380 C.3       4 GLP5        0.0000 
     39 CA        -37.8325    0.3270   -7.5235 C.3       2 GLC5        0.0000 
     40 CA        -39.2030    1.4100   -6.4310 C.3       6 GLL5        0.0000 
     41 CA        -38.0760    2.2620   -7.9855 C.3       2 GLC5        0.0000 
     42 CA        -38.9065    6.4660   -3.8785 C.3       2 GLC5        0.0000 
     43 CA        -37.2120    5.1100   -4.4520 C.3       6 GLL5        0.0000 
     44 CA        -40.6010    7.8220   -3.3050 C.3       4 GLP5        0.0000 
     45 CA        -38.0790    7.0975   -6.0570 C.3       2 GLC5        0.0000 
     46 CA        -37.0120    6.4740   -4.1910 C.3       6 GLL5        0.0000 
     47 CA        -39.1460    7.7210   -7.9230 C.3       4 GLP5        0.0000 
     48 CA        -36.7855    7.3550   -0.3880 C.3       2 GLC5        0.0000 
     49 CA        -36.4130    5.9540   -1.9430 C.3       6 GLL5        0.0000 
     50 CA        -37.1580    8.7560    1.1670 C.3       4 GLP5        0.0000 
     51 N         -36.0350    3.5395   -0.1655 N.am      1 SEC2        0.0000 
     52 N         -36.4870    3.5990   -1.4830 N.am      5 SEL2        0.0000 
     53 N         -35.5830    3.4800    1.1520 N.am      3 SEP2        0.0000 
     54 CA        -33.7440    1.3630    0.0865 C.3       2 GLC5        0.0000 
     55 CA        -35.6070    0.9020   -0.8730 C.3       6 GLL5        0.0000 
     56 CA        -31.8810    1.8240    1.0460 C.3       4 GLP5        0.0000 
     57 CA        -34.3685    0.1830    1.3730 C.3       2 GLC5        0.0000 
     58 CA        -35.6080   -0.3870   -0.2590 C.3       6 GLL5        0.0000 
     59 CA        -33.1290    0.7530    3.0050 C.3       4 GLP5        0.0000 
     60 CA        -30.8118   11.7553   -5.4775 C.3       2 GLC5        0.0000 
     61 CA        -31.0950   10.0290   -4.4900 C.3       6 GLL5        0.0000 
     62 CA        -30.1350   13.0000   -6.7870 C.3       4 GLP5        0.0000 
     63 CA        -30.4056   11.6884   -3.2805 C.3       2 GLC5        0.0000 
     64 CA        -32.5500   10.6990   -2.6740 C.3       6 GLL5        0.0000 
     65 CA        -28.7920   12.7720   -3.1400 C.3       4 GLP5        0.0000 
     66 CA        -31.9517   10.7967   -0.8640 C.3       2 GLC5        0.0000 
     67 CA        -31.4180   11.5350    0.6990 C.3       4 GLP5        0.0000 
     68 CA        -34.2848   10.2862   -1.3290 C.3       2 GLC5        0.0000 
     69 CA        -36.0840   10.5140   -0.2310 C.3       4 GLP5        0.0000 
     70 CA        -33.9513   10.1789   -3.9080 C.3       2 GLC5        0.0000 
     71 CA        -32.4210    9.4180   -2.1800 C.3       6 GLL5        0.0000 
     72 CA        -30.2508    9.0830   -1.3720 C.3       2 GLC5        0.0000 
     73 CA        -28.4690    9.2280   -0.2380 C.3       4 GLP5        0.0000 
     74 CA        -32.7594    8.4421   -1.0777 C.3       2 GLC5        0.0000 
     75 CA        -33.4540    7.6260    0.4740 C.3       4 GLP5        0.0000 
     76 CA        -28.7323    8.7295   -3.2538 C.3       2 GLC5        0.0000 
     77 CA        -30.9700    8.7650   -3.9960 C.3       6 GLL5        0.0000 
     78 CA        -30.0757   10.5072   -7.8963 C.3       2 GLC5        0.0000 
     79 CA        -29.2170    8.6420   -6.7720 C.3       6 GLL5        0.0000 
     80 CA        -30.8150   12.4200   -8.3640 C.3       4 GLP5        0.0000 
     81 CA        -28.9560   11.3680   -6.7737 C.3       2 GLC5        0.0000 
     82 CA        -27.1610   11.1945   -5.4428 C.3       2 GLC5        0.0000 
     83 CA        -27.3440   10.0710   -7.1990 C.3       6 GLL5        0.0000 
     84 CA        -26.5450   12.6530   -4.1250 C.3       4 GLP5        0.0000 
     85 CA        -26.8820   11.7550   -8.7492 C.3       2 GLC5        0.0000 
     86 CA        -26.2990   13.4960   -9.6140 C.3       4 GLP5        0.0000 
     87 CA        -29.4755   10.9935   -8.5712 C.3       2 GLC5        0.0000 
     88 CA        -27.5860    9.9570   -8.5700 C.3       6 GLL5        0.0000 
     89 CA        -28.9885   11.1275   -9.9258 C.3       2 GLC5        0.0000 
     90 CA        -28.6860    9.1770   -8.9870 C.3       6 GLL5        0.0000 
     91 CA        -29.8410   12.6880  -11.0730 C.3       4 GLP5        0.0000 
     92 CA        -30.9485    9.2160   -9.5750 C.3       2 GLC5        0.0000 
     93 CA        -32.8260    9.5700  -10.6140 C.3       4 GLP5        0.0000 
     94 CA        -41.4373    3.0035   -2.6680 C.3       2 GLC5        0.0000 
     95 CA        -39.9110    2.1600   -4.1610 C.3       6 GLL5        0.0000 
     96 CA        -42.3540    3.5070   -0.8780 C.3       4 GLP5        0.0000 
     97 CA        -36.1988    8.4600   -4.3265 C.3       2 GLC5        0.0000 
     98 CA        -38.2387    7.8490   -3.5610 C.3       2 GLC5        0.0000 
     99 CA        -36.6150    6.9140   -2.9230 C.3       6 GLL5        0.0000 
    100 CA        -39.6640    9.0040   -3.5650 C.3       4 GLP5        0.0000 
    101 CA        -38.2788    6.1612   -1.5030 C.3       2 GLC5        0.0000 
    102 CA        -40.0420    7.0200   -0.9110 C.3       4 GLP5        0.0000 
    103 CA        -34.6317    5.3338   -1.1490 C.3       2 GLC5        0.0000 
    104 CA        -32.7480    5.3650   -0.2030 C.3       4 GLP5        0.0000 
    105 CA        -34.0127   -0.3557   -1.2470 C.3       2 GLC5        0.0000 
    106 CA        -32.4180   -0.9690   -1.9280 C.3       4 GLP5        0.0000 
    107 CA        -34.9995   -2.6365    0.0588 C.3       2 GLC5        0.0000 
    108 CA        -33.8440   -4.4480    0.4560 C.3       4 GLP5        0.0000 
    109 CA        -37.1545   -0.3705    1.4663 C.3       2 GLC5        0.0000 
    110 CA        -36.7020   -1.2630   -0.4180 C.3       6 GLL5        0.0000 
    111 CA        -38.1540    0.0840    3.2710 C.3       4 GLP5        0.0000 
    112 CA        -38.5556    1.2510   -0.4516 C.3       2 GLC5        0.0000 
    113 CA        -37.8070   -0.8490   -1.1810 C.3       6 GLL5        0.0000 
    114 CA        -39.5690    2.4980    0.5510 C.3       4 GLP5        0.0000 
@<TRIPOS>BOND
@<TRIPOS>SUBSTRUCTURE
     1 SEC2       10 GROUP        1 X    SEC  0     ROOT SEC X 2
     2 GLC5        1 GROUP        1 X    GLC  0     **** GLC X 6
     3 SEP2       12 GROUP        1 Y    SEP  0     ROOT SEP Y 9
     4 GLP5        3 GROUP        1 Y    GLP  0     **** GLP Y 13
     5 SEL2       11 GROUP        1 Z    SEL  0     ROOT SEL Z 16
     6 GLL5        2 GROUP        1 Z    GLL  0     **** GLL Z 20
@<TRIPOS>SET

