#    Name: 4jvf_17X_1_ligand
#    Modification time : Tue Mar 25 06:34:34 2014

@<TRIPOS>MOLECULE
4jvf_17X_1_ligand
   89    96     1     0     0
SMALL
NO_CHARGES


@<TRIPOS>ATOM
      1 CAI       -31.0950   10.0290   -4.4900 C.ar      1 17X201      0.0000 
      2 CAJ       -31.8820   10.9920   -3.8460 C.ar      1 17X201      0.0000 
      3 CAK       -32.5500   10.6990   -2.6740 C.ar      1 17X201      0.0000 
      4 CAL       -32.4210    9.4180   -2.1800 C.ar      1 17X201      0.0000 
      5 CAM       -31.6440    8.4580   -2.8320 C.ar      1 17X201      0.0000 
      6 CAH       -30.9700    8.7650   -3.9960 C.ar      1 17X201      0.0000 
      7 CAG       -30.1890    7.8030   -4.6330 C.3       1 17X201      0.0000 
      8 NAD       -30.1600    7.9390   -6.1240 N.pl3     1 17X201      0.0000 
      9 CAC       -29.2170    8.6420   -6.7720 C.ar      1 17X201      0.0000 
     10 CAF       -28.2100    9.4010   -6.3220 C.ar      1 17X201      0.0000 
     11 CAE       -27.3440   10.0710   -7.1990 C.ar      1 17X201      0.0000 
     12 CAX       -27.5860    9.9570   -8.5700 C.ar      1 17X201      0.0000 
     13 CAW       -28.6860    9.1770   -8.9870 C.ar      1 17X201      0.0000 
     14 CAV       -29.4560    8.5470   -8.0850 C.ar      1 17X201      0.0000 
     15 NAY       -30.5200    7.7600   -8.2550 N.2       1 17X201      0.0000 
     16 CAB       -30.9390    7.3810   -7.0650 C.2       1 17X201      0.0000 
     17 NAA       -32.0320    6.6030   -6.9230 N.3       1 17X201      0.0000 
     18 CAR       -33.0790    6.9490   -5.9250 C.3       1 17X201      0.0000 
     19 CAQ       -33.6270    5.6920   -5.2450 C.3       1 17X201      0.0000 
     20 CAN       -32.2820    5.4530   -7.8540 C.3       1 17X201      0.0000 
     21 CAO       -32.8630    4.2180   -7.1310 C.3       1 17X201      0.0000 
     22 CAP       -34.0600    4.5690   -6.2510 C.3       1 17X201      0.0000 
     23 CAS       -34.4880    3.3140   -5.4450 C.2       1 17X201      0.0000 
     24 OAT       -34.0470    3.1140   -4.3170 O.2       1 17X201      0.0000 
     25 OAU       -35.3200    2.3920   -6.0030 O.3       1 17X201      0.0000 
     26 CBP       -36.7040    2.5980   -5.9180 C.3       1 17X201      0.0000 
     27 CBO       -37.4500    2.0080   -4.7320 C.3       1 17X201      0.0000 
     28 CBQ       -38.8660    2.2860   -5.2380 C.3       1 17X201      0.0000 
     29 CBR       -39.9110    2.1600   -4.1610 C.3       1 17X201      0.0000 
     30 CBS       -41.1300    2.8400   -4.7550 C.3       1 17X201      0.0000 
     31 NBV       -41.6240    2.0110   -5.8670 N.4       1 17X201      0.0000 
     32 CBT       -40.6350    1.5920   -6.8910 C.3       1 17X201      0.0000 
     33 CBU       -39.2030    1.4100   -6.4310 C.3       1 17X201      0.0000 
     34 NBH       -37.0830    2.8660   -3.4810 N.pl3     1 17X201      0.0000 
     35 CBD       -37.0110    4.2130   -3.4760 C.ar      1 17X201      0.0000 
     36 CBE       -37.2120    5.1100   -4.4520 C.ar      1 17X201      0.0000 
     37 CAZ       -37.0120    6.4740   -4.1910 C.ar      1 17X201      0.0000 
     38 CBA       -36.6150    6.9140   -2.9230 C.ar      1 17X201      0.0000 
     39 CBB       -36.4130    5.9540   -1.9430 C.ar      1 17X201      0.0000 
     40 CBC       -36.6180    4.6510   -2.2470 C.ar      1 17X201      0.0000 
     41 NBF       -36.4870    3.5990   -1.4830 N.2       1 17X201      0.0000 
     42 CBG       -36.7600    2.5200   -2.2300 C.2       1 17X201      0.0000 
     43 CBI       -36.7250    1.2930   -1.6710 C.ar      1 17X201      0.0000 
     44 CBJ       -35.6070    0.9020   -0.8730 C.ar      1 17X201      0.0000 
     45 CBK       -35.6080   -0.3870   -0.2590 C.ar      1 17X201      0.0000 
     46 CBL       -36.7020   -1.2630   -0.4180 C.ar      1 17X201      0.0000 
     47 CBM       -37.8070   -0.8490   -1.1810 C.ar      1 17X201      0.0000 
     48 CBN       -37.8300    0.4210   -1.7840 C.ar      1 17X201      0.0000 
     49 H         -30.6003   10.3011   -5.3657 H         1 17X201      0.0000 
     50 H         -31.9585   11.9373   -4.2630 H         1 17X201      0.0000 
     51 H         -33.1102   11.3949   -2.1983 H         1 17X201      0.0000 
     52 H         -32.9110    9.1530   -1.3016 H         1 17X201      0.0000 
     53 H         -31.5777    7.5061   -2.4309 H         1 17X201      0.0000 
     54 H         -30.5400    6.7653   -4.3973 H         1 17X201      0.0000 
     55 H         -29.1282    7.8290   -4.2728 H         1 17X201      0.0000 
     56 H         -28.0417    9.5149   -5.2951 H         1 17X201      0.0000 
     57 H         -26.5707   10.6179   -6.8474 H         1 17X201      0.0000 
     58 H         -26.9953   10.4164   -9.2483 H         1 17X201      0.0000 
     59 H         -28.8757    9.1090  -10.0039 H         1 17X201      0.0000 
     60 H         -33.9085    7.4705   -6.4116 H         1 17X201      0.0000 
     61 H         -32.6659    7.6082   -5.1558 H         1 17X201      0.0000 
     62 H         -34.4989    5.9557   -4.6345 H         1 17X201      0.0000 
     63 H         -32.8643    5.2741   -4.5772 H         1 17X201      0.0000 
     64 H         -31.3451    5.1556   -8.3429 H         1 17X201      0.0000 
     65 H         -32.9864    5.7535   -8.6407 H         1 17X201      0.0000 
     66 H         -32.0776    3.7711   -6.5146 H         1 17X201      0.0000 
     67 H         -33.1673    3.4833   -7.8820 H         1 17X201      0.0000 
     68 H         -34.8610    4.9140   -6.8315 H         1 17X201      0.0000 
     69 H         -37.2311    2.2170   -6.8513 H         1 17X201      0.0000 
     70 H         -36.9529    3.7078   -5.9347 H         1 17X201      0.0000 
     71 H         -37.2627    1.0322   -4.6364 H         1 17X201      0.0000 
     72 H         -38.8802    3.3377   -5.5986 H         1 17X201      0.0000 
     73 H         -39.6006    2.6792   -3.2852 H         1 17X201      0.0000 
     74 H         -40.1260    1.1342   -3.9758 H         1 17X201      0.0000 
     75 H         -40.8449    3.8258   -5.1088 H         1 17X201      0.0000 
     76 H         -41.8878    2.9386   -3.9841 H         1 17X201      0.0000 
     77 H         -40.6386    2.3319   -7.7349 H         1 17X201      0.0000 
     78 H         -40.9740    0.6320   -7.3633 H         1 17X201      0.0000 
     79 H         -39.0400    0.3584   -6.1627 H         1 17X201      0.0000 
     80 H         -38.5237    1.6519   -7.2583 H         1 17X201      0.0000 
     81 H         -37.5119    4.8276   -5.3982 H         1 17X201      0.0000 
     82 H         -37.1601    7.1615   -4.9457 H         1 17X201      0.0000 
     83 H         -36.4819    7.8983   -2.7344 H         1 17X201      0.0000 
     84 H         -36.1116    6.2434   -1.0030 H         1 17X201      0.0000 
     85 H         -34.8261    1.5290   -0.7448 H         1 17X201      0.0000 
     86 H         -34.7999   -0.6724    0.3030 H         1 17X201      0.0000 
     87 H         -36.6889   -2.1829    0.0154 H         1 17X201      0.0000 
     88 H         -38.6089   -1.4824   -1.3001 H         1 17X201      0.0000 
     89 H         -38.6581    0.7201   -2.3129 H         1 17X201      0.0000 
@<TRIPOS>BOND
     1    2    1 ar   
     2    6    1 ar   
     3   49    1 1    
     4    3    2 ar   
     5   50    2 1    
     6    4    3 ar   
     7   51    3 1    
     8    5    4 ar   
     9   52    4 1    
    10    6    5 ar   
    11   53    5 1    
    12    7    6 1    
    13    8    7 1    
    14   54    7 1    
    15   55    7 1    
    16    9    8 1    
    17   16    8 1    
    18   10    9 ar   
    19   14    9 ar   
    20   11   10 ar   
    21   56   10 1    
    22   12   11 ar   
    23   57   11 1    
    24   13   12 ar   
    25   58   12 1    
    26   14   13 ar   
    27   59   13 1    
    28   15   14 1    
    29   16   15 2    
    30   17   16 1    
    31   18   17 1    
    32   20   17 1    
    33   19   18 1    
    34   60   18 1    
    35   61   18 1    
    36   22   19 1    
    37   62   19 1    
    38   63   19 1    
    39   21   20 1    
    40   64   20 1    
    41   65   20 1    
    42   22   21 1    
    43   66   21 1    
    44   67   21 1    
    45   23   22 1    
    46   68   22 1    
    47   24   23 2    
    48   25   23 1    
    49   26   25 1    
    50   27   26 1    
    51   69   26 1    
    52   70   26 1    
    53   28   27 1    
    54   34   27 1    
    55   71   27 1    
    56   29   28 1    
    57   33   28 1    
    58   72   28 1    
    59   30   29 1    
    60   73   29 1    
    61   74   29 1    
    62   31   30 1    
    63   75   30 1    
    64   76   30 1    
    65   32   31 1    
    66   33   32 1    
    67   77   32 1    
    68   78   32 1    
    69   79   33 1    
    70   80   33 1    
    71   35   34 1    
    72   42   34 1    
    73   36   35 ar   
    74   40   35 ar   
    75   37   36 ar   
    76   81   36 1    
    77   38   37 ar   
    78   82   37 1    
    79   39   38 ar   
    80   83   38 1    
    81   40   39 ar   
    82   84   39 1    
    83   41   40 1    
    84   42   41 2    
    85   43   42 1    
    86   44   43 ar   
    87   48   43 ar   
    88   45   44 ar   
    89   85   44 1    
    90   46   45 ar   
    91   86   45 1    
    92   47   46 ar   
    93   87   46 1    
    94   48   47 ar   
    95   88   47 1    
    96   89   48 1    
@<TRIPOS>SUBSTRUCTURE
     1 17X201      1 GROUP   
@<TRIPOS>SET

