#    Name: 3vha_VHA_1_INTS_M
#    Modification time : Tue Mar 25 00:49:30 2014

@<TRIPOS>MOLECULE
3vha_VHA_1_INTS_M
   57     0     6     0     0
SMALL
NO_CHARGES


@<TRIPOS>ATOM
      1 CA          9.3565    0.3610   11.1050 C.3       2 GLC5        0.0000 
      2 CA          8.0170   -0.3130   12.4370 C.3       6 GLL5        0.0000 
      3 CA         10.6960    1.0350    9.7730 C.3       4 GLP5        0.0000 
      4 CA          8.7330   -1.8820   11.3885 C.3       2 GLC5        0.0000 
      5 CA          9.4490   -3.4510   10.3400 C.3       4 GLP5        0.0000 
      6 CA          6.9265   -1.5570   13.3195 C.3       2 GLC5        0.0000 
      7 CA          5.8360   -2.8010   14.2020 C.3       4 GLP5        0.0000 
      8 CA          7.6820   -0.3910   10.3215 C.3       2 GLC5        0.0000 
      9 CA          7.3470   -0.4690    8.2060 C.3       4 GLP5        0.0000 
     10 CA         13.5095   -0.7440   15.4505 C.3       2 GLC5        0.0000 
     11 CA         12.6470    0.5230   17.0110 C.3       6 GLL5        0.0000 
     12 CA         14.3720   -2.0110   13.8900 C.3       4 GLP5        0.0000 
     13 CA         15.0965    5.2840   15.9215 C.3       2 GLC5        0.0000 
     14 CA         14.4350    3.4040   15.0120 C.3       6 GLL5        0.0000 
     15 CA         15.7580    7.1640   16.8310 C.3       4 GLP5        0.0000 
     16 CA         12.9990    6.6850   12.0985 C.3       2 GLC5        0.0000 
     17 CA         11.9910    5.1090   12.2690 C.3       6 GLL5        0.0000 
     18 CA         14.0070    8.2610   11.9280 C.3       4 GLP5        0.0000 
     19 CA         12.0775    5.8320   10.2865 C.3       2 GLC5        0.0000 
     20 CA         12.1640    6.5550    8.3040 C.3       4 GLP5        0.0000 
     21 CA         10.6560    2.5630   11.2220 C.3       2 GLC5        0.0000 
     22 CA         10.6160    4.0910   12.6710 C.3       6 GLL5        0.0000 
     23 CA         11.5585    1.7305   11.7765 C.3       2 GLC5        0.0000 
     24 CA         10.7550    2.7790   13.1230 C.3       6 GLL5        0.0000 
     25 CA         12.3620    0.6820   10.4300 C.3       4 GLP5        0.0000 
     26 CA          8.4130    2.6465   15.1445 C.3       2 GLC5        0.0000 
     27 CA          9.6180    2.0690   13.4860 C.3       6 GLL5        0.0000 
     28 CA          7.2080    3.2240   16.8030 C.3       4 GLP5        0.0000 
     29 CA          7.7715    3.5795   14.8340 C.3       2 GLC5        0.0000 
     30 CA          8.3350    3.9350   12.8650 C.3       6 GLL5        0.0000 
     31 CA          9.1920    5.9350   13.2635 C.3       2 GLC5        0.0000 
     32 CA         10.0490    7.9350   13.6620 C.3       4 GLP5        0.0000 
     33 CA          7.7610    3.5125   11.0690 C.3       2 GLC5        0.0000 
     34 CA          7.1870    3.0900    9.2730 C.3       4 GLP5        0.0000 
     35 O           6.5320    5.6910   12.2630 O.2       1 ALC1        0.0000 
     36 O           7.1380    4.5090   12.7960 O.2       5 ALL1        0.0000 
     37 O           5.9260    6.8730   11.7300 O.2       3 ALP1        0.0000 
     38 CA         10.3637   -1.1955   12.6885 C.3       2 GLC5        0.0000 
     39 CA          9.7530    0.7800   14.0090 C.3       6 GLL5        0.0000 
     40 CA         11.3300   -2.6070   11.5870 C.3       4 GLP5        0.0000 
     41 CA         10.5245   -2.1190   13.1583 C.3       2 GLC5        0.0000 
     42 CA          9.2630   -1.5880   14.2050 C.3       6 GLL5        0.0000 
     43 CA          8.3170   -2.4255   15.5857 C.3       2 GLC5        0.0000 
     44 CA          6.9150   -3.2200   16.4420 C.3       4 GLP5        0.0000 
     45 CA         12.4573   -1.5642   14.6792 C.3       2 GLC5        0.0000 
     46 CA         10.1750   -1.6740   15.2540 C.3       6 GLL5        0.0000 
     47 CA         14.2112    3.1255   11.2910 C.3       2 GLC5        0.0000 
     48 CA         15.7120    3.8060   12.9860 C.3       6 GLL5        0.0000 
     49 CA         13.2790    2.1600    9.8960 C.3       4 GLP5        0.0000 
     50 CA         15.9973    2.7110   11.3795 C.3       2 GLC5        0.0000 
     51 CA         14.5750    4.3760   12.3860 C.3       6 GLL5        0.0000 
     52 CA         16.8510    1.3310   10.0730 C.3       4 GLP5        0.0000 
     53 CA         13.9938    6.3265   12.3328 C.3       2 GLC5        0.0000 
     54 CA         12.9838    3.4592   11.2875 C.3       2 GLC5        0.0000 
     55 CA         13.3860    4.4080   13.0890 C.3       6 GLL5        0.0000 
     56 CA         10.6762    6.2675   13.0660 C.3       2 GLC5        0.0000 
     57 CA         10.1019    1.0888   11.7055 C.3       2 GLC5        0.0000 
@<TRIPOS>BOND
@<TRIPOS>SUBSTRUCTURE
     1 ALC1       35 GROUP        1 X    ALC  0     ROOT ALC X 1
     2 GLC5        1 GROUP        1 X    GLC  0     **** GLC X 6
     3 ALP1       37 GROUP        1 Y    ALP  0     ROOT ALP Y 8
     4 GLP5        3 GROUP        1 Y    GLP  0     **** GLP Y 13
     5 ALL1       36 GROUP        1 Z    ALL  0     ROOT ALL Z 15
     6 GLL5        2 GROUP        1 Z    GLL  0     **** GLL Z 20
@<TRIPOS>SET

