#    Name: 3vha_VHA_1_ligand
#    Modification time : Tue Mar 25 00:49:30 2014

@<TRIPOS>MOLECULE
3vha_VHA_1_ligand
   48    51     1     0     0
SMALL
NO_CHARGES


@<TRIPOS>ATOM
      1 C1         10.6710    0.6660   15.0620 C.ar      1 VHA237      0.0000 
      2 C2          9.7530    0.7800   14.0090 C.ar      1 VHA237      0.0000 
      3 C3          9.0420   -0.3480   13.5710 C.ar      1 VHA237      0.0000 
      4 C4          8.0170   -0.3130   12.4370 C.3       1 VHA237      0.0000 
      5 C5          9.2630   -1.5880   14.2050 C.ar      1 VHA237      0.0000 
      6 C6         10.1750   -1.6740   15.2540 C.ar      1 VHA237      0.0000 
      7 C7         10.9100   -0.5610   15.6830 C.ar      1 VHA237      0.0000 
      8 O8         11.8550   -0.6730   16.6980 O.3       1 VHA237      0.0000 
      9 C9         12.6470    0.5230   17.0110 C.3       1 VHA237      0.0000 
     10 C10        13.8990    0.3440   17.9110 C.3       1 VHA237      0.0000 
     11 C11        14.6440    1.6670   18.1740 C.3       1 VHA237      0.0000 
     12 C12        15.3280    2.2060   16.9100 C.3       1 VHA237      0.0000 
     13 O13        14.2640    3.0010   16.2940 O.3       1 VHA237      0.0000 
     14 C14        14.4350    3.4040   15.0120 C.ar      1 VHA237      0.0000 
     15 C15        13.3100    3.9630   14.4080 C.ar      1 VHA237      0.0000 
     16 C16        15.6460    3.3530   14.3030 C.ar      1 VHA237      0.0000 
     17 C17        15.7120    3.8060   12.9860 C.ar      1 VHA237      0.0000 
     18 C18        14.5750    4.3760   12.3860 C.ar      1 VHA237      0.0000 
     19 C19        13.3860    4.4080   13.0890 C.ar      1 VHA237      0.0000 
     20 S20        11.9910    5.1090   12.2690 S.3       1 VHA237      0.0000 
     21 C21        10.6160    4.0910   12.6710 C.ar      1 VHA237      0.0000 
     22 N22         9.4380    4.6640   12.5320 N.ar      1 VHA237      0.0000 
     23 C23        10.7550    2.7790   13.1230 C.ar      1 VHA237      0.0000 
     24 C24         9.6180    2.0690   13.4860 C.ar      1 VHA237      0.0000 
     25 N25         8.4220    2.6890   13.3810 N.ar      1 VHA237      0.0000 
     26 C26         8.3350    3.9350   12.8650 C.ar      1 VHA237      0.0000 
     27 N27         7.1380    4.5090   12.7960 N.pl3     1 VHA237      0.0000 
     28 H          11.1791    1.5075   15.3828 H         1 VHA237      0.0000 
     29 H           8.7520   -2.4160   13.8901 H         1 VHA237      0.0000 
     30 H          10.3164   -2.5842   15.7325 H         1 VHA237      0.0000 
     31 H          11.9995    1.2985   17.5026 H         1 VHA237      0.0000 
     32 H          12.9939    1.0167   16.0632 H         1 VHA237      0.0000 
     33 H          14.5808   -0.3609   17.4265 H         1 VHA237      0.0000 
     34 H          13.5850   -0.0864   18.8663 H         1 VHA237      0.0000 
     35 H          15.3976    1.5017   18.9468 H         1 VHA237      0.0000 
     36 H          13.9308    2.4086   18.5398 H         1 VHA237      0.0000 
     37 H          15.6080    1.3853   16.2977 H         1 VHA237      0.0000 
     38 H          16.1511    2.8108   17.1994 H         1 VHA237      0.0000 
     39 H          12.4326    4.0464   14.9300 H         1 VHA237      0.0000 
     40 H          16.4866    2.9786   14.7616 H         1 VHA237      0.0000 
     41 H          16.5822    3.7264   12.4533 H         1 VHA237      0.0000 
     42 H          14.6389    4.7589   11.4409 H         1 VHA237      0.0000 
     43 H          11.6789    2.3498   13.1851 H         1 VHA237      0.0000 
     44 H           6.3575    3.9281   13.0270 H         1 VHA237      0.0000 
     45 H           7.1261    5.4699   12.5193 H         1 VHA237      0.0000 
     46 H           8.4260   -0.0112   11.5758 H         1 VHA237      0.0000 
     47 H           7.6158   -1.2138   12.2711 H         1 VHA237      0.0000 
     48 H           7.2622    0.3115   12.6377 H         1 VHA237      0.0000 
@<TRIPOS>BOND
     1    2    1 ar   
     2    7    1 ar   
     3   28    1 1    
     4    3    2 ar   
     5   24    2 1    
     6    4    3 1    
     7    5    3 ar   
     8   46    4 1    
     9   47    4 1    
    10   48    4 1    
    11    6    5 ar   
    12   29    5 1    
    13    7    6 ar   
    14   30    6 1    
    15    8    7 1    
    16    9    8 1    
    17   10    9 1    
    18   31    9 1    
    19   32    9 1    
    20   11   10 1    
    21   33   10 1    
    22   34   10 1    
    23   12   11 1    
    24   35   11 1    
    25   36   11 1    
    26   13   12 1    
    27   37   12 1    
    28   38   12 1    
    29   14   13 1    
    30   15   14 ar   
    31   16   14 ar   
    32   19   15 ar   
    33   39   15 1    
    34   17   16 ar   
    35   40   16 1    
    36   18   17 ar   
    37   41   17 1    
    38   19   18 ar   
    39   42   18 1    
    40   20   19 1    
    41   21   20 1    
    42   22   21 ar   
    43   23   21 ar   
    44   26   22 ar   
    45   24   23 ar   
    46   43   23 1    
    47   25   24 ar   
    48   26   25 ar   
    49   27   26 1    
    50   44   27 1    
    51   45   27 1    
@<TRIPOS>SUBSTRUCTURE
     1 VHA237      1 GROUP   
@<TRIPOS>SET

