#    Name: 2c43_COA_1_INTS_M
#    Modification time : Mon Mar 24 22:33:47 2014

@<TRIPOS>MOLECULE
2c43_COA_1_INTS_M
  105     0    15     0     0
SMALL
NO_CHARGES


@<TRIPOS>ATOM
      1 CA        -33.0040   10.4395    0.5020 C.3       5 GLC5        0.0000 
      2 CA        -32.5200   10.2830   -1.2020 C.3      15 GLL5        0.0000 
      3 CA        -33.4880   10.5960    2.2060 C.3      10 GLP5        0.0000 
      4 CA        -32.0305   11.9235   -1.8590 C.3       5 GLC5        0.0000 
      5 CA        -31.5410   13.5640   -2.5160 C.3      10 GLP5        0.0000 
      6 CA        -34.0880   11.7045   -0.6330 C.3       5 GLC5        0.0000 
      7 CA        -35.6560   13.1260   -0.0640 C.3      10 GLP5        0.0000 
      8 N         -30.5495    9.4765   -0.5355 N.am      2 SEC2        0.0000 
      9 N         -31.8540    9.0860   -1.2990 N.am     12 SEL2        0.0000 
     10 N         -29.2450    9.8670    0.2280 N.am      7 SEP2        0.0000 
     11 CA        -32.3320    6.6735    0.0060 C.3       5 GLC5        0.0000 
     12 CA        -32.5360    7.9960   -1.6690 C.3      15 GLL5        0.0000 
     13 CA        -32.1280    5.3510    1.6810 C.3      10 GLP5        0.0000 
     14 CA        -34.6560    8.8700   -0.1280 C.3       5 GLC5        0.0000 
     15 CA        -34.5470    9.2300   -1.9580 C.3      15 GLL5        0.0000 
     16 CA        -34.7650    8.5100    1.7020 C.3      10 GLP5        0.0000 
     17 CA        -35.1015   11.1780   -1.0110 C.3       5 GLC5        0.0000 
     18 O         -36.8020    8.1915   -2.2760 O.2       1 ALC1        0.0000 
     19 O         -35.8550    9.2960   -2.2900 O.2      11 ALL1        0.0000 
     20 O         -37.7490    7.0870   -2.2620 O.2       6 ALP1        0.0000 
     21 O         -36.7190   10.6195   -1.5505 O.2       1 ALC1        0.0000 
     22 O         -37.5830   11.9430   -0.8110 O.2       6 ALP1        0.0000 
     23 NZ        -30.7135   -0.1010   -3.1530 N.4       3 LYC4        0.0000 
     24 NZ        -30.7230    1.6810   -3.9370 N.4      13 LYL4        0.0000 
     25 NZ        -30.7040   -1.8830   -2.3690 N.4       8 LYP4        0.0000 
     26 NZ        -30.6275   -0.1695   -1.9540 N.4       3 LYC4        0.0000 
     27 NZ        -30.5510    1.5440   -1.5390 N.4      13 LYL4        0.0000 
     28 NZ        -32.0205    1.8290   -0.9405 N.4       3 LYC4        0.0000 
     29 NZ        -33.3320    1.0520    0.4000 N.4       8 LYP4        0.0000 
     30 N         -32.0205    1.8290   -0.9405 N.am      2 SEC2        0.0000 
     31 N         -30.5510    1.5440   -1.5390 N.am     12 SEL2        0.0000 
     32 N         -33.4900    2.1140   -0.3420 N.am      7 SEP2        0.0000 
     33 N         -31.4130    0.9240   -0.6665 N.am      2 SEC2        0.0000 
     34 N         -32.2750    0.3040    0.2060 N.am      7 SEP2        0.0000 
     35 NZ        -29.6315   -0.4705   -2.6910 N.4       3 LYC4        0.0000 
     36 NZ        -28.5590    0.9420   -3.0130 N.4      13 LYL4        0.0000 
     37 N         -27.5190    1.3255   -3.8160 N.am      2 SEC2        0.0000 
     38 N         -28.5590    0.9420   -3.0130 N.am     12 SEL2        0.0000 
     39 N         -26.4790    1.7090   -4.6190 N.am      7 SEP2        0.0000 
     40 CA        -27.6945    5.3365   -1.8860 C.3       5 GLC5        0.0000 
     41 CA        -29.3000    5.5770   -3.3260 C.3      15 GLL5        0.0000 
     42 CA        -26.0890    5.0960   -0.4460 C.3      10 GLP5        0.0000 
     43 N         -25.4865    5.5760   -6.2525 N.am      2 SEC2        0.0000 
     44 N         -26.8560    5.7500   -6.7980 N.am     12 SEL2        0.0000 
     45 N         -24.1170    5.4020   -5.7070 N.am      7 SEP2        0.0000 
     46 NZ        -27.4890    8.8575   -5.6130 N.4       3 LYC4        0.0000 
     47 NZ        -27.2820    8.2020   -6.9320 N.4      13 LYL4        0.0000 
     48 NZ        -27.6960    9.5130   -4.2940 N.4       8 LYP4        0.0000 
     49 Zn        -27.3560    8.8260   -7.9425 Zn        4 ZIC7        0.0000 
     50 Zn        -27.2820    8.2020   -6.9320 Zn       14 ZIL7        0.0000 
     51 Zn        -27.4300    9.4500   -8.9530 Zn        9 ZIP7        0.0000 
     52 N         -25.9360    8.3245   -6.6070 N.am      2 SEC2        0.0000 
     53 N         -27.2820    8.2020   -6.9320 N.am     12 SEL2        0.0000 
     54 N         -24.5900    8.4470   -6.2820 N.am      7 SEP2        0.0000 
     55 N         -27.4890    8.8575   -5.6130 N.am      2 SEC2        0.0000 
     56 N         -27.6960    9.5130   -4.2940 N.am      7 SEP2        0.0000 
     57 Zn        -28.2535    8.7390   -9.1680 Zn        4 ZIC7        0.0000 
     58 Zn        -29.0770    8.0280   -9.3830 Zn       14 ZIL7        0.0000 
     59 N         -29.1550    9.2365   -8.9845 N.am      2 SEC2        0.0000 
     60 N         -29.0770    8.0280   -9.3830 N.am     12 SEL2        0.0000 
     61 N         -29.2330   10.4450   -8.5860 N.am      7 SEP2        0.0000 
     62 CA        -31.6680   10.8670   -5.0870 C.3       5 GLC5        0.0000 
     63 CA        -32.6960    9.9180   -6.1170 C.3      15 GLL5        0.0000 
     64 CA        -30.6400   11.8160   -4.0570 C.3      10 GLP5        0.0000 
     65 CA        -35.7395    9.0755   -9.0670 C.3       5 GLC5        0.0000 
     66 CA        -34.1490    8.6570   -7.7190 C.3      15 GLL5        0.0000 
     67 CA        -37.3300    9.4940  -10.4150 C.3      10 GLP5        0.0000 
     68 N         -32.2565    9.6345  -10.7655 N.am      2 SEC2        0.0000 
     69 N         -33.4860    9.3100  -10.0520 N.am     12 SEL2        0.0000 
     70 N         -31.0270    9.9590  -11.4790 N.am      7 SEP2        0.0000 
     71 O         -35.8200   11.6210   -7.8755 O.2       1 ALC1        0.0000 
     72 O         -34.8150   10.7920   -8.7880 O.2      11 ALL1        0.0000 
     73 O         -36.8250   12.4500   -6.9630 O.2       6 ALP1        0.0000 
     74 CA        -34.1570   13.3900   -7.5525 C.3       5 GLC5        0.0000 
     75 CA        -34.1280   12.0560   -9.0620 C.3      15 GLL5        0.0000 
     76 CA        -34.1860   14.7240   -6.0430 C.3      10 GLP5        0.0000 
     77 CA        -30.0945   14.3065  -10.1525 C.3       5 GLC5        0.0000 
     78 CA        -31.1930   14.6420  -11.6250 C.3      15 GLL5        0.0000 
     79 CA        -28.9960   13.9710   -8.6800 C.3      10 GLP5        0.0000 
     80 CA        -32.7395   16.1970  -11.6225 C.3       5 GLC5        0.0000 
     81 CA        -34.2860   17.7520  -11.6200 C.3      10 GLP5        0.0000 
     82 CA        -31.7500   15.0650  -15.1840 C.3       5 GLC5        0.0000 
     83 CA        -31.3120   15.0580  -13.0710 C.3      15 GLL5        0.0000 
     84 CA        -32.1880   15.0720  -17.2970 C.3      10 GLP5        0.0000 
     85 CA        -31.3080   17.1010  -15.3295 C.3       5 GLC5        0.0000 
     86 CA        -30.4270   16.5890  -13.5000 C.3      15 GLL5        0.0000 
     87 CA        -32.1890   17.6130  -17.1590 C.3      10 GLP5        0.0000 
     88 CA        -29.2475   17.5025  -14.6960 C.3       5 GLC5        0.0000 
     89 CA        -28.0680   18.4160  -15.8920 C.3      10 GLP5        0.0000 
     90 CA        -29.2430   15.1810  -14.0720 C.3       5 GLC5        0.0000 
     91 CA        -28.0590   13.7730  -14.6440 C.3      10 GLP5        0.0000 
     92 CA        -30.1425   17.7245  -11.8830 C.3       5 GLC5        0.0000 
     93 CA        -29.8580   18.8600  -10.2660 C.3      10 GLP5        0.0000 
     94 CA        -33.9225    7.5213   -0.2042 C.3       5 GLC5        0.0000 
     95 CA        -33.8700    8.0470   -2.0460 C.3      15 GLL5        0.0000 
     96 CA        -34.6420    7.0210    1.4490 C.3      10 GLP5        0.0000 
     97 CA        -31.3858    5.4452    0.0418 C.3       5 GLC5        0.0000 
     98 CA        -30.7290    6.2940   -1.6630 C.3      15 GLL5        0.0000 
     99 CA        -29.1288    7.7845   -3.9653 C.3       5 GLC5        0.0000 
    100 CA        -29.0190    9.9420   -3.8590 C.3      10 GLP5        0.0000 
    101 CA        -35.6940   10.8240  -10.1125 C.3       5 GLC5        0.0000 
    102 CA        -29.9853   13.7830  -13.1650 C.3       5 GLC5        0.0000 
    103 CA        -28.7180   12.7160  -13.9820 C.3      10 GLP5        0.0000 
    104 CA        -32.6423   16.3993  -13.6227 C.3       5 GLC5        0.0000 
    105 CA        -34.4150   16.9750  -13.9600 C.3      10 GLP5        0.0000 
@<TRIPOS>BOND
@<TRIPOS>SUBSTRUCTURE
     1 ALC1       18 GROUP        1 X    ALC  0     ROOT ALC X 1
     2 SEC2        8 GROUP        1 X    SEC  0     **** SEC X 2
     3 LYC4       23 GROUP        1 X    LYC  0     **** LYC X 4
     4 ZIC7       49 GROUP        1 X    ZIC  0     **** ZIC X 5
     5 GLC5        1 GROUP        1 X    GLC  0     **** GLC X 6
     6 ALP1       20 GROUP        1 Y    ALP  0     ROOT ALP Y 8
     7 SEP2       10 GROUP        1 Y    SEP  0     **** SEP Y 9
     8 LYP4       25 GROUP        1 Y    LYP  0     **** LYP Y 11
     9 ZIP7       51 GROUP        1 Y    ZIP  0     **** ZIP Y 12
    10 GLP5        3 GROUP        1 Y    GLP  0     **** GLP Y 13
    11 ALL1       19 GROUP        1 Z    ALL  0     ROOT ALL Z 15
    12 SEL2        9 GROUP        1 Z    SEL  0     **** SEL Z 16
    13 LYL4       24 GROUP        1 Z    LYL  0     **** LYL Z 18
    14 ZIL7       50 GROUP        1 Z    ZIL  0     **** ZIL Z 19
    15 GLL5        2 GROUP        1 Z    GLL  0     **** GLL Z 20
@<TRIPOS>SET

