#    Name: 2c43_COA_1_ligand
#    Modification time : Mon Mar 24 22:33:47 2014

@<TRIPOS>MOLECULE
2c43_COA_1_ligand
   79    81     1     0     0
SMALL
NO_CHARGES


@<TRIPOS>ATOM
      1 N1A       -33.8480   10.3220   -1.5210 N.ar      1 COA1316     0.0000 
      2 C2A       -32.5200   10.2830   -1.2020 C.ar      1 COA1316     0.0000 
      3 N3A       -31.8540    9.0860   -1.2990 N.ar      1 COA1316     0.0000 
      4 C4A       -32.5360    7.9960   -1.6690 C.ar      1 COA1316     0.0000 
      5 C5A       -33.8700    8.0470   -2.0460 C.ar      1 COA1316     0.0000 
      6 C6A       -34.5470    9.2300   -1.9580 C.ar      1 COA1316     0.0000 
      7 N6A       -35.8550    9.2960   -2.2900 N.pl3     1 COA1316     0.0000 
      8 N7A       -34.2620    6.8230   -2.4180 N.2       1 COA1316     0.0000 
      9 C8A       -33.2020    5.9830   -2.3260 C.2       1 COA1316     0.0000 
     10 N9A       -32.1140    6.7170   -1.8520 N.pl3     1 COA1316     0.0000 
     11 C1B       -30.7290    6.2940   -1.6630 C.3       1 COA1316     0.0000 
     12 C2B       -30.5580    4.7850   -1.5320 C.3       1 COA1316     0.0000 
     13 O2B       -29.6270    4.4900   -0.5040 O.3       1 COA1316     0.0000 
     14 C3B       -30.0370    4.3660   -2.8770 C.3       1 COA1316     0.0000 
     15 O3B       -29.1620    3.2840   -2.7540 O.3       1 COA1316     0.0000 
     16 P3B       -29.7720    1.7730   -2.7920 P.3       1 COA1316     0.0000 
     17 O7A       -30.7230    1.6810   -3.9370 O.co2     1 COA1316     0.0000 
     18 O8A       -30.5510    1.5440   -1.5390 O.co2     1 COA1316     0.0000 
     19 O9A       -28.5590    0.9420   -3.0130 O.co2     1 COA1316     0.0000 
     20 C4B       -29.3000    5.5770   -3.3260 C.3       1 COA1316     0.0000 
     21 O4B       -30.0220    6.6300   -2.8270 O.3       1 COA1316     0.0000 
     22 C5B       -29.1770    5.6770   -4.8170 C.3       1 COA1316     0.0000 
     23 O5B       -28.4390    6.8380   -5.1580 O.3       1 COA1316     0.0000 
     24 P1A       -27.8350    6.8260   -6.6480 P.3       1 COA1316     0.0000 
     25 O1A       -26.8560    5.7500   -6.7980 O.co2     1 COA1316     0.0000 
     26 O2A       -27.2820    8.2020   -6.9320 O.co2     1 COA1316     0.0000 
     27 O3A       -29.1520    6.3640   -7.4310 O.3       1 COA1316     0.0000 
     28 P2A       -29.8580    6.8840   -8.7620 P.3       1 COA1316     0.0000 
     29 O4A       -29.0770    8.0280   -9.3830 O.co2     1 COA1316     0.0000 
     30 O5A       -30.0100    5.7610   -9.6620 O.co2     1 COA1316     0.0000 
     31 O6A       -31.3060    7.2800   -8.2430 O.3       1 COA1316     0.0000 
     32 CBP       -32.8090    8.6440   -6.9550 C.3       1 COA1316     0.0000 
     33 CCP       -31.5330    8.5770   -7.7740 C.3       1 COA1316     0.0000 
     34 CDP       -32.8020    7.3980   -6.0830 C.3       1 COA1316     0.0000 
     35 CEP       -32.6960    9.9180   -6.1170 C.3       1 COA1316     0.0000 
     36 CAP       -34.1490    8.6570   -7.7190 C.3       1 COA1316     0.0000 
     37 OAP       -35.1350    9.0200   -6.7530 O.3       1 COA1316     0.0000 
     38 C9P       -34.1770    9.6200   -8.8840 C.2       1 COA1316     0.0000 
     39 O9P       -33.4860    9.3100  -10.0520 O.2       1 COA1316     0.0000 
     40 N8P       -34.8150   10.7920   -8.7880 N.am      1 COA1316     0.0000 
     41 C7P       -34.1280   12.0560   -9.0620 C.3       1 COA1316     0.0000 
     42 C6P       -33.9880   12.2520  -10.5580 C.3       1 COA1316     0.0000 
     43 C5P       -33.2700   13.5300  -10.9150 C.2       1 COA1316     0.0000 
     44 O5P       -33.8930   14.5710  -10.8010 O.2       1 COA1316     0.0000 
     45 N4P       -32.0240   13.4620  -11.3920 N.am      1 COA1316     0.0000 
     46 C3P       -31.1930   14.6420  -11.6250 C.3       1 COA1316     0.0000 
     47 C2P       -31.3120   15.0580  -13.0710 C.3       1 COA1316     0.0000 
     48 S1P       -30.4270   16.5890  -13.5000 S.3       1 COA1316     0.0000 
     49 H         -32.0273   11.1293   -0.8958 H         1 COA1316     0.0000 
     50 H         -36.2884   10.1921   -2.1948 H         1 COA1316     0.0000 
     51 H         -36.2735    8.4428   -2.6014 H         1 COA1316     0.0000 
     52 H         -33.1800    5.0556   -2.5405 H         1 COA1316     0.0000 
     53 H         -30.2923    6.7596   -0.8074 H         1 COA1316     0.0000 
     54 H         -31.5146    4.3572   -1.3811 H         1 COA1316     0.0000 
     55 H         -30.8560    4.2010   -3.5217 H         1 COA1316     0.0000 
     56 H         -28.3059    5.5453   -2.8891 H         1 COA1316     0.0000 
     57 H         -30.1897    5.7006   -5.2459 H         1 COA1316     0.0000 
     58 H         -28.6870    4.7634   -5.1847 H         1 COA1316     0.0000 
     59 H         -31.6310    9.3082   -8.5984 H         1 COA1316     0.0000 
     60 H         -30.7086    8.9391   -7.1311 H         1 COA1316     0.0000 
     61 H         -34.3293    7.6518   -8.0732 H         1 COA1316     0.0000 
     62 H         -35.8120   10.8648   -8.5192 H         1 COA1316     0.0000 
     63 H         -33.1305   12.0584   -8.6144 H         1 COA1316     0.0000 
     64 H         -34.6904   12.8984   -8.6503 H         1 COA1316     0.0000 
     65 H         -34.9894   12.2576  -11.0147 H         1 COA1316     0.0000 
     66 H         -33.4409   11.3966  -10.9826 H         1 COA1316     0.0000 
     67 H         -31.5739   12.5440  -11.6264 H         1 COA1316     0.0000 
     68 H         -30.1453   14.4259  -11.4061 H         1 COA1316     0.0000 
     69 H         -31.5146   15.4719  -10.9925 H         1 COA1316     0.0000 
     70 H         -32.3254   15.2946  -13.3769 H         1 COA1316     0.0000 
     71 H         -30.8788   14.3488  -13.7681 H         1 COA1316     0.0000 
     72 H         -32.7817    6.5615   -6.6306 H         1 COA1316     0.0000 
     73 H         -32.0057    7.3721   -5.4787 H         1 COA1316     0.0000 
     74 H         -33.6135    7.3476   -5.5008 H         1 COA1316     0.0000 
     75 H         -31.8996    9.8956   -5.5127 H         1 COA1316     0.0000 
     76 H         -32.6064   10.7327   -6.6900 H         1 COA1316     0.0000 
     77 H         -33.4997   10.0540   -5.5377 H         1 COA1316     0.0000 
     78 H         -29.6607    3.4958   -0.4019 H         1 COA1316     0.0000 
     79 H         -35.4239    9.9417   -7.0120 H         1 COA1316     0.0000 
@<TRIPOS>BOND
     1    2    1 ar   
     2    6    1 ar   
     3    3    2 ar   
     4   49    2 1    
     5    4    3 ar   
     6    5    4 ar   
     7   10    4 1    
     8    6    5 ar   
     9    8    5 1    
    10    7    6 1    
    11   50    7 1    
    12   51    7 1    
    13    9    8 2    
    14   10    9 1    
    15   52    9 1    
    16   11   10 1    
    17   12   11 1    
    18   21   11 1    
    19   53   11 1    
    20   13   12 1    
    21   14   12 1    
    22   54   12 1    
    23   78   13 1    
    24   15   14 1    
    25   20   14 1    
    26   55   14 1    
    27   16   15 1    
    28   17   16 ar   
    29   18   16 ar   
    30   19   16 ar   
    31   21   20 1    
    32   22   20 1    
    33   56   20 1    
    34   23   22 1    
    35   57   22 1    
    36   58   22 1    
    37   24   23 1    
    38   25   24 ar   
    39   26   24 ar   
    40   27   24 1    
    41   28   27 1    
    42   29   28 ar   
    43   30   28 ar   
    44   31   28 1    
    45   33   31 1    
    46   33   32 1    
    47   34   32 1    
    48   35   32 1    
    49   36   32 1    
    50   59   33 1    
    51   60   33 1    
    52   72   34 1    
    53   73   34 1    
    54   74   34 1    
    55   75   35 1    
    56   76   35 1    
    57   77   35 1    
    58   37   36 1    
    59   38   36 1    
    60   61   36 1    
    61   79   37 1    
    62   39   38 2    
    63   40   38 am   
    64   41   40 1    
    65   62   40 1    
    66   42   41 1    
    67   63   41 1    
    68   64   41 1    
    69   43   42 1    
    70   65   42 1    
    71   66   42 1    
    72   44   43 2    
    73   45   43 am   
    74   46   45 1    
    75   67   45 1    
    76   47   46 1    
    77   68   46 1    
    78   69   46 1    
    79   48   47 1    
    80   70   47 1    
    81   71   47 1    
@<TRIPOS>SUBSTRUCTURE
     1 COA1316     1 GROUP   
@<TRIPOS>SET

