#    Name: 3hmi_DKI_1_INTS_M
#    Modification time : Tue Mar 25 14:31:42 2014

@<TRIPOS>MOLECULE
3hmi_DKI_1_INTS_M
   59     0     9     0     0
SMALL
NO_CHARGES


@<TRIPOS>ATOM
      1 CA        -30.9650    6.1745  -11.6640 C.3       3 GLC5        0.0000 
      2 CA        -29.6650    6.3000  -10.4390 C.3       9 GLL5        0.0000 
      3 CA        -32.2650    6.0490  -12.8890 C.3       6 GLP5        0.0000 
      4 CA        -31.1145    5.4790  -10.0435 C.3       3 GLC5        0.0000 
      5 CA        -32.5640    4.6580   -9.6480 C.3       6 GLP5        0.0000 
      6 CA        -30.0500    7.0180   -8.9295 C.3       3 GLC5        0.0000 
      7 CA        -30.4350    7.7360   -7.4200 C.3       6 GLP5        0.0000 
      8 CA        -23.9300    8.0165  -11.8095 C.3       3 GLC5        0.0000 
      9 CA        -25.7140    7.2150  -11.1360 C.3       9 GLL5        0.0000 
     10 CA        -22.1460    8.8180  -12.4830 C.3       6 GLP5        0.0000 
     11 CA        -26.2190    6.9830  -13.5375 C.3       3 GLC5        0.0000 
     12 CA        -26.4200    8.5540  -12.9440 C.3       9 GLL5        0.0000 
     13 CA        -26.0180    5.4120  -14.1310 C.3       6 GLP5        0.0000 
     14 CA        -30.9820    7.6255  -12.4930 C.3       3 GLC5        0.0000 
     15 CA        -29.6990    9.2020  -12.0970 C.3       9 GLL5        0.0000 
     16 CA        -29.4045   11.7810  -10.3340 C.3       3 GLC5        0.0000 
     17 CA        -29.6790    9.7430  -10.3650 C.3       9 GLL5        0.0000 
     18 CA        -29.1300   13.8190  -10.3030 C.3       6 GLP5        0.0000 
     19 CA        -27.6745   10.0880  -10.2280 C.3       3 GLC5        0.0000 
     20 CA        -25.6700   10.4330  -10.0910 C.3       6 GLP5        0.0000 
     21 CA        -30.0570    8.7395   -8.8925 C.3       3 GLC5        0.0000 
     22 O         -33.2910   11.7490  -11.0015 O.2       1 ALC1        0.0000 
     23 O         -32.0110   11.2080  -11.5160 O.2       7 ALL1        0.0000 
     24 O         -34.5710   12.2900  -10.4870 O.2       4 ALP1        0.0000 
     25 N         -33.3650   11.6650  -14.1920 N.am      2 SEC2        0.0000 
     26 N         -32.4810   10.5840  -13.7600 N.am      8 SEL2        0.0000 
     27 N         -34.2490   12.7460  -14.6240 N.am      5 SEP2        0.0000 
     28 O         -32.9935   10.7090  -16.6145 O.2       1 ALC1        0.0000 
     29 O         -32.3900    9.5800  -15.8910 O.2       7 ALL1        0.0000 
     30 O         -33.5970   11.8380  -17.3380 O.2       4 ALP1        0.0000 
     31 CA        -27.4187    4.6225  -10.9785 C.3       3 GLC5        0.0000 
     32 CA        -27.3580    6.0500   -9.8180 C.3       9 GLL5        0.0000 
     33 CA        -28.1500    3.0410  -12.0090 C.3       6 GLP5        0.0000 
     34 CA        -25.7677    8.6098  -10.3490 C.3       3 GLC5        0.0000 
     35 CA        -26.0170    6.3580  -10.0780 C.3       9 GLL5        0.0000 
     36 CA        -24.8125    8.7252  -13.0368 C.3       3 GLC5        0.0000 
     37 CA        -26.7360    7.7570  -11.9290 C.3       9 GLL5        0.0000 
     38 CA        -23.0470    9.2950  -13.6370 C.3       6 GLP5        0.0000 
     39 CA        -27.0170    9.9727  -12.9093 C.3       3 GLC5        0.0000 
     40 CA        -27.4560   11.7900  -13.3820 C.3       6 GLP5        0.0000 
     41 CA        -28.3455    4.9955  -11.5554 C.3       3 GLC5        0.0000 
     42 CA        -28.0690    7.4590  -11.6650 C.3       9 GLL5        0.0000 
     43 CA        -26.4968    9.1201  -11.0709 C.3       3 GLC5        0.0000 
     44 CA        -28.5725   10.6312  -12.3065 C.3       3 GLC5        0.0000 
     45 CA        -31.4037    9.4692  -18.5955 C.3       3 GLC5        0.0000 
     46 CA        -31.9760    8.6580  -16.8350 C.3       9 GLL5        0.0000 
     47 CA        -30.4030   10.3590  -19.8110 C.3       6 GLP5        0.0000 
     48 CA        -29.8122    9.4413  -16.1575 C.3       3 GLC5        0.0000 
     49 CA        -28.2360   10.5940  -15.4750 C.3       6 GLP5        0.0000 
     50 CA        -33.0596    7.0496  -16.6040 C.3       3 GLC5        0.0000 
     51 CA        -33.6330    6.0030  -15.0420 C.3       6 GLP5        0.0000 
     52 CA        -31.2000    8.8040  -19.3790 C.3       3 GLC5        0.0000 
     53 CA        -32.5680    7.6130  -18.9520 C.3       9 GLL5        0.0000 
     54 CA        -32.1465    6.7348  -16.2052 C.3       3 GLC5        0.0000 
     55 CA        -30.5190    7.0140  -17.8920 C.3       9 GLL5        0.0000 
     56 CA        -30.5315    8.9127  -18.5898 C.3       3 GLC5        0.0000 
     57 CA        -30.8010    7.9190  -16.8450 C.3       9 GLL5        0.0000 
     58 CA        -31.0667    4.9612  -18.0510 C.3       3 GLC5        0.0000 
     59 CA        -31.1610    2.9730  -17.6850 C.3       6 GLP5        0.0000 
@<TRIPOS>BOND
@<TRIPOS>SUBSTRUCTURE
     1 ALC1       22 GROUP        1 X    ALC  0     ROOT ALC X 1
     2 SEC2       25 GROUP        1 X    SEC  0     **** SEC X 2
     3 GLC5        1 GROUP        1 X    GLC  0     **** GLC X 6
     4 ALP1       24 GROUP        1 Y    ALP  0     ROOT ALP Y 8
     5 SEP2       27 GROUP        1 Y    SEP  0     **** SEP Y 9
     6 GLP5        3 GROUP        1 Y    GLP  0     **** GLP Y 13
     7 ALL1       23 GROUP        1 Z    ALL  0     ROOT ALL Z 15
     8 SEL2       26 GROUP        1 Z    SEL  0     **** SEL Z 16
     9 GLL5        2 GROUP        1 Z    GLL  0     **** GLL Z 20
@<TRIPOS>SET

