#    Name: 3hmi_DKI_1_ligand
#    Modification time : Tue Mar 25 14:31:42 2014

@<TRIPOS>MOLECULE
3hmi_DKI_1_ligand
   40    42     1     0     0
SMALL
NO_CHARGES


@<TRIPOS>ATOM
      1 FAF       -29.6650    6.3000  -10.4390 F         1 DKI1        0.0000 
      2 CAU       -28.3610    6.5820  -10.6380 C.ar      1 DKI1        0.0000 
      3 CAI       -27.3580    6.0500   -9.8180 C.ar      1 DKI1        0.0000 
      4 CAH       -26.0170    6.3580  -10.0780 C.ar      1 DKI1        0.0000 
      5 CAJ       -25.7140    7.2150  -11.1360 C.ar      1 DKI1        0.0000 
      6 CAV       -26.7360    7.7570  -11.9290 C.ar      1 DKI1        0.0000 
      7 FAG       -26.4200    8.5540  -12.9440 F         1 DKI1        0.0000 
      8 CAZ       -28.0690    7.4590  -11.6650 C.ar      1 DKI1        0.0000 
      9 NAQ       -29.1290    7.9070  -12.3620 N.am      1 DKI1        0.0000 
     10 CAS       -29.6990    9.2020  -12.0970 C.2       1 DKI1        0.0000 
     11 SAE       -29.6790    9.7430  -10.3650 S.2       1 DKI1        0.0000 
     12 NBA       -30.8590    9.5270  -12.8790 N.am      1 DKI1        0.0000 
     13 NAP       -30.8920    9.1060  -14.0770 N.2       1 DKI1        0.0000 
     14 CAT       -31.7700   10.4880  -12.6450 C.2       1 DKI1        0.0000 
     15 NAA       -32.0110   11.2080  -11.5160 N.pl3     1 DKI1        0.0000 
     16 NAO       -32.4810   10.5840  -13.7600 N.2       1 DKI1        0.0000 
     17 CAX       -31.9270    9.7350  -14.6400 C.2       1 DKI1        0.0000 
     18 NAR       -32.3900    9.5800  -15.8910 N.pl3     1 DKI1        0.0000 
     19 CAW       -31.9760    8.6580  -16.8350 C.ar      1 DKI1        0.0000 
     20 CAL       -32.8330    8.5010  -17.9250 C.ar      1 DKI1        0.0000 
     21 CAN       -32.5680    7.6130  -18.9520 C.ar      1 DKI1        0.0000 
     22 CAK       -30.8010    7.9190  -16.8450 C.ar      1 DKI1        0.0000 
     23 CAM       -30.5190    7.0140  -17.8920 C.ar      1 DKI1        0.0000 
     24 CAY       -31.4260    6.8850  -18.9420 C.ar      1 DKI1        0.0000 
     25 SBB       -31.1790    5.7800  -20.2750 S.o2      1 DKI1        0.0000 
     26 OAC       -29.9620    5.0150  -20.0110 O.2       1 DKI1        0.0000 
     27 OAD       -32.4030    4.9260  -20.2920 O.2       1 DKI1        0.0000 
     28 NAB       -31.0640    6.5340  -21.7430 N.pl3     1 DKI1        0.0000 
     29 H         -27.6033    5.4409   -9.0349 H         1 DKI1        0.0000 
     30 H         -25.2763    5.9613   -9.5023 H         1 DKI1        0.0000 
     31 H         -24.7335    7.4536  -11.3391 H         1 DKI1        0.0000 
     32 H         -29.5715    7.3421  -13.1093 H         1 DKI1        0.0000 
     33 H         -33.1853   10.2524  -16.2144 H         1 DKI1        0.0000 
     34 H         -33.7042    9.0768  -17.9620 H         1 DKI1        0.0000 
     35 H         -33.2521    7.5141  -19.7239 H         1 DKI1        0.0000 
     36 H         -30.1158    8.0250  -16.0800 H         1 DKI1        0.0000 
     37 H         -29.6606    6.4661  -17.8720 H         1 DKI1        0.0000 
     38 H         -30.9070    5.9397  -22.5318 H         1 DKI1        0.0000 
     39 H         -31.1598    7.5294  -21.7351 H         1 DKI1        0.0000 
     40 H         -33.0015   11.3448  -11.5029 H         1 DKI1        0.0000 
@<TRIPOS>BOND
     1    2    1 1    
     2    3    2 ar   
     3    8    2 ar   
     4    4    3 ar   
     5   29    3 1    
     6    5    4 ar   
     7   30    4 1    
     8    6    5 ar   
     9   31    5 1    
    10    7    6 1    
    11    8    6 ar   
    12    9    8 1    
    13   10    9 am   
    14   32    9 1    
    15   11   10 2    
    16   12   10 am   
    17   13   12 1    
    18   14   12 1    
    19   17   13 2    
    20   15   14 1    
    21   16   14 2    
    22   40   15 1    
    23   17   16 1    
    24   18   17 1    
    25   19   18 1    
    26   33   18 1    
    27   20   19 ar   
    28   22   19 ar   
    29   21   20 ar   
    30   34   20 1    
    31   24   21 ar   
    32   35   21 1    
    33   23   22 ar   
    34   36   22 1    
    35   24   23 ar   
    36   37   23 1    
    37   25   24 1    
    38   26   25 2    
    39   27   25 2    
    40   28   25 1    
    41   38   28 1    
    42   39   28 1    
@<TRIPOS>SUBSTRUCTURE
     1 DKI1        1 GROUP   
@<TRIPOS>SET

