#    Name: 2b99_RDL_5_INTS_M
#    Modification time : Mon Mar 24 20:22:24 2014

@<TRIPOS>MOLECULE
2b99_RDL_5_INTS_M
   52     0     9     0     0
SMALL
NO_CHARGES


@<TRIPOS>ATOM
      1 N          -3.0530  -11.1770   14.5475 N.am      2 SEC2        0.0000 
      2 N          -3.4590  -12.2910   13.7460 N.am      8 SEL2        0.0000 
      3 N          -2.6470  -10.0630   15.3490 N.am      5 SEP2        0.0000 
      4 O          -2.5450  -12.9160   12.8060 O.2       1 ALC1        0.0000 
      5 O          -3.4590  -12.2910   13.7460 O.2       7 ALL1        0.0000 
      6 O          -1.6310  -13.5410   11.8660 O.2       4 ALP1        0.0000 
      7 CA         -3.2000  -13.1225   15.7450 C.3       3 GLC5        0.0000 
      8 CA         -4.4490  -13.1990   14.2050 C.3       9 GLL5        0.0000 
      9 CA         -1.9510  -13.0460   17.2850 C.3       6 GLP5        0.0000 
     10 CA         -4.0580  -11.1180   14.8695 C.3       3 GLC5        0.0000 
     11 CA         -3.6670   -9.0370   15.5340 C.3       6 GLP5        0.0000 
     12 CA         -5.3755  -13.5470   16.1840 C.3       3 GLC5        0.0000 
     13 CA         -6.3020  -13.8950   18.1630 C.3       6 GLP5        0.0000 
     14 O          -5.7965  -11.0585   14.7145 O.2       1 ALC1        0.0000 
     15 O          -6.1050  -11.6060   13.4090 O.2       7 ALL1        0.0000 
     16 O          -5.4880  -10.5110   16.0200 O.2       4 ALP1        0.0000 
     17 CA         -5.5040  -15.4315   10.8980 C.3       3 GLC5        0.0000 
     18 CA         -5.6410  -13.4920   11.9780 C.3       9 GLL5        0.0000 
     19 CA         -5.3670  -17.3710    9.8180 C.3       6 GLP5        0.0000 
     20 CA         -5.0750  -12.3095   10.4630 C.3       3 GLC5        0.0000 
     21 CA         -4.5090  -11.1270    8.9480 C.3       6 GLP5        0.0000 
     22 O          -3.9815  -15.1840   12.0020 O.2       1 ALC1        0.0000 
     23 O          -5.3140  -14.8830   12.0550 O.2       7 ALL1        0.0000 
     24 O          -2.6490  -15.4850   11.9490 O.2       4 ALP1        0.0000 
     25 CA         -6.3910  -11.9635    9.7980 C.3       3 GLC5        0.0000 
     26 CA         -6.9200  -13.3110   11.1080 C.3       9 GLL5        0.0000 
     27 CA         -5.8620  -10.6160    8.4880 C.3       6 GLP5        0.0000 
     28 N          -5.7865  -13.5200    8.8090 N.am      2 SEC2        0.0000 
     29 N          -6.7360  -13.7710    9.7730 N.am      8 SEL2        0.0000 
     30 N          -4.8370  -13.2690    7.8450 N.am      5 SEP2        0.0000 
     31 CA        -10.6070  -16.0690   10.8470 C.3       3 GLC5        0.0000 
     32 CA         -9.7500  -14.6590    9.9080 C.3       9 GLL5        0.0000 
     33 CA        -11.4640  -17.4790   11.7860 C.3       6 GLP5        0.0000 
     34 CA         -8.4500  -14.6650    8.1245 C.3       3 GLC5        0.0000 
     35 CA         -7.1500  -14.6710    6.3410 C.3       6 GLP5        0.0000 
     36 CA        -11.7555  -15.9975   10.0450 C.3       3 GLC5        0.0000 
     37 CA        -11.0840  -14.4390    9.3040 C.3       9 GLL5        0.0000 
     38 CA        -12.4270  -17.5560   10.7860 C.3       6 GLP5        0.0000 
     39 CA        -10.6430  -12.4040    8.4535 C.3       3 GLC5        0.0000 
     40 CA        -10.2020  -10.3690    7.6030 C.3       6 GLP5        0.0000 
     41 O         -13.4055  -13.1215    9.6195 O.2       1 ALC1        0.0000 
     42 O         -11.9380  -13.4810    9.8120 O.2       7 ALL1        0.0000 
     43 O         -14.8730  -12.7620    9.4270 O.2       4 ALP1        0.0000 
     44 N         -13.4440  -15.6920    6.8585 N.am      2 SEC2        0.0000 
     45 N         -12.5580  -15.1450    7.6030 N.am      8 SEL2        0.0000 
     46 N         -14.3300  -16.2390    6.1140 N.am      5 SEP2        0.0000 
     47 O         -11.0335  -17.3450    6.7415 O.2       1 ALC1        0.0000 
     48 O         -10.5170  -16.1920    7.7260 O.2       7 ALL1        0.0000 
     49 O         -11.5500  -18.4980    5.7570 O.2       4 ALP1        0.0000 
     50 N          -7.1970  -16.6450    7.8850 N.am      2 SEC2        0.0000 
     51 N          -8.4940  -17.2000    7.8770 N.am      8 SEL2        0.0000 
     52 N          -5.9000  -16.0900    7.8930 N.am      5 SEP2        0.0000 
@<TRIPOS>BOND
@<TRIPOS>SUBSTRUCTURE
     1 ALC1        4 GROUP        1 X    ALC  0     ROOT ALC X 1
     2 SEC2        1 GROUP        1 X    SEC  0     **** SEC X 2
     3 GLC5        7 GROUP        1 X    GLC  0     **** GLC X 6
     4 ALP1        6 GROUP        1 Y    ALP  0     ROOT ALP Y 8
     5 SEP2        3 GROUP        1 Y    SEP  0     **** SEP Y 9
     6 GLP5        9 GROUP        1 Y    GLP  0     **** GLP Y 13
     7 ALL1        5 GROUP        1 Z    ALL  0     ROOT ALL Z 15
     8 SEL2        2 GROUP        1 Z    SEL  0     **** SEL Z 16
     9 GLL5        8 GROUP        1 Z    GLL  0     **** GLL Z 20
@<TRIPOS>SET

