#    Name: 2b99_RDL_5_ligand
#    Modification time : Mon Mar 24 20:22:24 2014

@<TRIPOS>MOLECULE
2b99_RDL_5_ligand
   37    38     1     0     0
SMALL
NO_CHARGES


@<TRIPOS>ATOM
      1 O15        -3.4590  -12.2910   13.7460 O.3       1 RDL1210     0.0000 
      2 C15        -4.4490  -13.1990   14.2050 C.3       1 RDL1210     0.0000 
      3 C14        -5.7690  -12.9970   13.4220 C.3       1 RDL1210     0.0000 
      4 O14        -6.1050  -11.6060   13.4090 O.3       1 RDL1210     0.0000 
      5 C13        -5.6410  -13.4920   11.9780 C.3       1 RDL1210     0.0000 
      6 O13        -5.3140  -14.8830   12.0550 O.3       1 RDL1210     0.0000 
      7 C12        -6.9200  -13.3110   11.1080 C.3       1 RDL1210     0.0000 
      8 O12        -6.7360  -13.7710    9.7730 O.3       1 RDL1210     0.0000 
      9 C11        -8.0920  -14.0820   11.6070 C.3       1 RDL1210     0.0000 
     10 N9         -9.3950  -13.8890   10.9780 N.am      1 RDL1210     0.0000 
     11 C8        -10.2180  -12.9380   11.4890 C.2       1 RDL1210     0.0000 
     12 O8         -9.8790  -12.2350   12.4650 O.2       1 RDL1210     0.0000 
     13 C7        -11.5660  -12.7200   10.8720 C.2       1 RDL1210     0.0000 
     14 O7        -12.3220  -11.8300   11.3610 O.2       1 RDL1210     0.0000 
     15 C10        -9.7500  -14.6590    9.9080 C.2       1 RDL1210     0.0000 
     16 C5        -11.0840  -14.4390    9.3040 C.2       1 RDL1210     0.0000 
     17 N6        -11.9380  -13.4810    9.8120 N.am      1 RDL1210     0.0000 
     18 C4        -11.4320  -15.2770    8.1630 C.2       1 RDL1210     0.0000 
     19 O4        -12.5580  -15.1450    7.6030 O.2       1 RDL1210     0.0000 
     20 N3        -10.5170  -16.1920    7.7260 N.am      1 RDL1210     0.0000 
     21 C2         -9.2870  -16.3510    8.3250 C.2       1 RDL1210     0.0000 
     22 N1         -8.9340  -15.6120    9.3710 N.am      1 RDL1210     0.0000 
     23 O2         -8.4940  -17.2000    7.8770 O.2       1 RDL1210     0.0000 
     24 H          -4.6806  -13.0581   15.2688 H         1 RDL1210     0.0000 
     25 H          -4.1489  -14.2458   14.0661 H         1 RDL1210     0.0000 
     26 H          -6.5368  -13.5753   13.9116 H         1 RDL1210     0.0000 
     27 H          -4.8304  -12.9499   11.5046 H         1 RDL1210     0.0000 
     28 H          -7.1819  -12.2569   11.1045 H         1 RDL1210     0.0000 
     29 H          -8.1871  -13.8903   12.7249 H         1 RDL1210     0.0000 
     30 H          -7.8237  -15.1877   11.5740 H         1 RDL1210     0.0000 
     31 H         -12.8701  -13.3497    9.3723 H         1 RDL1210     0.0000 
     32 H         -10.7559  -16.8000    6.9019 H         1 RDL1210     0.0000 
     33 H          -7.9825  -15.7568    9.8178 H         1 RDL1210     0.0000 
     34 H          -2.9217  -12.8089   13.0803 H         1 RDL1210     0.0000 
     35 H          -5.8883  -11.2789   14.3288 H         1 RDL1210     0.0000 
     36 H          -4.4092  -14.9129   12.4799 H         1 RDL1210     0.0000 
     37 H          -6.0192  -14.4655    9.8352 H         1 RDL1210     0.0000 
@<TRIPOS>BOND
     1    2    1 1    
     2   34    1 1    
     3    3    2 1    
     4   24    2 1    
     5   25    2 1    
     6    4    3 1    
     7    5    3 1    
     8   26    3 1    
     9   35    4 1    
    10    6    5 1    
    11    7    5 1    
    12   27    5 1    
    13   36    6 1    
    14    8    7 1    
    15    9    7 1    
    16   28    7 1    
    17   37    8 1    
    18   10    9 1    
    19   29    9 1    
    20   30    9 1    
    21   11   10 am   
    22   15   10 1    
    23   12   11 2    
    24   13   11 1    
    25   14   13 2    
    26   17   13 am   
    27   16   15 2    
    28   22   15 1    
    29   17   16 1    
    30   18   16 1    
    31   31   17 1    
    32   19   18 2    
    33   20   18 1    
    34   21   20 1    
    35   32   20 1    
    36   22   21 1    
    37   23   21 2    
    38   33   22 1    
@<TRIPOS>SUBSTRUCTURE
     1 RDL1210     1 GROUP   
@<TRIPOS>SET

