#    Name: 1k0j_FAD_1_INTS_M
#    Modification time : Mon Apr  7 13:12:14 2014

@<TRIPOS>MOLECULE
1k0j_FAD_1_INTS_M
  110     0     9     0     0
SMALL
NO_CHARGES


@<TRIPOS>ATOM
      1 CA         60.7170   91.6030  111.9420 C.3       3 GLC5        0.0000 
      2 CA         59.9170   93.4260  112.2540 C.3       9 GLL5        0.0000 
      3 CA         61.5170   89.7800  111.6300 C.3       6 GLP5        0.0000 
      4 CA         59.2430   94.5265  114.9930 C.3       3 GLC5        0.0000 
      5 CA         60.0280   94.7200  113.0960 C.3       9 GLL5        0.0000 
      6 CA         58.4580   94.3330  116.8900 C.3       6 GLP5        0.0000 
      7 CA         57.9690   95.1815  112.6065 C.3       3 GLC5        0.0000 
      8 CA         55.9100   95.6430  112.1170 C.3       6 GLP5        0.0000 
      9 N          60.0650   97.4690  111.2805 N.am      2 SEC2        0.0000 
     10 N          60.0400   96.9970  112.5720 N.am      8 SEL2        0.0000 
     11 N          60.0900   97.9410  109.9890 N.am      5 SEP2        0.0000 
     12 O          59.7640   97.3335  113.8730 O.2       1 ALC1        0.0000 
     13 O          60.0400   96.9970  112.5720 O.2       7 ALL1        0.0000 
     14 O          59.4880   97.6700  115.1740 O.2       4 ALP1        0.0000 
     15 O          62.2185   97.7420  113.8825 O.2       1 ALC1        0.0000 
     16 O          62.9860   96.8700  112.9050 O.2       7 ALL1        0.0000 
     17 O          61.4510   98.6140  114.8600 O.2       4 ALP1        0.0000 
     18 CA         60.1790   94.8410  115.6450 C.3       3 GLC5        0.0000 
     19 CA         61.9000   95.3490  114.4000 C.3       9 GLL5        0.0000 
     20 CA         61.4790   93.2670  114.7645 C.3       3 GLC5        0.0000 
     21 CA         61.0580   91.1850  115.1290 C.3       6 GLP5        0.0000 
     22 CA         64.9895   92.2890  115.7625 C.3       3 GLC5        0.0000 
     23 CA         64.5490   94.3040  116.6230 C.3       9 GLL5        0.0000 
     24 CA         65.4300   90.2740  114.9020 C.3       6 GLP5        0.0000 
     25 CA         63.3650   93.3720  118.9125 C.3       3 GLC5        0.0000 
     26 CA         65.0870   94.3630  117.9120 C.3       9 GLL5        0.0000 
     27 CA         61.6430   92.3810  119.9130 C.3       6 GLP5        0.0000 
     28 CA         64.9415   95.0440  120.0255 C.3       3 GLC5        0.0000 
     29 CA         64.7960   95.7250  122.1390 C.3       6 GLP5        0.0000 
     30 CA         65.6300   92.5335  118.9670 C.3       3 GLC5        0.0000 
     31 CA         66.1730   90.7040  120.0220 C.3       6 GLP5        0.0000 
     32 CA         62.4080   93.8965  119.2410 C.3       3 GLC5        0.0000 
     33 CA         63.1730   95.4120  118.5690 C.3       9 GLL5        0.0000 
     34 CA         61.7645   96.9860  118.5010 C.3       3 GLC5        0.0000 
     35 CA         60.3560   98.5600  118.4330 C.3       6 GLP5        0.0000 
     36 CA         64.0715   96.7860  117.8005 C.3       3 GLC5        0.0000 
     37 CA         64.9700   98.1600  117.0320 C.3       6 GLP5        0.0000 
     38 CA         63.9845   95.5685  120.3540 C.3       3 GLC5        0.0000 
     39 N          62.6105   97.0360  117.5535 N.am      2 SEC2        0.0000 
     40 N          62.5480   95.4300  117.3810 N.am      8 SEL2        0.0000 
     41 N          62.6730   98.6420  117.7260 N.am      5 SEP2        0.0000 
     42 N          53.9455   88.6350  103.0210 N.am      2 SEC2        0.0000 
     43 N          54.1410   89.1240  101.7760 N.am      8 SEL2        0.0000 
     44 N          53.7500   88.1460  104.2660 N.am      5 SEP2        0.0000 
     45 N          51.6245   87.6920  103.3365 N.am      2 SEC2        0.0000 
     46 N          52.0260   88.2270  101.9330 N.am      8 SEL2        0.0000 
     47 N          51.2230   87.1570  104.7400 N.am      5 SEP2        0.0000 
     48 O          50.7270   89.4560  100.0275 O.2       1 ALC1        0.0000 
     49 O          52.4590   89.5750  100.1920 O.2       7 ALL1        0.0000 
     50 O          48.9950   89.3370   99.8630 O.2       4 ALP1        0.0000 
     51 N          51.2525   91.1690   98.4505 N.am      2 SEC2        0.0000 
     52 N          52.7150   90.7500   98.3450 N.am      8 SEL2        0.0000 
     53 N          49.7900   91.5880   98.5560 N.am      5 SEP2        0.0000 
     54 CA         59.5785   90.3450   95.1355 C.3       3 GLC5        0.0000 
     55 CA         59.7970   91.4660   96.8460 C.3       9 GLL5        0.0000 
     56 CA         59.3600   89.2240   93.4250 C.3       6 GLP5        0.0000 
     57 CA         59.4970   92.4295   95.0685 C.3       3 GLC5        0.0000 
     58 CA         59.1970   93.3930   93.2910 C.3       6 GLP5        0.0000 
     59 CA         61.9105   91.4985   96.9155 C.3       3 GLC5        0.0000 
     60 CA         64.0240   91.5310   96.9850 C.3       6 GLP5        0.0000 
     61 CA         60.0760   93.2135   97.9350 C.3       3 GLC5        0.0000 
     62 CA         60.3550   94.9610   99.0240 C.3       6 GLP5        0.0000 
     63 CA         62.6130   90.8510   98.2505 C.3       3 GLC5        0.0000 
     64 CA         61.2020   90.1710   99.5160 C.3       9 GLL5        0.0000 
     65 CA         61.0985   91.8435  100.3925 C.3       3 GLC5        0.0000 
     66 CA         60.9950   93.5160  101.2690 C.3       6 GLP5        0.0000 
     67 CA         54.7820   89.7450  104.5225 C.3       3 GLC5        0.0000 
     68 CA         56.6890   90.6220  103.8630 C.3       9 GLL5        0.0000 
     69 CA         52.8750   88.8680  105.1820 C.3       6 GLP5        0.0000 
     70 O          56.2805   92.6705  103.8505 O.2       1 ALC1        0.0000 
     71 O          57.3710   91.8160  103.4900 O.2       7 ALL1        0.0000 
     72 O          55.1900   93.5250  104.2110 O.2       4 ALP1        0.0000 
     73 O          57.8285   88.1315  106.1795 O.2       1 ALC1        0.0000 
     74 O          56.9930   88.7190  105.3570 O.2       7 ALL1        0.0000 
     75 O          58.6640   87.5440  107.0020 O.2       4 ALP1        0.0000 
     76 CA         54.5630   91.3055  106.4175 C.3       3 GLC5        0.0000 
     77 CA         56.6840   90.9640  106.3950 C.3       9 GLL5        0.0000 
     78 CA         52.4420   91.6470  106.4400 C.3       6 GLP5        0.0000 
     79 N          56.6220   93.5380  106.1730 N.am      2 SEC2        0.0000 
     80 N          57.2860   92.2460  106.4810 N.am      8 SEL2        0.0000 
     81 N          55.9580   94.8300  105.8650 N.am      5 SEP2        0.0000 
     82 CA         58.5805   89.1690  108.2715 C.3       3 GLC5        0.0000 
     83 CA         57.0180   90.3570  107.7210 C.3       9 GLL5        0.0000 
     84 CA         60.1430   87.9810  108.8220 C.3       6 GLP5        0.0000 
     85 N          54.7585   92.0375  111.5415 N.am      2 SEC2        0.0000 
     86 N          56.1970   91.9010  111.1220 N.am      8 SEL2        0.0000 
     87 N          53.3200   92.1740  111.9610 N.am      5 SEP2        0.0000 
     88 N          55.7340   89.4820  111.1955 N.am      2 SEC2        0.0000 
     89 N          57.0250   89.5380  110.5620 N.am      8 SEL2        0.0000 
     90 N          54.4430   89.4260  111.8290 N.am      5 SEP2        0.0000 
     91 N          57.6670   88.1735  110.2520 N.am      2 SEC2        0.0000 
     92 N          58.3090   86.8090  109.9420 N.am      5 SEP2        0.0000 
     93 N          57.7555   89.0965  111.8005 N.am      2 SEC2        0.0000 
     94 N          58.4860   88.6550  113.0390 N.am      5 SEP2        0.0000 
     95 CA         60.5152   92.6290  113.9020 C.3       3 GLC5        0.0000 
     96 CA         63.0445   92.9310  116.3568 C.3       3 GLC5        0.0000 
     97 CA         62.1590   91.2890  116.1860 C.3       6 GLP5        0.0000 
     98 CA         64.5173   96.3739  116.9409 C.3       3 GLC5        0.0000 
     99 CA         63.3110   94.8420  116.4320 C.3       9 GLL5        0.0000 
    100 CA         57.8113   89.2407   97.6980 C.3       3 GLC5        0.0000 
    101 CA         56.8090   90.8720   99.1430 C.3       9 GLL5        0.0000 
    102 CA         58.3840   87.4370   96.8090 C.3       6 GLP5        0.0000 
    103 CA         59.5365   89.3470   97.5203 C.3       3 GLC5        0.0000 
    104 CA         59.0470   91.0240   98.0710 C.3       9 GLL5        0.0000 
    105 CA         59.6510   87.4490   97.5820 C.3       6 GLP5        0.0000 
    106 CA         59.6396   88.8276   98.7442 C.3       3 GLC5        0.0000 
    107 CA         59.6670   90.4380   99.3120 C.3       9 GLL5        0.0000 
    108 CA         56.1624   88.2815  103.9156 C.3       3 GLC5        0.0000 
    109 CA         56.8760   89.6200  102.7020 C.3       9 GLL5        0.0000 
    110 CA         55.3200   86.4370  103.5900 C.3       6 GLP5        0.0000 
@<TRIPOS>BOND
@<TRIPOS>SUBSTRUCTURE
     1 ALC1       12 GROUP        1 X    ALC  0     ROOT ALC X 1
     2 SEC2        9 GROUP        1 X    SEC  0     **** SEC X 2
     3 GLC5        1 GROUP        1 X    GLC  0     **** GLC X 6
     4 ALP1       14 GROUP        1 Y    ALP  0     ROOT ALP Y 8
     5 SEP2       11 GROUP        1 Y    SEP  0     **** SEP Y 9
     6 GLP5        3 GROUP        1 Y    GLP  0     **** GLP Y 13
     7 ALL1       13 GROUP        1 Z    ALL  0     ROOT ALL Z 15
     8 SEL2       10 GROUP        1 Z    SEL  0     **** SEL Z 16
     9 GLL5        2 GROUP        1 Z    GLL  0     **** GLL Z 20
@<TRIPOS>SET

