#    Name: 1k0j_FAD_1_ligand
#    Modification time : Mon Apr  7 13:12:14 2014

@<TRIPOS>MOLECULE
1k0j_FAD_1_ligand
   84    89     1     0     0
SMALL
NO_CHARGES


@<TRIPOS>ATOM
      1 PA         59.0670   92.9800  109.7790 P.3       1 FAD395      0.0000 
      2 O1A        58.1380   93.7110  108.9200 O.co2     1 FAD395      0.0000 
      3 O2A        60.4310   92.7310  109.2800 O.co2     1 FAD395      0.0000 
      4 O5B        59.0910   93.6870  111.1460 O.3       1 FAD395      0.0000 
      5 C5B        59.9170   93.4260  112.2540 C.3       1 FAD395      0.0000 
      6 C4B        60.0280   94.7200  113.0960 C.3       1 FAD395      0.0000 
      7 O4B        60.7440   94.5370  114.3350 O.3       1 FAD395      0.0000 
      8 C3B        60.7710   95.8130  112.3770 C.3       1 FAD395      0.0000 
      9 O3B        60.0400   96.9970  112.5720 O.3       1 FAD395      0.0000 
     10 C2B        62.1540   95.7250  112.9880 C.3       1 FAD395      0.0000 
     11 O2B        62.9860   96.8700  112.9050 O.3       1 FAD395      0.0000 
     12 C1B        61.9000   95.3490  114.4000 C.3       1 FAD395      0.0000 
     13 N9A        63.0030   94.6380  115.1040 N.pl3     1 FAD395      0.0000 
     14 C8A        64.1110   93.9800  114.5890 C.2       1 FAD395      0.0000 
     15 N7A        65.0430   93.7630  115.4500 N.2       1 FAD395      0.0000 
     16 C5A        64.5490   94.3040  116.6230 C.ar      1 FAD395      0.0000 
     17 C6A        65.0870   94.3630  117.9120 C.ar      1 FAD395      0.0000 
     18 N6A        66.3150   93.9480  118.1200 N.pl3     1 FAD395      0.0000 
     19 N1A        64.3680   94.9270  118.8960 N.ar      1 FAD395      0.0000 
     20 C2A        63.1730   95.4120  118.5690 C.ar      1 FAD395      0.0000 
     21 N3A        62.5480   95.4300  117.3810 N.ar      1 FAD395      0.0000 
     22 C4A        63.3110   94.8420  116.4320 C.ar      1 FAD395      0.0000 
     23 N1         54.1410   89.1240  101.7760 N.2       1 FAD395      0.0000 
     24 C2         52.8390   88.9630  101.3630 C.2       1 FAD395      0.0000 
     25 O2         52.0260   88.2270  101.9330 O.2       1 FAD395      0.0000 
     26 N3         52.4590   89.5750  100.1920 N.am      1 FAD395      0.0000 
     27 C4         53.2560   90.3200   99.3680 C.2       1 FAD395      0.0000 
     28 O4         52.7150   90.7500   98.3450 O.2       1 FAD395      0.0000 
     29 C4X        54.6140   90.4450   99.8130 C.2       1 FAD395      0.0000 
     30 N5         55.4620   90.9890   98.8800 N.2       1 FAD395      0.0000 
     31 C5X        56.8090   90.8720   99.1430 C.ar      1 FAD395      0.0000 
     32 C6         57.6680   91.2170   98.0310 C.ar      1 FAD395      0.0000 
     33 C7         59.0470   91.0240   98.0710 C.ar      1 FAD395      0.0000 
     34 C7M        59.7970   91.4660   96.8460 C.3       1 FAD395      0.0000 
     35 C8         59.6670   90.4380   99.3120 C.ar      1 FAD395      0.0000 
     36 C8M        61.2020   90.1710   99.5160 C.3       1 FAD395      0.0000 
     37 C9         58.8220   90.1080  100.3990 C.ar      1 FAD395      0.0000 
     38 C9A        57.3890   90.3160  100.3390 C.ar      1 FAD395      0.0000 
     39 N10        56.4070   89.9570  101.3570 N.pl3     1 FAD395      0.0000 
     40 C10        54.9820   89.8380  101.0160 C.2       1 FAD395      0.0000 
     41 C1'        56.8760   89.6200  102.7020 C.3       1 FAD395      0.0000 
     42 C2'        56.6890   90.6220  103.8630 C.3       1 FAD395      0.0000 
     43 O2'        57.3710   91.8160  103.4900 O.3       1 FAD395      0.0000 
     44 C3'        57.2270   90.1310  105.2000 C.3       1 FAD395      0.0000 
     45 O3'        56.9930   88.7190  105.3570 O.3       1 FAD395      0.0000 
     46 C4'        56.6840   90.9640  106.3950 C.3       1 FAD395      0.0000 
     47 O4'        57.2860   92.2460  106.4810 O.3       1 FAD395      0.0000 
     48 C5'        57.0180   90.3570  107.7210 C.3       1 FAD395      0.0000 
     49 O5'        56.4900   91.1240  108.7700 O.3       1 FAD395      0.0000 
     50 P          56.9900   90.9880  110.2630 P.3       1 FAD395      0.0000 
     51 O1P        56.1970   91.9010  111.1220 O.co2     1 FAD395      0.0000 
     52 O2P        57.0250   89.5380  110.5620 O.co2     1 FAD395      0.0000 
     53 O3P        58.5020   91.5490  110.2160 O.3       1 FAD395      0.0000 
     54 H          60.9315   93.1428  111.9673 H         1 FAD395      0.0000 
     55 H          59.5131   92.6517  112.9090 H         1 FAD395      0.0000 
     56 H          59.0243   95.0848  113.3021 H         1 FAD395      0.0000 
     57 H          60.8310   95.5072  111.3471 H         1 FAD395      0.0000 
     58 H          62.6411   94.8402  112.5269 H         1 FAD395      0.0000 
     59 H          61.6490   96.2655  114.9508 H         1 FAD395      0.0000 
     60 H          64.1340   93.7161  113.6159 H         1 FAD395      0.0000 
     61 H          66.8051   93.6048  117.3188 H         1 FAD395      0.0000 
     62 H          66.6480   94.0130  119.0607 H         1 FAD395      0.0000 
     63 H          62.6006   95.8745  119.4054 H         1 FAD395      0.0000 
     64 H          51.4271   89.4534   99.8959 H         1 FAD395      0.0000 
     65 H          57.2216   91.6188   97.1887 H         1 FAD395      0.0000 
     66 H          59.2206   89.7107  101.2574 H         1 FAD395      0.0000 
     67 H          57.9823   89.3628  102.6694 H         1 FAD395      0.0000 
     68 H          56.4064   88.6414  103.0382 H         1 FAD395      0.0000 
     69 H          55.6271   90.8159  103.9604 H         1 FAD395      0.0000 
     70 H          58.3300   90.3124  105.1789 H         1 FAD395      0.0000 
     71 H          55.6186   91.0452  106.3154 H         1 FAD395      0.0000 
     72 H          58.1199   90.2714  107.7899 H         1 FAD395      0.0000 
     73 H          56.6249   89.3218  107.7317 H         1 FAD395      0.0000 
     74 H          60.7802   91.3067   96.9349 H         1 FAD395      0.0000 
     75 H          59.4936   90.9770   96.0282 H         1 FAD395      0.0000 
     76 H          59.6732   92.4420   96.6667 H         1 FAD395      0.0000 
     77 H          61.7382   91.0120   99.4431 H         1 FAD395      0.0000 
     78 H          61.3943   89.7778  100.4151 H         1 FAD395      0.0000 
     79 H          61.5619   89.5339   98.8344 H         1 FAD395      0.0000 
     80 H          59.9054   97.0580  113.5610 H         1 FAD395      0.0000 
     81 H          62.5860   97.5273  113.5437 H         1 FAD395      0.0000 
     82 H          56.7096   92.5503  103.6431 H         1 FAD395      0.0000 
     83 H          57.7216   88.4020  105.9642 H         1 FAD395      0.0000 
     84 H          57.3958   92.4151  107.4605 H         1 FAD395      0.0000 
@<TRIPOS>BOND
     1    2    1 ar   
     2    3    1 ar   
     3    4    1 1    
     4   53    1 1    
     5    5    4 1    
     6    6    5 1    
     7   54    5 1    
     8   55    5 1    
     9    7    6 1    
    10    8    6 1    
    11   56    6 1    
    12   12    7 1    
    13    9    8 1    
    14   10    8 1    
    15   57    8 1    
    16   80    9 1    
    17   11   10 1    
    18   12   10 1    
    19   58   10 1    
    20   81   11 1    
    21   13   12 1    
    22   59   12 1    
    23   14   13 1    
    24   22   13 1    
    25   15   14 2    
    26   60   14 1    
    27   16   15 1    
    28   17   16 ar   
    29   22   16 ar   
    30   18   17 1    
    31   19   17 ar   
    32   61   18 1    
    33   62   18 1    
    34   20   19 ar   
    35   21   20 ar   
    36   63   20 1    
    37   22   21 ar   
    38   24   23 1    
    39   40   23 2    
    40   25   24 2    
    41   26   24 am   
    42   27   26 am   
    43   64   26 1    
    44   28   27 2    
    45   29   27 1    
    46   30   29 2    
    47   40   29 1    
    48   31   30 1    
    49   32   31 ar   
    50   38   31 ar   
    51   33   32 ar   
    52   65   32 1    
    53   34   33 1    
    54   35   33 ar   
    55   74   34 1    
    56   75   34 1    
    57   76   34 1    
    58   36   35 1    
    59   37   35 ar   
    60   77   36 1    
    61   78   36 1    
    62   79   36 1    
    63   38   37 ar   
    64   66   37 1    
    65   39   38 1    
    66   40   39 1    
    67   41   39 1    
    68   42   41 1    
    69   67   41 1    
    70   68   41 1    
    71   43   42 1    
    72   44   42 1    
    73   69   42 1    
    74   82   43 1    
    75   45   44 1    
    76   46   44 1    
    77   70   44 1    
    78   83   45 1    
    79   47   46 1    
    80   48   46 1    
    81   71   46 1    
    82   84   47 1    
    83   49   48 1    
    84   72   48 1    
    85   73   48 1    
    86   50   49 1    
    87   51   50 ar   
    88   52   50 ar   
    89   53   50 1    
@<TRIPOS>SUBSTRUCTURE
     1 FAD395      1 GROUP   
@<TRIPOS>SET

