#    Name: 4hmt_NNV_2_INTS_M
#    Modification time : Tue Mar 25 01:24:33 2014

@<TRIPOS>MOLECULE
4hmt_NNV_2_INTS_M
   46     0     9     0     0
SMALL
NO_CHARGES


@<TRIPOS>ATOM
      1 CA         16.6925   -7.3260   20.6745 C.3       3 GLC5        0.0000 
      2 CA         14.9540   -6.2320   20.9810 C.3       9 GLL5        0.0000 
      3 CA         18.4310   -8.4200   20.3680 C.3       6 GLP5        0.0000 
      4 CA         15.7805   -7.9380   19.2730 C.3       3 GLC5        0.0000 
      5 CA         14.3830   -7.4240   20.3400 C.3       9 GLL5        0.0000 
      6 CA         17.1780   -8.4520   18.2060 C.3       6 GLP5        0.0000 
      7 CA         14.8060   -7.1355   18.1635 C.3       3 GLC5        0.0000 
      8 CA         15.2290   -6.8470   15.9870 C.3       6 GLP5        0.0000 
      9 CA         11.8195   -8.2380   18.7645 C.3       3 GLC5        0.0000 
     10 CA         12.9420   -7.7970   20.5980 C.3       9 GLL5        0.0000 
     11 CA         10.6970   -8.6790   16.9310 C.3       6 GLP5        0.0000 
     12 N           9.3605   -2.8030   26.8155 N.am      1 SEC2        0.0000 
     13 N          10.2450   -3.7750   26.5780 N.am      7 SEL2        0.0000 
     14 N           8.4760   -1.8310   27.0530 N.am      4 SEP2        0.0000 
     15 N          10.4170   -4.6760   27.6400 N.am      1 SEC2        0.0000 
     16 N          10.5890   -5.5770   28.7020 N.am      4 SEP2        0.0000 
     17 NZ         10.7945   -6.8080   25.7800 N.4       2 LYC4        0.0000 
     18 NZ         11.2110   -5.6150   25.8710 N.4       8 LYL4        0.0000 
     19 NZ          9.3580   -8.2920   26.4820 N.4       5 LYP4        0.0000 
     20 N          10.7945   -6.8080   25.7800 N.am      1 SEC2        0.0000 
     21 N          11.2110   -5.6150   25.8710 N.am      7 SEL2        0.0000 
     22 N          10.3780   -8.0010   25.6890 N.am      4 SEP2        0.0000 
     23 NZ         13.3400  -11.2835   19.9635 N.4       2 LYC4        0.0000 
     24 NZ         12.7130  -10.1060   20.1730 N.4       8 LYL4        0.0000 
     25 NZ         13.9670  -12.4610   19.7540 N.4       5 LYP4        0.0000 
     26 N          13.3400  -11.2835   19.9635 N.am      1 SEC2        0.0000 
     27 N          12.7130  -10.1060   20.1730 N.am      7 SEL2        0.0000 
     28 N          13.9670  -12.4610   19.7540 N.am      4 SEP2        0.0000 
     29 N          13.0815  -10.3225   18.8105 N.am      1 SEC2        0.0000 
     30 N          13.4500  -10.5390   17.4480 N.am      4 SEP2        0.0000 
     31 CA         15.5598   -4.8000   22.8300 C.3       3 GLC5        0.0000 
     32 CA         16.5610   -3.8260   24.2770 C.3       6 GLP5        0.0000 
     33 CA          6.2160   -6.0745   22.7885 C.3       3 GLC5        0.0000 
     34 CA          8.5820   -6.3840   22.7400 C.3       9 GLL5        0.0000 
     35 CA          4.2300   -6.2720   22.4280 C.3       6 GLP5        0.0000 
     36 CA          6.8403   -3.4030   23.2105 C.3       3 GLC5        0.0000 
     37 CA          7.8220   -5.3700   23.5580 C.3       9 GLL5        0.0000 
     38 CA          5.5160   -2.0430   22.6010 C.3       6 GLP5        0.0000 
     39 CA          6.9348   -5.2515   25.1965 C.3       3 GLC5        0.0000 
     40 CA          8.5070   -4.1560   24.0820 C.3       9 GLL5        0.0000 
     41 CA          5.7050   -5.7400   26.5730 C.3       6 GLP5        0.0000 
     42 CA          8.6817   -2.5590   25.1225 C.3       3 GLC5        0.0000 
     43 CA          8.1040   -0.9370   26.0810 C.3       6 GLP5        0.0000 
     44 CA         13.3050   -3.6545   20.8923 C.3       3 GLC5        0.0000 
     45 CA         12.7290   -5.6420   22.0320 C.3       9 GLL5        0.0000 
     46 CA         13.1640   -1.8300   19.8760 C.3       6 GLP5        0.0000 
@<TRIPOS>BOND
@<TRIPOS>SUBSTRUCTURE
     1 SEC2       12 GROUP        1 X    SEC  0     ROOT SEC X 2
     2 LYC4       17 GROUP        1 X    LYC  0     **** LYC X 4
     3 GLC5        1 GROUP        1 X    GLC  0     **** GLC X 6
     4 SEP2       14 GROUP        1 Y    SEP  0     ROOT SEP Y 9
     5 LYP4       19 GROUP        1 Y    LYP  0     **** LYP Y 11
     6 GLP5        3 GROUP        1 Y    GLP  0     **** GLP Y 13
     7 SEL2       13 GROUP        1 Z    SEL  0     ROOT SEL Z 16
     8 LYL4       18 GROUP        1 Z    LYL  0     **** LYL Z 18
     9 GLL5        2 GROUP        1 Z    GLL  0     **** GLL Z 20
@<TRIPOS>SET

