#    Name: 4hmt_NNV_2_ligand
#    Modification time : Tue Mar 25 01:24:33 2014

@<TRIPOS>MOLECULE
4hmt_NNV_2_ligand
   31    33     1     0     0
SMALL
NO_CHARGES


@<TRIPOS>ATOM
      1 C01        14.9540   -6.2320   20.9810 C.2       1 NNV302      0.0000 
      2 C02        14.3830   -7.4240   20.3400 C.3       1 NNV302      0.0000 
      3 C03        12.9420   -7.7970   20.5980 C.3       1 NNV302      0.0000 
      4 C04        12.1660   -6.8860   21.4830 C.2       1 NNV302      0.0000 
      5 N05        10.7110   -7.0870   21.6920 N.2       1 NNV302      0.0000 
      6 C06        10.0300   -6.1280   22.5530 C.2       1 NNV302      0.0000 
      7 C07         8.5820   -6.3840   22.7400 C.2       1 NNV302      0.0000 
      8 C08         7.8220   -5.3700   23.5580 C.2       1 NNV302      0.0000 
      9 C09         8.5070   -4.1560   24.0820 C.3       1 NNV302      0.0000 
     10 C10        10.7480   -5.0780   23.2620 C.3       1 NNV302      0.0000 
     11 C11        10.0120   -4.2060   24.2460 C.3       1 NNV302      0.0000 
     12 C12        10.5160   -4.5750   25.6340 C.2       1 NNV302      0.0000 
     13 O13        10.2450   -3.7750   26.5780 O.co2     1 NNV302      0.0000 
     14 O14        11.2110   -5.6150   25.8710 O.co2     1 NNV302      0.0000 
     15 C15        12.7290   -5.6420   22.0320 C.2       1 NNV302      0.0000 
     16 C16        14.1630   -5.3160   21.7850 C.2       1 NNV302      0.0000 
     17 N17        11.9830   -4.7690   22.7800 N.4       1 NNV302      0.0000 
     18 C18        12.8600   -9.2130   21.0810 C.2       1 NNV302      0.0000 
     19 O19        12.7130  -10.1060   20.1730 O.co2     1 NNV302      0.0000 
     20 O20        12.9400   -9.4410   22.3380 O.co2     1 NNV302      0.0000 
     21 H          15.9538   -6.0441   20.8517 H         1 NNV302      0.0000 
     22 H          15.0223   -8.3283   20.5983 H         1 NNV302      0.0000 
     23 H          14.5194   -7.3430   19.2140 H         1 NNV302      0.0000 
     24 H          12.4296   -7.7980   19.5879 H         1 NNV302      0.0000 
     25 H           8.1376   -7.1552   22.3632 H         1 NNV302      0.0000 
     26 H           6.8555   -5.5209   23.7445 H         1 NNV302      0.0000 
     27 H           8.0566   -3.8804   25.0764 H         1 NNV302      0.0000 
     28 H           8.2569   -3.2791   23.4216 H         1 NNV302      0.0000 
     29 H          11.2027   -5.9358   24.2298 H         1 NNV302      0.0000 
     30 H          10.4059   -3.1540   24.0641 H         1 NNV302      0.0000 
     31 H          14.5513   -4.4895   22.1680 H         1 NNV302      0.0000 
@<TRIPOS>BOND
     1    2    1 1    
     2   16    1 2    
     3   21    1 1    
     4    3    2 1    
     5   22    2 1    
     6   23    2 1    
     7    4    3 1    
     8   18    3 1    
     9   24    3 1    
    10    5    4 1    
    11   15    4 2    
    12    6    5 2    
    13    7    6 1    
    14   10    6 1    
    15    8    7 2    
    16   25    7 1    
    17    9    8 1    
    18   26    8 1    
    19   11    9 1    
    20   27    9 1    
    21   28    9 1    
    22   11   10 1    
    23   17   10 1    
    24   29   10 1    
    25   12   11 1    
    26   30   11 1    
    27   13   12 ar   
    28   14   12 ar   
    29   16   15 1    
    30   17   15 1    
    31   31   16 1    
    32   19   18 ar   
    33   20   18 ar   
@<TRIPOS>SUBSTRUCTURE
     1 NNV302      1 GROUP   
@<TRIPOS>SET

