#    Name: 2jg7_NAD_4_INTS_M
#    Modification time : Tue Mar 25 20:42:57 2014

@<TRIPOS>MOLECULE
2jg7_NAD_4_INTS_M
  105     0     9     0     0
SMALL
NO_CHARGES


@<TRIPOS>ATOM
      1 N          11.0305   37.1665   39.5430 N.am      2 SEC2        0.0000 
      2 N           9.9950   37.6020   38.7800 N.am      8 SEL2        0.0000 
      3 N          12.0660   36.7310   40.3060 N.am      5 SEP2        0.0000 
      4 N           9.7035   36.4520   39.4250 N.am      2 SEC2        0.0000 
      5 N           9.4120   35.3020   40.0700 N.am      5 SEP2        0.0000 
      6 CA         12.3345   41.6570   38.1950 C.3       3 GLC5        0.0000 
      7 CA         11.0470   40.2000   37.3990 C.3       9 GLL5        0.0000 
      8 CA         13.6220   43.1140   38.9910 C.3       6 GLP5        0.0000 
      9 CA         11.7240   38.4755   36.5660 C.3       3 GLC5        0.0000 
     10 CA         12.4010   36.7510   35.7330 C.3       6 GLP5        0.0000 
     11 CA         12.3800   39.1775   38.3315 C.3       3 GLC5        0.0000 
     12 CA         13.7130   38.1550   39.2640 C.3       6 GLP5        0.0000 
     13 CA         11.7410   38.8640   35.1635 C.3       3 GLC5        0.0000 
     14 CA         10.9320   40.5850   35.9310 C.3       9 GLL5        0.0000 
     15 CA         12.5500   37.1430   34.3960 C.3       6 GLP5        0.0000 
     16 CA         10.1835   43.8380   35.8175 C.3       3 GLC5        0.0000 
     17 CA          9.9860   41.7570   35.7070 C.3       9 GLL5        0.0000 
     18 CA         10.3810   45.9190   35.9280 C.3       6 GLP5        0.0000 
     19 N          10.1570   43.1015   33.4465 N.am      2 SEC2        0.0000 
     20 N          10.5880   42.6280   34.7550 N.am      8 SEL2        0.0000 
     21 N           9.7260   43.5750   32.1380 N.am      5 SEP2        0.0000 
     22 O          11.8715   42.9430   35.4755 O.2       1 ALC1        0.0000 
     23 O          10.5880   42.6280   34.7550 O.2       7 ALL1        0.0000 
     24 O          13.1550   43.2580   36.1960 O.2       4 ALP1        0.0000 
     25 N           8.8970   42.8065   33.1760 N.am      2 SEC2        0.0000 
     26 N           8.0680   42.0380   34.2140 N.am      8 SEL2        0.0000 
     27 CA         11.1920   40.1880   33.6050 C.3       3 GLC5        0.0000 
     28 CA          9.3420   39.9490   34.3380 C.3       9 GLL5        0.0000 
     29 CA         13.0420   40.4270   32.8720 C.3       6 GLP5        0.0000 
     30 CA         10.9460   38.5460   34.3670 C.3       3 GLC5        0.0000 
     31 N           7.2605   35.8730   29.7525 N.am      2 SEC2        0.0000 
     32 N           8.1250   36.1770   31.0020 N.am      8 SEL2        0.0000 
     33 N           6.3960   35.5690   28.5030 N.am      5 SEP2        0.0000 
     34 CA          7.3195   38.2310   30.9225 C.3       3 GLC5        0.0000 
     35 CA          9.1640   37.0270   30.9870 C.3       9 GLL5        0.0000 
     36 CA          5.4750   39.4350   30.8580 C.3       6 GLP5        0.0000 
     37 CA          9.4010   38.2505   29.7875 C.3       3 GLC5        0.0000 
     38 CA          9.6380   39.4740   28.5880 C.3       6 GLP5        0.0000 
     39 CA          8.7345   36.6190   29.0495 C.3       3 GLC5        0.0000 
     40 CA          8.3050   36.2110   27.1120 C.3       6 GLP5        0.0000 
     41 CA         10.3055   35.6960   31.3385 C.3       3 GLC5        0.0000 
     42 CA         11.4470   34.3650   31.6900 C.3       6 GLP5        0.0000 
     43 CA          6.9555   38.7495   31.9085 C.3       3 GLC5        0.0000 
     44 CA          8.4360   38.0640   32.9590 C.3       9 GLL5        0.0000 
     45 N          11.3000   38.1385   40.3200 N.am      2 SEC2        0.0000 
     46 N          10.5340   39.5460   40.3340 N.am      8 SEL2        0.0000 
     47 N          11.3830   43.4360   40.2105 N.am      2 SEC2        0.0000 
     48 N          10.4420   42.1210   40.1670 N.am      8 SEL2        0.0000 
     49 N          12.3240   44.7510   40.2540 N.am      5 SEP2        0.0000 
     50 CA         12.9160   41.2555   41.7195 C.3       3 GLC5        0.0000 
     51 CA         11.7480   40.2270   43.2540 C.3       9 GLL5        0.0000 
     52 CA         14.0840   42.2840   40.1850 C.3       6 GLP5        0.0000 
     53 CA         10.6995   41.9020   43.5990 C.3       3 GLC5        0.0000 
     54 CA          9.6510   43.5770   43.9440 C.3       6 GLP5        0.0000 
     55 CA         12.0380   41.0970   44.9260 C.3       3 GLC5        0.0000 
     56 CA         12.3280   41.9670   46.5980 C.3       6 GLP5        0.0000 
     57 CA         13.0705   38.5205   41.1310 C.3       3 GLC5        0.0000 
     58 CA         12.4280   38.8860   42.9980 C.3       9 GLL5        0.0000 
     59 O          12.3810   36.0085   45.3070 O.2       1 ALC1        0.0000 
     60 O          12.3990   36.8300   44.2540 O.2       7 ALL1        0.0000 
     61 O          12.3630   35.1870   46.3600 O.2       4 ALP1        0.0000 
     62 O          13.6100   36.2275   45.7515 O.2       1 ALC1        0.0000 
     63 O          14.8570   37.2680   45.1430 O.2       7 ALL1        0.0000 
     64 O          14.4375   36.7165   46.3025 O.2       1 ALC1        0.0000 
     65 O          14.0180   36.1650   47.4620 O.2       4 ALP1        0.0000 
     66 CA         14.2155   38.2765   41.1100 C.3       3 GLC5        0.0000 
     67 CA         14.7180   38.3980   42.9560 C.3       9 GLL5        0.0000 
     68 CA         16.9290   36.3505   41.7965 C.3       3 GLC5        0.0000 
     69 CA         17.0980   38.3990   42.5440 C.3       9 GLL5        0.0000 
     70 CA         16.7600   34.3020   41.0490 C.3       6 GLP5        0.0000 
     71 CA         17.5615   38.7035   44.1595 C.3       3 GLC5        0.0000 
     72 CA         18.0250   39.0080   45.7750 C.3       6 GLP5        0.0000 
     73 O          21.0395   36.7220   41.5025 O.2       1 ALC1        0.0000 
     74 O          19.6550   37.0130   42.3380 O.2       7 ALL1        0.0000 
     75 O          22.4240   36.4310   40.6670 O.2       4 ALP1        0.0000 
     76 O          18.4945   36.1505   42.7600 O.2       1 ALC1        0.0000 
     77 O          17.3340   35.2880   43.1820 O.2       4 ALP1        0.0000 
     78 CA         11.7505   40.7990   34.3455 C.3       3 GLC5        0.0000 
     79 CA          8.4990   43.2225   35.4817 C.3       3 GLC5        0.0000 
     80 CA          7.6290   44.9970   35.5670 C.3       6 GLP5        0.0000 
     81 CA          9.6295   41.5765   32.9105 C.3       3 GLC5        0.0000 
     82 CA          8.7520   41.1390   35.0860 C.3       9 GLL5        0.0000 
     83 CA         10.2120   42.6090   31.1090 C.3       6 GLP5        0.0000 
     84 CA          5.8848   37.5977   32.0072 C.3       3 GLC5        0.0000 
     85 CA          7.3590   37.1960   33.0050 C.3       9 GLL5        0.0000 
     86 CA          4.4850   38.4810   31.5130 C.3       6 GLP5        0.0000 
     87 CA          8.5261   36.4586   34.0101 C.3       3 GLC5        0.0000 
     88 CA          9.1920   35.5280   35.2900 C.3       6 GLP5        0.0000 
     89 CA         12.0895   37.0820   42.3815 C.3       3 GLC5        0.0000 
     90 CA         11.5750   35.6160   41.1060 C.3       6 GLP5        0.0000 
     91 CA         13.5252   39.1560   45.8915 C.3       3 GLC5        0.0000 
     92 CA         12.7800   38.2100   44.3160 C.3       9 GLL5        0.0000 
     93 CA         13.5190   40.0300   47.4170 C.3       6 GLP5        0.0000 
     94 CA         16.2627   38.6920   44.7305 C.3       3 GLC5        0.0000 
     95 CA         14.2830   38.3540   44.4160 C.3       9 GLL5        0.0000 
     96 CA         17.6635   39.5980   40.8832 C.3       3 GLC5        0.0000 
     97 CA         17.6100   40.4790   39.2930 C.3       6 GLP5        0.0000 
     98 CA         18.9988   39.7380   43.9105 C.3       3 GLC5        0.0000 
     99 CA         18.3360   39.0350   42.4030 C.3       9 GLL5        0.0000 
    100 CA         19.6290   39.7470   45.3540 C.3       6 GLP5        0.0000 
    101 CA         15.3545   41.5350   41.5233 C.3       3 GLC5        0.0000 
    102 CA         17.2310   41.1300   42.7980 C.3       9 GLL5        0.0000 
    103 CA         17.3250   39.8970   44.3182 C.3       3 GLC5        0.0000 
    104 CA         16.0190   40.4420   42.9250 C.3       9 GLL5        0.0000 
    105 CA         17.2638   40.5441   41.0439 C.3       3 GLC5        0.0000 
@<TRIPOS>BOND
@<TRIPOS>SUBSTRUCTURE
     1 ALC1       22 GROUP        1 X    ALC  0     ROOT ALC X 1
     2 SEC2        1 GROUP        1 X    SEC  0     **** SEC X 2
     3 GLC5        6 GROUP        1 X    GLC  0     **** GLC X 6
     4 ALP1       24 GROUP        1 Y    ALP  0     ROOT ALP Y 8
     5 SEP2        3 GROUP        1 Y    SEP  0     **** SEP Y 9
     6 GLP5        8 GROUP        1 Y    GLP  0     **** GLP Y 13
     7 ALL1       23 GROUP        1 Z    ALL  0     ROOT ALL Z 15
     8 SEL2        2 GROUP        1 Z    SEL  0     **** SEL Z 16
     9 GLL5        7 GROUP        1 Z    GLL  0     **** GLL Z 20
@<TRIPOS>SET

