#    Name: 2jg7_NAD_4_ligand
#    Modification time : Tue Mar 25 20:42:58 2014

@<TRIPOS>MOLECULE
2jg7_NAD_4_ligand
   70    74     1     0     0
SMALL
NO_CHARGES


@<TRIPOS>ATOM
      1 PA          9.5280   38.9600   39.2050 P.3       1 NAD1510     0.0000 
      2 O1A         9.9950   37.6020   38.7800 O.co2     1 NAD1510     0.0000 
      3 O2A         8.1240   39.1360   39.7110 O.co2     1 NAD1510     0.0000 
      4 O5B         9.7490   39.9500   37.9510 O.3       1 NAD1510     0.0000 
      5 C5B        11.0470   40.2000   37.3990 C.3       1 NAD1510     0.0000 
      6 C4B        10.9320   40.5850   35.9310 C.3       1 NAD1510     0.0000 
      7 O4B        10.4020   39.4820   35.1920 O.3       1 NAD1510     0.0000 
      8 C3B         9.9860   41.7570   35.7070 C.3       1 NAD1510     0.0000 
      9 O3B        10.5880   42.6280   34.7550 O.3       1 NAD1510     0.0000 
     10 C2B         8.7520   41.1390   35.0860 C.3       1 NAD1510     0.0000 
     11 O2B         8.0680   42.0380   34.2140 O.3       1 NAD1510     0.0000 
     12 C1B         9.3420   39.9490   34.3380 C.3       1 NAD1510     0.0000 
     13 N9A         8.3600   38.8720   34.0180 N.pl3     1 NAD1510     0.0000 
     14 C8A         7.2690   38.5430   34.7200 C.2       1 NAD1510     0.0000 
     15 N7A         6.6470   37.5170   34.1040 N.2       1 NAD1510     0.0000 
     16 C5A         7.3590   37.1960   33.0050 C.ar      1 NAD1510     0.0000 
     17 C6A         7.2100   36.2330   31.9980 C.ar      1 NAD1510     0.0000 
     18 N6A         6.1690   35.3620   31.9990 N.pl3     1 NAD1510     0.0000 
     19 N1A         8.1250   36.1770   31.0020 N.ar      1 NAD1510     0.0000 
     20 C2A         9.1640   37.0270   30.9870 C.ar      1 NAD1510     0.0000 
     21 N3A         9.3210   37.9610   31.9370 N.ar      1 NAD1510     0.0000 
     22 C4A         8.4360   38.0640   32.9590 C.ar      1 NAD1510     0.0000 
     23 O3         10.5340   39.5460   40.3340 O.3       1 NAD1510     0.0000 
     24 PN         10.3340   40.9510   41.1380 P.3       1 NAD1510     0.0000 
     25 O1N        10.4420   42.1210   40.1670 O.co2     1 NAD1510     0.0000 
     26 O2N         9.1410   40.8240   42.0720 O.co2     1 NAD1510     0.0000 
     27 O5D        11.6640   40.9850   42.0480 O.3       1 NAD1510     0.0000 
     28 C5D        11.7480   40.2270   43.2540 C.3       1 NAD1510     0.0000 
     29 C4D        12.4280   38.8860   42.9980 C.3       1 NAD1510     0.0000 
     30 O4D        13.6540   39.0590   42.2720 O.3       1 NAD1510     0.0000 
     31 C3D        12.7800   38.2100   44.3160 C.3       1 NAD1510     0.0000 
     32 O3D        12.3990   36.8300   44.2540 O.3       1 NAD1510     0.0000 
     33 C2D        14.2830   38.3540   44.4160 C.3       1 NAD1510     0.0000 
     34 O2D        14.8570   37.2680   45.1430 O.3       1 NAD1510     0.0000 
     35 C1D        14.7180   38.3980   42.9560 C.3       1 NAD1510     0.0000 
     36 N1N        15.9810   39.1060   42.8030 N.pl3     1 NAD1510     0.0000 
     37 C2N        17.0980   38.3990   42.5440 C.ar      1 NAD1510     0.0000 
     38 C3N        18.3360   39.0350   42.4030 C.ar      1 NAD1510     0.0000 
     39 C7N        19.5900   38.2540   42.1170 C.2       1 NAD1510     0.0000 
     40 O7N        20.6530   38.8900   41.6180 O.2       1 NAD1510     0.0000 
     41 N7N        19.6550   37.0130   42.3380 N.am      1 NAD1510     0.0000 
     42 C4N        18.4010   40.4230   42.5310 C.ar      1 NAD1510     0.0000 
     43 C5N        17.2310   41.1300   42.7980 C.ar      1 NAD1510     0.0000 
     44 C6N        16.0190   40.4420   42.9250 C.ar      1 NAD1510     0.0000 
     45 H          11.6910   39.3125   37.4660 H         1 NAD1510     0.0000 
     46 H          11.5571   41.0191   37.9241 H         1 NAD1510     0.0000 
     47 H          11.9039   40.8561   35.5595 H         1 NAD1510     0.0000 
     48 H           9.7527   42.1998   36.6117 H         1 NAD1510     0.0000 
     49 H           8.1447   40.7538   35.8744 H         1 NAD1510     0.0000 
     50 H           9.7791   40.3400   33.4164 H         1 NAD1510     0.0000 
     51 H           6.9693   38.9693   35.5391 H         1 NAD1510     0.0000 
     52 H           5.5022   35.4741   32.7357 H         1 NAD1510     0.0000 
     53 H           6.1609   34.6852   31.2629 H         1 NAD1510     0.0000 
     54 H           9.8738   36.9584   30.2093 H         1 NAD1510     0.0000 
     55 H          10.7527   40.0225   43.6753 H         1 NAD1510     0.0000 
     56 H          12.3280   40.7545   44.0256 H         1 NAD1510     0.0000 
     57 H          11.7504   38.2451   42.4650 H         1 NAD1510     0.0000 
     58 H          12.3235   38.7418   45.1003 H         1 NAD1510     0.0000 
     59 H          14.4884   39.3122   44.8478 H         1 NAD1510     0.0000 
     60 H          14.8020   37.3769   42.6189 H         1 NAD1510     0.0000 
     61 H          17.0633   37.3634   42.4432 H         1 NAD1510     0.0000 
     62 H          20.5287   36.5739   42.1286 H         1 NAD1510     0.0000 
     63 H          18.8266   36.5868   42.7015 H         1 NAD1510     0.0000 
     64 H          19.2907   40.9105   42.4306 H         1 NAD1510     0.0000 
     65 H          17.2545   42.1488   42.9014 H         1 NAD1510     0.0000 
     66 H          15.1590   40.9911   43.1145 H         1 NAD1510     0.0000 
     67 H          11.1745   43.2335   35.2929 H         1 NAD1510     0.0000 
     68 H           7.7320   41.4667   33.4652 H         1 NAD1510     0.0000 
     69 H          12.4616   36.5017   45.1965 H         1 NAD1510     0.0000 
     70 H          14.2917   37.1781   45.9630 H         1 NAD1510     0.0000 
@<TRIPOS>BOND
     1    2    1 ar   
     2    3    1 ar   
     3    4    1 1    
     4   23    1 1    
     5    5    4 1    
     6    6    5 1    
     7   45    5 1    
     8   46    5 1    
     9    7    6 1    
    10    8    6 1    
    11   47    6 1    
    12   12    7 1    
    13    9    8 1    
    14   10    8 1    
    15   48    8 1    
    16   67    9 1    
    17   11   10 1    
    18   12   10 1    
    19   49   10 1    
    20   68   11 1    
    21   13   12 1    
    22   50   12 1    
    23   14   13 1    
    24   22   13 1    
    25   15   14 2    
    26   51   14 1    
    27   16   15 1    
    28   17   16 ar   
    29   22   16 ar   
    30   18   17 1    
    31   19   17 ar   
    32   52   18 1    
    33   53   18 1    
    34   20   19 ar   
    35   21   20 ar   
    36   54   20 1    
    37   22   21 ar   
    38   24   23 1    
    39   25   24 ar   
    40   26   24 ar   
    41   27   24 1    
    42   28   27 1    
    43   29   28 1    
    44   55   28 1    
    45   56   28 1    
    46   30   29 1    
    47   31   29 1    
    48   57   29 1    
    49   35   30 1    
    50   32   31 1    
    51   33   31 1    
    52   58   31 1    
    53   69   32 1    
    54   34   33 1    
    55   35   33 1    
    56   59   33 1    
    57   70   34 1    
    58   36   35 1    
    59   60   35 1    
    60   37   36 ar   
    61   44   36 ar   
    62   38   37 ar   
    63   61   37 1    
    64   39   38 1    
    65   42   38 ar   
    66   40   39 2    
    67   41   39 am   
    68   62   41 1    
    69   63   41 1    
    70   43   42 ar   
    71   64   42 1    
    72   44   43 ar   
    73   65   43 1    
    74   66   44 1    
@<TRIPOS>SUBSTRUCTURE
     1 NAD1510     1 GROUP   
@<TRIPOS>SET

