#    Name: 2yee_2EC_1_INTS_M
#    Modification time : Tue Mar 25 08:45:09 2014

@<TRIPOS>MOLECULE
2yee_2EC_1_INTS_M
   29     0     6     0     0
SMALL
NO_CHARGES


@<TRIPOS>ATOM
      1 O          -3.0765   12.2480   24.3690 O.2       1 ALC1        0.0000 
      2 O          -1.6280   12.0190   24.3870 O.2       5 ALL1        0.0000 
      3 O          -4.5250   12.4770   24.3510 O.2       3 ALP1        0.0000 
      4 CA         -2.2020    9.7155   25.6160 C.3       2 GLC5        0.0000 
      5 CA         -0.7500   11.1350   25.1660 C.3       6 GLL5        0.0000 
      6 CA         -3.6540    8.2960   26.0660 C.3       4 GLP5        0.0000 
      7 CA         -0.9945   13.0365   25.5865 C.3       2 GLC5        0.0000 
      8 CA         -1.2390   14.9380   26.0070 C.3       4 GLP5        0.0000 
      9 CA          0.0990   10.1595   22.5970 C.3       2 GLC5        0.0000 
     10 CA          0.4920   10.7720   24.6760 C.3       6 GLL5        0.0000 
     11 CA         -0.2940    9.5470   20.5180 C.3       4 GLP5        0.0000 
     12 CA          2.1615   10.9575   26.6130 C.3       2 GLC5        0.0000 
     13 CA          1.2950    9.9400   25.4300 C.3       6 GLL5        0.0000 
     14 CA          3.0280   11.9750   27.7960 C.3       4 GLP5        0.0000 
     15 CA          3.2960   10.4480   26.4835 C.3       2 GLC5        0.0000 
     16 CA          3.5640    8.9210   25.1710 C.3       6 GLL5        0.0000 
     17 CA          4.6660    9.4330   26.4230 C.3       2 GLC5        0.0000 
     18 CA          5.7680    9.9450   27.6750 C.3       4 GLP5        0.0000 
     19 CA          5.0260    7.6655   26.0400 C.3       2 GLC5        0.0000 
     20 CA          3.8050    7.8250   24.1580 C.3       6 GLL5        0.0000 
     21 CA          6.2470    7.5060   27.9220 C.3       4 GLP5        0.0000 
     22 CA         -1.9995    9.0800   26.5685 C.3       2 GLC5        0.0000 
     23 CA         -0.3450    9.8640   27.0710 C.3       6 GLL5        0.0000 
     24 CA         -1.1475   10.6505   28.9915 C.3       2 GLC5        0.0000 
     25 CA         -1.9500   11.4370   30.9120 C.3       4 GLP5        0.0000 
     26 CA          1.0880   10.5620   28.2125 C.3       2 GLC5        0.0000 
     27 CA          2.5210   11.2600   29.3540 C.3       4 GLP5        0.0000 
     28 CA          0.8675   12.1508   26.2855 C.3       2 GLC5        0.0000 
     29 CA          1.8640   13.3480   27.6500 C.3       4 GLP5        0.0000 
@<TRIPOS>BOND
@<TRIPOS>SUBSTRUCTURE
     1 ALC1        1 GROUP        1 X    ALC  0     ROOT ALC X 1
     2 GLC5        4 GROUP        1 X    GLC  0     **** GLC X 6
     3 ALP1        3 GROUP        1 Y    ALP  0     ROOT ALP Y 8
     4 GLP5        6 GROUP        1 Y    GLP  0     **** GLP Y 13
     5 ALL1        2 GROUP        1 Z    ALL  0     ROOT ALL Z 15
     6 GLL5        5 GROUP        1 Z    GLL  0     **** GLL Z 20
@<TRIPOS>SET

