#    Name: 2yee_2EC_1_ligand
#    Modification time : Tue Mar 25 08:45:09 2014

@<TRIPOS>MOLECULE
2yee_2EC_1_ligand
   21    22     1     0     0
SMALL
NO_CHARGES


@<TRIPOS>ATOM
      1 N6         -1.6280   12.0190   24.3870 N.pl3     1 2EC1227     0.0000 
      2 C6         -0.7500   11.1350   25.1660 C.ar      1 2EC1227     0.0000 
      3 C5          0.4920   10.7720   24.6760 C.ar      1 2EC1227     0.0000 
      4 N7          1.1540   11.0600   23.5520 N.2       1 2EC1227     0.0000 
      5 C4          1.2950    9.9400   25.4300 C.ar      1 2EC1227     0.0000 
      6 N9          2.4240    9.7440   24.7430 N.pl3     1 2EC1227     0.0000 
      7 C8          2.3360   10.4300   23.5950 C.2       1 2EC1227     0.0000 
      8 C9M         3.5640    8.9210   25.1710 C.3       1 2EC1227     0.0000 
      9 N3          0.8610    9.5000   26.6160 N.ar      1 2EC1227     0.0000 
     10 C50         3.8050    7.8250   24.1580 C.3       1 2EC1227     0.0000 
     11 C2         -0.3450    9.8640   27.0710 C.ar      1 2EC1227     0.0000 
     12 N1         -1.1430   10.6710   26.3580 N.ar      1 2EC1227     0.0000 
     13 H          -2.5094   12.2420   24.8034 H         1 2EC1227     0.0000 
     14 H          -1.2724   12.3255   23.5040 H         1 2EC1227     0.0000 
     15 H           3.0203   10.4649   22.9040 H         1 2EC1227     0.0000 
     16 H           3.3640    8.4653   26.1427 H         1 2EC1227     0.0000 
     17 H           4.4665    9.5298   25.2532 H         1 2EC1227     0.0000 
     18 H          -0.6731    9.5093   28.0075 H         1 2EC1227     0.0000 
     19 H           4.0102    8.1952   23.2520 H         1 2EC1227     0.0000 
     20 H           4.5749    7.2420   24.4177 H         1 2EC1227     0.0000 
     21 H           3.0075    7.2300   24.0577 H         1 2EC1227     0.0000 
@<TRIPOS>BOND
     1    2    1 1    
     2   13    1 1    
     3   14    1 1    
     4    3    2 ar   
     5   12    2 ar   
     6    4    3 1    
     7    5    3 ar   
     8    7    4 2    
     9    6    5 1    
    10    9    5 ar   
    11    7    6 1    
    12    8    6 1    
    13   15    7 1    
    14   10    8 1    
    15   16    8 1    
    16   17    8 1    
    17   11    9 ar   
    18   19   10 1    
    19   20   10 1    
    20   21   10 1    
    21   12   11 ar   
    22   18   11 1    
@<TRIPOS>SUBSTRUCTURE
     1 2EC1227     1 GROUP   
@<TRIPOS>SET

