#    Name: 2xyx_Z00_2_INTS_M
#    Modification time : Tue Mar 25 07:12:36 2014

@<TRIPOS>MOLECULE
2xyx_Z00_2_INTS_M
   86     0     3     0     0
SMALL
NO_CHARGES


@<TRIPOS>ATOM
      1 CA        -19.1045    2.5605   -8.8280 C.3       1 GLC5        0.0000 
      2 CA        -17.4550    2.2450   -9.2950 C.3       3 GLL5        0.0000 
      3 CA        -20.7540    2.8760   -8.3610 C.3       2 GLP5        0.0000 
      4 CA        -15.6070    4.0195  -10.4490 C.3       1 GLC5        0.0000 
      5 CA        -16.5950    2.4630  -10.5240 C.3       3 GLL5        0.0000 
      6 CA        -14.6190    5.5760  -10.3740 C.3       2 GLP5        0.0000 
      7 CA        -16.2915    4.5610  -11.3720 C.3       1 GLC5        0.0000 
      8 CA        -17.9640    3.5460  -12.3700 C.3       3 GLL5        0.0000 
      9 CA        -18.8840    0.6490  -13.7675 C.3       1 GLC5        0.0000 
     10 CA        -19.9150    1.5700  -12.0100 C.3       3 GLL5        0.0000 
     11 CA        -17.8530   -0.2720  -15.5250 C.3       2 GLP5        0.0000 
     12 CA        -21.9540    2.0420   -9.5455 C.3       1 GLC5        0.0000 
     13 CA        -23.1540    1.2080  -10.7300 C.3       3 GLL5        0.0000 
     14 CA        -24.6350    1.4935  -12.0200 C.3       1 GLC5        0.0000 
     15 CA        -26.1160    1.7790  -13.3100 C.3       2 GLP5        0.0000 
     16 CA        -23.0520   -0.5515  -11.3395 C.3       1 GLC5        0.0000 
     17 CA        -22.9500   -2.3110  -11.9490 C.3       2 GLP5        0.0000 
     18 CA        -23.3860    0.9370   -6.4760 C.3       1 GLC5        0.0000 
     19 CA        -24.4660    0.9690   -8.2140 C.3       3 GLL5        0.0000 
     20 CA        -22.3060    0.9050   -4.7380 C.3       2 GLP5        0.0000 
     21 CA        -22.6100    1.9225   -8.2875 C.3       1 GLC5        0.0000 
     22 CA        -23.1955   -1.6150   -7.3000 C.3       1 GLC5        0.0000 
     23 CA        -24.5400   -0.5190   -8.5550 C.3       3 GLL5        0.0000 
     24 CA        -21.8510   -2.7110   -6.0450 C.3       2 GLP5        0.0000 
     25 CA        -25.0325   -1.0530   -6.5475 C.3       1 GLC5        0.0000 
     26 CA        -25.5250   -1.5870   -4.5400 C.3       2 GLP5        0.0000 
     27 CA        -23.9005   -1.9585   -9.7310 C.3       1 GLC5        0.0000 
     28 CA        -23.2610   -3.3980  -10.9070 C.3       2 GLP5        0.0000 
     29 CA        -25.0805    3.3115   -6.9075 C.3       1 GLC5        0.0000 
     30 CA        -25.7700    1.4820   -7.6200 C.3       3 GLL5        0.0000 
     31 CA        -24.3910    5.1410   -6.1950 C.3       2 GLP5        0.0000 
     32 CA        -25.6475   -0.0525   -6.0800 C.3       1 GLC5        0.0000 
     33 CA        -27.4150    1.2610   -7.0955 C.3       1 GLC5        0.0000 
     34 CA        -29.0600    1.0400   -6.5710 C.3       2 GLP5        0.0000 
     35 CA        -26.9570    2.0140   -9.1990 C.3       1 GLC5        0.0000 
     36 CA        -28.1440    2.5460  -10.7780 C.3       2 GLP5        0.0000 
     37 CA        -17.9790    3.6020   -4.2145 C.3       1 GLC5        0.0000 
     38 CA        -17.0630    1.8680   -4.5750 C.3       3 GLL5        0.0000 
     39 CA        -18.8950    5.3360   -3.8540 C.3       2 GLP5        0.0000 
     40 CA        -20.2700   -1.1975   -5.6900 C.3       1 GLC5        0.0000 
     41 CA        -18.6890    0.3160   -5.3350 C.3       3 GLL5        0.0000 
     42 CA        -18.4105   -2.0710   -1.3900 C.3       1 GLC5        0.0000 
     43 CA        -18.9440   -0.5890   -2.7920 C.3       3 GLL5        0.0000 
     44 CA        -17.8770   -3.5530    0.0120 C.3       2 GLP5        0.0000 
     45 CA        -20.3225   -1.8950   -2.1565 C.3       1 GLC5        0.0000 
     46 CA        -21.7010   -3.2010   -1.5210 C.3       2 GLP5        0.0000 
     47 CA        -20.9020    1.1725   -2.2570 C.3       1 GLC5        0.0000 
     48 CA        -18.9560    1.5220   -2.2150 C.3       3 GLL5        0.0000 
     49 CA        -22.8480    0.8230   -2.2990 C.3       2 GLP5        0.0000 
     50 CA        -18.9255    3.4290   -3.0345 C.3       1 GLC5        0.0000 
     51 CA        -16.1040   -0.7505   -1.3820 C.3       1 GLC5        0.0000 
     52 CA        -17.0840    0.4260   -2.2460 C.3       3 GLL5        0.0000 
     53 CA        -15.1240   -1.9270   -0.5180 C.3       2 GLP5        0.0000 
     54 CA        -15.1775   -0.1460   -3.0080 C.3       1 GLC5        0.0000 
     55 CA        -13.2710   -0.7180   -3.7700 C.3       2 GLP5        0.0000 
     56 CA        -20.0385    1.3360   -8.1000 C.3       1 GLC5        0.0000 
     57 CA        -19.3230   -0.2040   -7.8390 C.3       3 GLL5        0.0000 
     58 CA        -18.3515   -1.8070   -8.8265 C.3       1 GLC5        0.0000 
     59 CA        -17.3800   -3.4100   -9.8140 C.3       2 GLP5        0.0000 
     60 CA        -20.5870   -1.4575   -6.9420 C.3       1 GLC5        0.0000 
     61 CA        -19.8955   -0.9985   -9.5850 C.3       1 GLC5        0.0000 
     62 CA        -20.4680   -1.7930  -11.3310 C.3       2 GLP5        0.0000 
     63 CA        -16.3295    0.3655   -9.8747 C.3       1 GLC5        0.0000 
     64 CA        -15.6340   -1.6230   -9.8400 C.3       2 GLP5        0.0000 
     65 CA        -19.9162    2.3309  -10.0291 C.3       1 GLC5        0.0000 
     66 CA        -17.7460    2.4940  -11.4660 C.3       3 GLL5        0.0000 
     67 CA        -19.8972   -0.1267  -11.4938 C.3       1 GLC5        0.0000 
     68 CA        -18.7380    1.5090  -11.3030 C.3       3 GLL5        0.0000 
     69 CA        -16.9803    1.1688  -12.8044 C.3       1 GLC5        0.0000 
     70 CA        -15.8080    0.0770  -14.1160 C.3       2 GLP5        0.0000 
     71 CA        -20.3293    0.7648   -4.7743 C.3       1 GLC5        0.0000 
     72 CA        -18.0160    0.9330   -4.2860 C.3       3 GLL5        0.0000 
     73 CA        -20.5845    0.5723   -5.9918 C.3       1 GLC5        0.0000 
     74 CA        -18.4030    0.6830   -6.6520 C.3       3 GLL5        0.0000 
     75 CA        -19.5256    1.8141   -7.2036 C.3       1 GLC5        0.0000 
     76 CA        -17.3421   -0.8289   -4.3814 C.3       1 GLC5        0.0000 
     77 CA        -16.5700   -2.5160   -3.8800 C.3       2 GLP5        0.0000 
     78 CA        -16.0862    1.4118   -2.0288 C.3       1 GLC5        0.0000 
     79 CA        -18.2590    0.5790   -2.8990 C.3       3 GLL5        0.0000 
     80 CA        -14.5010    2.3210   -1.4850 C.3       2 GLP5        0.0000 
     81 CA        -20.4537    0.4500   -3.7918 C.3       1 GLC5        0.0000 
     82 CA        -18.5432    0.5426   -0.7451 C.3       1 GLC5        0.0000 
     83 CA        -19.1550    0.4930    0.8980 C.3       2 GLP5        0.0000 
     84 CA        -17.2064   -1.1527   -3.2129 C.3       1 GLC5        0.0000 
     85 CA        -16.2759    0.3402   -5.8681 C.3       1 GLC5        0.0000 
     86 CA        -14.5420   -0.3430   -5.9160 C.3       2 GLP5        0.0000 
@<TRIPOS>BOND
@<TRIPOS>SUBSTRUCTURE
     1 GLC5        1 GROUP        1 X    GLC  0     ROOT GLC X 6
     2 GLP5        3 GROUP        1 Y    GLP  0     ROOT GLP Y 13
     3 GLL5        2 GROUP        1 Z    GLL  0     ROOT GLL Z 20
@<TRIPOS>SET

