#    Name: 2xyx_Z00_2_ligand
#    Modification time : Tue Mar 25 07:12:36 2014

@<TRIPOS>MOLECULE
2xyx_Z00_2_ligand
   51    53     1     0     0
SMALL
NO_CHARGES


@<TRIPOS>ATOM
      1 C1        -20.1250    2.6100  -12.9060 C.ar      1 Z001441     0.0000 
      2 S2        -21.6830    2.6610  -13.7050 S.o2      1 Z001441     0.0000 
      3 O3        -21.6560    3.6760  -14.7220 O.2       1 Z001441     0.0000 
      4 O4        -22.0460    1.2690  -13.8690 O.2       1 Z001441     0.0000 
      5 N5        -22.5340    3.3440  -12.4360 N.pl3     1 Z001441     0.0000 
      6 C6        -17.4550    2.2450   -9.2950 C.3       1 Z001441     0.0000 
      7 C7        -16.5950    2.4630  -10.5240 C.3       1 Z001441     0.0000 
      8 C8        -17.7460    2.4940  -11.4660 C.ar      1 Z001441     0.0000 
      9 C9        -17.9640    3.5460  -12.3700 C.ar      1 Z001441     0.0000 
     10 C10       -19.1550    3.5900  -13.1200 C.ar      1 Z001441     0.0000 
     11 C11       -19.9150    1.5700  -12.0100 C.ar      1 Z001441     0.0000 
     12 C12       -18.7380    1.5090  -11.3030 C.ar      1 Z001441     0.0000 
     13 C13       -23.1410    2.8010  -11.3530 C.2       1 Z001441     0.0000 
     14 S14       -23.1540    1.2080  -10.7300 S.3       1 Z001441     0.0000 
     15 C15       -24.0460    1.8230   -9.3790 C.2       1 Z001441     0.0000 
     16 N16       -24.2890    3.1120   -9.4560 N.2       1 Z001441     0.0000 
     17 N17       -23.7550    3.6810  -10.5960 N.2       1 Z001441     0.0000 
     18 C18       -24.4660    0.9690   -8.2140 C.3       1 Z001441     0.0000 
     19 C19       -24.5400   -0.5190   -8.5550 C.3       1 Z001441     0.0000 
     20 C20       -25.7700    1.4820   -7.6200 C.3       1 Z001441     0.0000 
     21 C21       -17.0630    1.8680   -4.5750 C.ar      1 Z001441     0.0000 
     22 C22       -18.0160    0.9330   -4.2860 C.ar      1 Z001441     0.0000 
     23 C23       -17.4080    1.6940   -6.8630 C.ar      1 Z001441     0.0000 
     24 N24       -16.7560    2.2500   -5.8180 N.ar      1 Z001441     0.0000 
     25 C25       -18.4030    0.6830   -6.6520 C.ar      1 Z001441     0.0000 
     26 C26       -18.6890    0.3160   -5.3350 C.ar      1 Z001441     0.0000 
     27 N27       -16.9530    2.2890   -7.9910 N.pl3     1 Z001441     0.0000 
     28 C28       -18.2590    0.5790   -2.8990 C.3       1 Z001441     0.0000 
     29 F29       -18.9440   -0.5890   -2.7920 F         1 Z001441     0.0000 
     30 F30       -18.9560    1.5220   -2.2150 F         1 Z001441     0.0000 
     31 F31       -17.0840    0.4260   -2.2460 F         1 Z001441     0.0000 
     32 CL        -19.3230   -0.2040   -7.8390 Cl        1 Z001441     0.0000 
     33 H         -22.5448    4.4205  -12.6043 H         1 Z001441     0.0000 
     34 H         -18.0101    1.2410   -9.4749 H         1 Z001441     0.0000 
     35 H         -18.3484    2.9789   -9.4034 H         1 Z001441     0.0000 
     36 H         -16.0030    1.6328  -10.6895 H         1 Z001441     0.0000 
     37 H         -16.1348    3.3863  -10.4708 H         1 Z001441     0.0000 
     38 H         -17.2611    4.2789  -12.4847 H         1 Z001441     0.0000 
     39 H         -19.3004    4.3272  -13.8058 H         1 Z001441     0.0000 
     40 H         -20.6406    0.8522  -11.8807 H         1 Z001441     0.0000 
     41 H         -18.5652    0.7350  -10.6390 H         1 Z001441     0.0000 
     42 H         -23.6906    1.0838   -7.4217 H         1 Z001441     0.0000 
     43 H         -16.5430    2.3096   -3.7559 H         1 Z001441     0.0000 
     44 H         -19.3924   -0.4053   -5.1454 H         1 Z001441     0.0000 
     45 H         -16.0456    2.9082   -7.8795 H         1 Z001441     0.0000 
     46 H         -23.6574   -0.8737   -8.8634 H         1 Z001441     0.0000 
     47 H         -24.8168   -1.0675   -7.7660 H         1 Z001441     0.0000 
     48 H         -25.1998   -0.7006   -9.2842 H         1 Z001441     0.0000 
     49 H         -26.0691    0.9258   -6.8446 H         1 Z001441     0.0000 
     50 H         -25.6835    2.4221   -7.2903 H         1 Z001441     0.0000 
     51 H         -26.5121    1.4736   -8.2902 H         1 Z001441     0.0000 
@<TRIPOS>BOND
     1    2    1 1    
     2   10    1 ar   
     3   11    1 ar   
     4    3    2 2    
     5    4    2 2    
     6    5    2 1    
     7   13    5 1    
     8   33    5 1    
     9    7    6 1    
    10   27    6 1    
    11   34    6 1    
    12   35    6 1    
    13    8    7 1    
    14   36    7 1    
    15   37    7 1    
    16    9    8 ar   
    17   12    8 ar   
    18   10    9 ar   
    19   38    9 1    
    20   39   10 1    
    21   12   11 ar   
    22   40   11 1    
    23   41   12 1    
    24   14   13 1    
    25   17   13 2    
    26   15   14 1    
    27   16   15 2    
    28   18   15 1    
    29   17   16 1    
    30   19   18 1    
    31   20   18 1    
    32   42   18 1    
    33   46   19 1    
    34   47   19 1    
    35   48   19 1    
    36   49   20 1    
    37   50   20 1    
    38   51   20 1    
    39   22   21 ar   
    40   24   21 ar   
    41   43   21 1    
    42   26   22 ar   
    43   28   22 1    
    44   24   23 ar   
    45   25   23 ar   
    46   27   23 1    
    47   26   25 ar   
    48   32   25 1    
    49   44   26 1    
    50   45   27 1    
    51   29   28 1    
    52   30   28 1    
    53   31   28 1    
@<TRIPOS>SUBSTRUCTURE
     1 Z001441     1 GROUP   
@<TRIPOS>SET

