#    Name: 3b9l_AZZ_2_INTS_M
#    Modification time : Mon Mar 24 19:10:44 2014

@<TRIPOS>MOLECULE
3b9l_AZZ_2_INTS_M
   32     0     6     0     0
SMALL
NO_CHARGES


@<TRIPOS>ATOM
      1 CA         32.9575   -0.3125   35.8240 C.3       2 GLC5        0.0000 
      2 CA         31.4230    0.1240   35.0000 C.3       6 GLL5        0.0000 
      3 CA         34.4920   -0.7490   36.6480 C.3       4 GLP5        0.0000 
      4 N          25.6195   -2.1035   32.7210 N.am      1 SEC2        0.0000 
      5 N          26.7050   -2.1250   33.7720 N.am      5 SEL2        0.0000 
      6 N          24.5340   -2.0820   31.6700 N.am      3 SEP2        0.0000 
      7 CA         27.1840   -0.4395   31.5150 C.3       2 GLC5        0.0000 
      8 CA         28.8800    0.4530   32.2290 C.3       6 GLL5        0.0000 
      9 CA         25.4880   -1.3320   30.8010 C.3       4 GLP5        0.0000 
     10 N          30.9480    4.5995   31.6180 N.am      1 SEC2        0.0000 
     11 N          31.3760    3.6080   30.8170 N.am      5 SEL2        0.0000 
     12 N          30.5200    5.5910   32.4190 N.am      3 SEP2        0.0000 
     13 CA         33.0750    0.2300   29.6590 C.3       2 GLC5        0.0000 
     14 CA         31.0580    0.2410   28.6700 C.3       6 GLL5        0.0000 
     15 CA         35.0920    0.2190   30.6480 C.3       4 GLP5        0.0000 
     16 CA         30.0885    1.6780   27.5680 C.3       2 GLC5        0.0000 
     17 CA         29.1190    3.1150   26.4660 C.3       4 GLP5        0.0000 
     18 CA         31.7125   -2.6100   28.0670 C.3       2 GLC5        0.0000 
     19 CA         30.9360   -1.0260   27.8580 C.3       6 GLL5        0.0000 
     20 CA         32.4890   -4.1940   28.2760 C.3       4 GLP5        0.0000 
     21 CA         31.7680   -0.2235   26.1040 C.3       2 GLC5        0.0000 
     22 CA         32.6000    0.5790   24.3500 C.3       4 GLP5        0.0000 
     23 CA         28.9440   -0.5115   27.0000 C.3       2 GLC5        0.0000 
     24 CA         26.9520    0.0030   26.1420 C.3       4 GLP5        0.0000 
     25 CA         30.4805   -1.7065   25.9500 C.3       2 GLC5        0.0000 
     26 CA         30.0250   -2.3870   24.0420 C.3       4 GLP5        0.0000 
     27 CA         32.7223    0.6305   34.0660 C.3       2 GLC5        0.0000 
     28 CA         30.3360    0.7740   34.1420 C.3       6 GLL5        0.0000 
     29 CA         34.5650    0.8120   33.5610 C.3       4 GLP5        0.0000 
     30 CA         27.8346    1.4869   32.4031 C.3       2 GLC5        0.0000 
     31 CA         29.3810   -0.2680   33.4920 C.3       6 GLL5        0.0000 
     32 CA         26.1490    2.1320   32.3780 C.3       4 GLP5        0.0000 
@<TRIPOS>BOND
@<TRIPOS>SUBSTRUCTURE
     1 SEC2        4 GROUP        1 X    SEC  0     ROOT SEC X 2
     2 GLC5        1 GROUP        1 X    GLC  0     **** GLC X 6
     3 SEP2        6 GROUP        1 Y    SEP  0     ROOT SEP Y 9
     4 GLP5        3 GROUP        1 Y    GLP  0     **** GLP Y 13
     5 SEL2        5 GROUP        1 Z    SEL  0     ROOT SEL Z 16
     6 GLL5        2 GROUP        1 Z    GLL  0     **** GLL Z 20
@<TRIPOS>SET

