#    Name: 3b9l_AZZ_2_ligand
#    Modification time : Mon Mar 24 19:10:44 2014

@<TRIPOS>MOLECULE
3b9l_AZZ_2_ligand
   32    33     1     0     0
SMALL
NO_CHARGES


@<TRIPOS>ATOM
      1 O5'        32.2590    1.1400   35.5660 O.3       1 AZZ1010     0.0000 
      2 C5'        31.4230    0.1240   35.0000 C.3       1 AZZ1010     0.0000 
      3 C4'        30.3360    0.7740   34.1420 C.3       1 AZZ1010     0.0000 
      4 O4'        30.9140    1.5050   33.0310 O.3       1 AZZ1010     0.0000 
      5 C3'        29.3810   -0.2680   33.4920 C.3       1 AZZ1010     0.0000 
      6 N3'        28.2850   -0.6480   34.4080 N.2       1 AZZ1010     0.0000 
      7 N4'        27.4960   -1.3920   34.0900 N.1       1 AZZ1010     0.0000 
      8 N5'        26.7050   -2.1250   33.7720 N.1       1 AZZ1010     0.0000 
      9 C2'        28.8800    0.4530   32.2290 C.3       1 AZZ1010     0.0000 
     10 C1'        29.9100    1.5910   31.9960 C.3       1 AZZ1010     0.0000 
     11 N1         30.5660    1.4980   30.6510 N.am      1 AZZ1010     0.0000 
     12 C2         31.2760    2.5800   30.1670 C.2       1 AZZ1010     0.0000 
     13 O2         31.3760    3.6080   30.8170 O.2       1 AZZ1010     0.0000 
     14 N3         31.8790    2.5120   28.9540 N.am      1 AZZ1010     0.0000 
     15 C4         31.7940    1.3840   28.1900 C.2       1 AZZ1010     0.0000 
     16 O4         32.3460    1.3590   27.1120 O.2       1 AZZ1010     0.0000 
     17 C5         31.0580    0.2410   28.6700 C.2       1 AZZ1010     0.0000 
     18 C5A        30.9360   -1.0260   27.8580 C.3       1 AZZ1010     0.0000 
     19 C6         30.4640    0.3250   29.8840 C.2       1 AZZ1010     0.0000 
     20 H          30.9273   -0.4706   35.7740 H         1 AZZ1010     0.0000 
     21 H          31.9913   -0.5582   34.3597 H         1 AZZ1010     0.0000 
     22 H          29.7360    1.4275   34.7462 H         1 AZZ1010     0.0000 
     23 H          29.9731   -1.0982   33.1899 H         1 AZZ1010     0.0000 
     24 H          27.9260    0.8759   32.4101 H         1 AZZ1010     0.0000 
     25 H          28.8989   -0.2107   31.4038 H         1 AZZ1010     0.0000 
     26 H          29.3779    2.5295   32.0734 H         1 AZZ1010     0.0000 
     27 H          32.4172    3.3327   28.5958 H         1 AZZ1010     0.0000 
     28 H          29.9242   -0.4707   30.2709 H         1 AZZ1010     0.0000 
     29 H          31.8298   -1.4304   27.6641 H         1 AZZ1010     0.0000 
     30 H          30.3967   -1.7212   28.3332 H         1 AZZ1010     0.0000 
     31 H          30.4915   -0.8614   26.9775 H         1 AZZ1010     0.0000 
     32 H          33.1658    0.7232   35.6296 H         1 AZZ1010     0.0000 
@<TRIPOS>BOND
     1    2    1 1    
     2   32    1 1    
     3    3    2 1    
     4   20    2 1    
     5   21    2 1    
     6    4    3 1    
     7    5    3 1    
     8   22    3 1    
     9   10    4 1    
    10    6    5 1    
    11    9    5 1    
    12   23    5 1    
    13    7    6 2    
    14    8    7 2    
    15   10    9 1    
    16   24    9 1    
    17   25    9 1    
    18   11   10 1    
    19   26   10 1    
    20   12   11 1    
    21   19   11 1    
    22   13   12 2    
    23   14   12 1    
    24   15   14 1    
    25   27   14 1    
    26   16   15 2    
    27   17   15 1    
    28   18   17 1    
    29   19   17 2    
    30   29   18 1    
    31   30   18 1    
    32   31   18 1    
    33   28   19 1    
@<TRIPOS>SUBSTRUCTURE
     1 AZZ1010     1 GROUP   
@<TRIPOS>SET

