#    Name: 1mp3_TTP_3_INTS_M
#    Modification time : Mon Apr  7 14:42:35 2014

@<TRIPOS>MOLECULE
1mp3_TTP_3_INTS_M
   39     0     6     0     0
SMALL
NO_CHARGES


@<TRIPOS>ATOM
      1 N          20.4510   99.4225   45.6570 N.am      1 SEC2        0.0000 
      2 N          20.1300   99.4900   47.2120 N.am      5 SEL2        0.0000 
      3 N          20.7720   99.3550   44.1020 N.am      3 SEP2        0.0000 
      4 N          18.4065  101.9795   45.4350 N.am      1 SEC2        0.0000 
      5 N          18.2660  103.1080   46.4310 N.am      5 SEL2        0.0000 
      6 N          18.5470  100.8510   44.4390 N.am      3 SEP2        0.0000 
      7 CA         22.4365  101.6320   45.0165 C.3       2 GLC5        0.0000 
      8 CA         24.1780  100.5590   45.8910 C.3       6 GLL5        0.0000 
      9 CA         20.6950  102.7050   44.1420 C.3       4 GLP5        0.0000 
     10 CA         23.9100   98.5495   46.4185 C.3       2 GLC5        0.0000 
     11 CA         23.6420   96.5400   46.9460 C.3       4 GLP5        0.0000 
     12 CA         27.6605   99.8475   46.0580 C.3       2 GLC5        0.0000 
     13 CA         26.4230  101.0550   45.0090 C.3       6 GLL5        0.0000 
     14 CA         28.8980   98.6400   47.1070 C.3       4 GLP5        0.0000 
     15 CA         26.9360  100.8325   47.1160 C.3       2 GLC5        0.0000 
     16 CA         27.4490  100.6100   49.2230 C.3       4 GLP5        0.0000 
     17 N          26.9620   98.7340   43.7405 N.am      1 SEC2        0.0000 
     18 N          27.1000  100.1550   44.1280 N.am      5 SEL2        0.0000 
     19 N          26.8240   97.3130   43.3530 N.am      3 SEP2        0.0000 
     20 N          26.8975  105.4735   41.1375 N.am      1 SEC2        0.0000 
     21 N          26.3640  105.1510   42.4260 N.am      5 SEL2        0.0000 
     22 N          27.4310  105.7960   39.8490 N.am      3 SEP2        0.0000 
     23 CA         22.9010  108.2260   46.5400 C.3       2 GLC5        0.0000 
     24 CA         23.7790  106.3520   46.4100 C.3       6 GLL5        0.0000 
     25 CA         22.0230  110.1000   46.6700 C.3       4 GLP5        0.0000 
     26 CA         26.5170  105.3665   46.5930 C.3       2 GLC5        0.0000 
     27 CA         24.7370  104.7840   45.4520 C.3       6 GLL5        0.0000 
     28 CA         28.2970  105.9490   47.7340 C.3       4 GLP5        0.0000 
     29 CA         23.1953   99.5602   44.6728 C.3       2 GLC5        0.0000 
     30 CA         24.9330  100.9540   44.6360 C.3       6 GLL5        0.0000 
     31 CA         21.8350   98.3640   44.0820 C.3       4 GLP5        0.0000 
     32 CA         27.7893  103.6527   45.1077 C.3       2 GLC5        0.0000 
     33 CA         25.7130  102.9370   43.8190 C.3       6 GLL5        0.0000 
     34 CA         29.3320  104.5830   45.9230 C.3       4 GLP5        0.0000 
     35 CA         22.6026  104.8555   45.0275 C.3       2 GLC5        0.0000 
     36 CA         24.2840  106.0960   45.6460 C.3       6 GLL5        0.0000 
     37 CA         20.8210  104.2070   44.3150 C.3       4 GLP5        0.0000 
     38 CA         25.5381  101.3452   42.7992 C.3       2 GLC5        0.0000 
     39 CA         25.1140  100.8270   41.0410 C.3       4 GLP5        0.0000 
@<TRIPOS>BOND
@<TRIPOS>SUBSTRUCTURE
     1 SEC2        1 GROUP        1 X    SEC  0     ROOT SEC X 2
     2 GLC5        7 GROUP        1 X    GLC  0     **** GLC X 6
     3 SEP2        3 GROUP        1 Y    SEP  0     ROOT SEP Y 9
     4 GLP5        9 GROUP        1 Y    GLP  0     **** GLP Y 13
     5 SEL2        2 GROUP        1 Z    SEL  0     ROOT SEL Z 16
     6 GLL5        8 GROUP        1 Z    GLL  0     **** GLL Z 20
@<TRIPOS>SET

