#    Name: 1mp3_TTP_3_ligand
#    Modification time : Mon Apr  7 14:42:35 2014

@<TRIPOS>MOLECULE
1mp3_TTP_3_ligand
   42    43     1     0     0
SMALL
NO_CHARGES


@<TRIPOS>ATOM
      1 PA         23.6150  101.3280   48.2060 P.3       1 TTP502      0.0000 
      2 O1A        23.1570  102.4820   47.7650 O.co2     1 TTP502      0.0000 
      3 O2A        23.7330  101.6320   49.7470 O.co2     1 TTP502      0.0000 
      4 O3A        22.5050  100.1390   47.9230 O.3       1 TTP502      0.0000 
      5 PB         20.9090  100.6170   47.9730 P.3       1 TTP502      0.0000 
      6 O1B        20.4780  100.6850   49.4910 O.co2     1 TTP502      0.0000 
      7 O2B        20.1300   99.4900   47.2120 O.co2     1 TTP502      0.0000 
      8 O3B        20.6140  102.0790   47.2100 O.3       1 TTP502      0.0000 
      9 PG         19.3200  103.0880   47.6140 P.3       1 TTP502      0.0000 
     10 O1G        18.2660  103.1080   46.4310 O.co2     1 TTP502      0.0000 
     11 O2G        19.9200  104.5390   47.8200 O.co2     1 TTP502      0.0000 
     12 O3G        18.6270  102.5960   48.9430 O.co2     1 TTP502      0.0000 
     13 O5'        24.6320  101.1270   47.3400 O.3       1 TTP502      0.0000 
     14 C5'        24.1780  100.5590   45.8910 C.3       1 TTP502      0.0000 
     15 C4'        24.9330  100.9540   44.6360 C.3       1 TTP502      0.0000 
     16 O4'        24.5430  102.2340   44.1830 O.3       1 TTP502      0.0000 
     17 C3'        26.4230  101.0550   45.0090 C.3       1 TTP502      0.0000 
     18 O3'        27.1000  100.1550   44.1280 O.3       1 TTP502      0.0000 
     19 C2'        26.7800  102.5080   44.7660 C.3       1 TTP502      0.0000 
     20 C1'        25.7130  102.9370   43.8190 C.3       1 TTP502      0.0000 
     21 N1         25.4590  104.3960   44.3690 N.am      1 TTP502      0.0000 
     22 C2         25.7260  105.3890   43.4480 C.2       1 TTP502      0.0000 
     23 O2         26.3640  105.1510   42.4260 O.2       1 TTP502      0.0000 
     24 N3         25.3190  106.6580   43.5800 N.am      1 TTP502      0.0000 
     25 C4         24.6130  107.0360   44.6420 C.2       1 TTP502      0.0000 
     26 O4         24.2550  108.3200   44.6810 O.2       1 TTP502      0.0000 
     27 C5         24.2840  106.0960   45.6460 C.2       1 TTP502      0.0000 
     28 C5M        23.7790  106.3520   46.4100 C.3       1 TTP502      0.0000 
     29 C6         24.7370  104.7840   45.4520 C.2       1 TTP502      0.0000 
     30 H          23.0914  100.8308   45.7824 H         1 TTP502      0.0000 
     31 H          24.1671   99.4382   45.9913 H         1 TTP502      0.0000 
     32 H          24.8310  100.2006   43.9018 H         1 TTP502      0.0000 
     33 H          26.5182  100.8148   46.0217 H         1 TTP502      0.0000 
     34 H          27.7336  102.5685   44.3082 H         1 TTP502      0.0000 
     35 H          26.7131  103.0479   45.6752 H         1 TTP502      0.0000 
     36 H          25.9858  102.9682   42.8848 H         1 TTP502      0.0000 
     37 H          25.5618  107.3588   42.8352 H         1 TTP502      0.0000 
     38 H          24.4956  104.0747   46.1953 H         1 TTP502      0.0000 
     39 H          23.6289  105.5826   47.0309 H         1 TTP502      0.0000 
     40 H          24.2383  107.0678   46.9360 H         1 TTP502      0.0000 
     41 H          22.8781  106.7055   46.1583 H         1 TTP502      0.0000 
     42 H          26.6817  100.3061   43.2324 H         1 TTP502      0.0000 
@<TRIPOS>BOND
     1    2    1 ar   
     2    3    1 ar   
     3    4    1 1    
     4   13    1 1    
     5    5    4 1    
     6    6    5 ar   
     7    7    5 ar   
     8    8    5 1    
     9    9    8 1    
    10   10    9 ar   
    11   11    9 ar   
    12   12    9 ar   
    13   14   13 1    
    14   15   14 1    
    15   30   14 1    
    16   31   14 1    
    17   16   15 1    
    18   17   15 1    
    19   32   15 1    
    20   20   16 1    
    21   18   17 1    
    22   19   17 1    
    23   33   17 1    
    24   42   18 1    
    25   20   19 1    
    26   34   19 1    
    27   35   19 1    
    28   21   20 1    
    29   36   20 1    
    30   22   21 1    
    31   29   21 1    
    32   23   22 2    
    33   24   22 1    
    34   25   24 1    
    35   37   24 1    
    36   26   25 2    
    37   27   25 1    
    38   28   27 1    
    39   29   27 2    
    40   39   28 1    
    41   40   28 1    
    42   41   28 1    
    43   38   29 1    
@<TRIPOS>SUBSTRUCTURE
     1 TTP502      1 GROUP   
@<TRIPOS>SET

