#    Name: 3i0a_DBH_3_INTS_M
#    Modification time : Tue Mar 25 15:25:24 2014

@<TRIPOS>MOLECULE
3i0a_DBH_3_INTS_M
   29     0    12     0     0
SMALL
NO_CHARGES


@<TRIPOS>ATOM
      1 CA         57.6300  102.9280   40.2110 C.3       4 GLC5        0.0000 
      2 CA         55.8740  101.7560   39.8220 C.3      12 GLL5        0.0000 
      3 CA         59.3860  104.1000   40.6000 C.3       8 GLP5        0.0000 
      4 CA         56.3715  100.3305   41.2555 C.3       4 GLC5        0.0000 
      5 CA         56.8690   98.9050   42.6890 C.3       8 GLP5        0.0000 
      6 Zn         54.7240  105.4785   37.1585 Zn        3 ZIC7        0.0000 
      7 Zn         54.4320  105.3280   38.2760 Zn       11 ZIL7        0.0000 
      8 Zn         55.0160  105.6290   36.0410 Zn        7 ZIP7        0.0000 
      9 N          55.6440  106.1100   39.0690 N.am      2 SEC2        0.0000 
     10 N          54.4320  105.3280   38.2760 N.am     10 SEL2        0.0000 
     11 N          56.8560  106.8920   39.8620 N.am      6 SEP2        0.0000 
     12 Zn         55.6625  104.7570   36.4595 Zn        3 ZIC7        0.0000 
     13 Zn         56.3090  103.8850   36.8780 Zn       11 ZIL7        0.0000 
     14 O          57.2140  103.1060   35.8915 O.2       1 ALC1        0.0000 
     15 O          56.3090  103.8850   36.8780 O.2       9 ALL1        0.0000 
     16 O          58.1190  102.3270   34.9050 O.2       5 ALP1        0.0000 
     17 CA         56.4877  102.6100   41.9237 C.3       4 GLC5        0.0000 
     18 CA         54.9230  102.4880   40.5290 C.3      12 GLL5        0.0000 
     19 CA         57.5770  103.0980   43.6720 C.3       8 GLP5        0.0000 
     20 CA         54.3983  100.5520   40.0307 C.3       4 GLC5        0.0000 
     21 CA         53.3980   98.9820   39.8860 C.3       8 GLP5        0.0000 
     22 CA         56.4393  100.2400   38.1073 C.3       4 GLC5        0.0000 
     23 CA         56.7720   98.4890   37.0060 C.3       8 GLP5        0.0000 
     24 CA         56.1620  104.7101   40.0715 C.3       4 GLC5        0.0000 
     25 CA         54.9050  104.1550   38.7850 C.3      12 GLL5        0.0000 
     26 CA         57.5310  105.7990   40.6160 C.3       8 GLP5        0.0000 
     27 CA         57.3727  103.9958   39.0718 C.3       4 GLC5        0.0000 
     28 CA         55.8520  103.4270   38.0780 C.3      12 GLL5        0.0000 
     29 CA         58.6500  105.1650   39.8070 C.3       8 GLP5        0.0000 
@<TRIPOS>BOND
@<TRIPOS>SUBSTRUCTURE
     1 ALC1       14 GROUP        1 X    ALC  0     ROOT ALC X 1
     2 SEC2        9 GROUP        1 X    SEC  0     **** SEC X 2
     3 ZIC7        6 GROUP        1 X    ZIC  0     **** ZIC X 5
     4 GLC5        1 GROUP        1 X    GLC  0     **** GLC X 6
     5 ALP1       16 GROUP        1 Y    ALP  0     ROOT ALP Y 8
     6 SEP2       11 GROUP        1 Y    SEP  0     **** SEP Y 9
     7 ZIP7        8 GROUP        1 Y    ZIP  0     **** ZIP Y 12
     8 GLP5        3 GROUP        1 Y    GLP  0     **** GLP Y 13
     9 ALL1       15 GROUP        1 Z    ALL  0     ROOT ALL Z 15
    10 SEL2       10 GROUP        1 Z    SEL  0     **** SEL Z 16
    11 ZIL7        7 GROUP        1 Z    ZIL  0     **** ZIL Z 19
    12 GLL5        2 GROUP        1 Z    GLL  0     **** GLL Z 20
@<TRIPOS>SET

