#    Name: 3i0a_DBH_3_ligand
#    Modification time : Tue Mar 25 15:25:24 2014

@<TRIPOS>MOLECULE
3i0a_DBH_3_ligand
   16    16     1     0     0
SMALL
NO_CHARGES


@<TRIPOS>ATOM
      1 O17        53.7530  105.0050   41.8580 O.co2     1 DBH180      0.0000 
      2 C21        53.4160  104.4710   40.7780 C.2       1 DBH180      0.0000 
      3 O9         52.2580  104.5730   40.3180 O.co2     1 DBH180      0.0000 
      4 C18        54.4390  103.6870   40.0090 C.ar      1 DBH180      0.0000 
      5 C15        54.9230  102.4880   40.5290 C.ar      1 DBH180      0.0000 
      6 C12        55.8740  101.7560   39.8220 C.ar      1 DBH180      0.0000 
      7 C3         54.9050  104.1550   38.7850 C.ar      1 DBH180      0.0000 
      8 O3         54.4320  105.3280   38.2760 O.3       1 DBH180      0.0000 
      9 C6         55.8520  103.4270   38.0780 C.ar      1 DBH180      0.0000 
     10 C9         56.3390  102.2260   38.5950 C.ar      1 DBH180      0.0000 
     11 O6         56.3090  103.8850   36.8780 O.3       1 DBH180      0.0000 
     12 H          54.5782  102.1444   41.4337 H         1 DBH180      0.0000 
     13 H          56.2316  100.8729   40.2031 H         1 DBH180      0.0000 
     14 H          57.0400  101.6889   38.0709 H         1 DBH180      0.0000 
     15 H          53.4381  105.2684   38.3692 H         1 DBH180      0.0000 
     16 H          56.8649  103.1391   36.5111 H         1 DBH180      0.0000 
@<TRIPOS>BOND
     1    2    1 ar   
     2    3    2 ar   
     3    4    2 1    
     4    5    4 ar   
     5    7    4 ar   
     6    6    5 ar   
     7   12    5 1    
     8   10    6 ar   
     9   13    6 1    
    10    8    7 1    
    11    9    7 ar   
    12   15    8 1    
    13   10    9 ar   
    14   11    9 1    
    15   14   10 1    
    16   16   11 1    
@<TRIPOS>SUBSTRUCTURE
     1 DBH180      1 GROUP   
@<TRIPOS>SET

