#    Name: 3bc4_LLG_2_INTS_M
#    Modification time : Mon Mar 24 19:16:37 2014

@<TRIPOS>MOLECULE
3bc4_LLG_2_INTS_M
   17     0     3     0     0
SMALL
NO_CHARGES


@<TRIPOS>ATOM
      1 CA         12.8125   18.1570   -0.5145 C.3       1 GLC5        0.0000 
      2 CA         12.9280   16.8270   -2.0120 C.3       3 GLL5        0.0000 
      3 CA         12.6970   19.4870    0.9830 C.3       2 GLP5        0.0000 
      4 CA         12.5505   18.7495   -2.2855 C.3       1 GLC5        0.0000 
      5 CA         12.1730   20.6720   -2.5590 C.3       2 GLP5        0.0000 
      6 CA         10.9675   15.3575   -7.0275 C.3       1 GLC5        0.0000 
      7 CA         10.9030   15.4070   -5.0530 C.3       3 GLL5        0.0000 
      8 CA         11.0320   15.3080   -9.0020 C.3       2 GLP5        0.0000 
      9 CA         12.4925   16.2795   -6.2225 C.3       1 GLC5        0.0000 
     10 CA         11.7280   16.2810   -4.2060 C.3       3 GLL5        0.0000 
     11 CA         13.2570   16.2780   -8.2390 C.3       2 GLP5        0.0000 
     12 CA          8.9305   15.2160   -3.9038 C.3       1 GLC5        0.0000 
     13 CA         10.3530   14.2390   -4.5430 C.3       3 GLL5        0.0000 
     14 CA          7.3900   16.3660   -3.9750 C.3       2 GLP5        0.0000 
     15 CA          9.3528   16.1050   -4.3023 C.3       1 GLC5        0.0000 
     16 CA         10.9618   17.7280   -5.2363 C.3       1 GLC5        0.0000 
     17 CA         10.6080   19.6120   -5.8430 C.3       2 GLP5        0.0000 
@<TRIPOS>BOND
@<TRIPOS>SUBSTRUCTURE
     1 GLC5        1 GROUP        1 X    GLC  0     ROOT GLC X 6
     2 GLP5        3 GROUP        1 Y    GLP  0     ROOT GLP Y 13
     3 GLL5        2 GROUP        1 Z    GLL  0     ROOT GLL Z 20
@<TRIPOS>SET

