#    Name: 3bc4_LLG_2_ligand
#    Modification time : Mon Mar 24 19:16:37 2014

@<TRIPOS>MOLECULE
3bc4_LLG_2_ligand
   33    34     1     0     0
SMALL
NO_CHARGES


@<TRIPOS>ATOM
      1 N1         18.1700   18.1700    0.0000 N.4       1 LLG2502     0.0000 
      2 C4         16.5400   16.6590   -0.7670 C.3       1 LLG2502     0.0000 
      3 C5         17.2290   17.9730   -1.1000 C.3       1 LLG2502     0.0000 
      4 C6         12.9280   16.8270   -2.0120 C.3       1 LLG2502     0.0000 
      5 C7         14.3320   16.3420   -1.7240 C.2       1 LLG2502     0.0000 
      6 C10        11.0820   13.1130   -0.3980 C.ar      1 LLG2502     0.0000 
      7 C13        10.5890   13.8930   -3.1220 C.ar      1 LLG2502     0.0000 
      8 C15        12.0560   15.9120   -2.8810 C.ar      1 LLG2502     0.0000 
      9 C17        10.9030   15.4070   -5.0530 C.ar      1 LLG2502     0.0000 
     10 O6         15.1520   17.0460   -0.9390 O.3       1 LLG2502     0.0000 
     11 C16        11.7280   16.2810   -4.2060 C.ar      1 LLG2502     0.0000 
     12 C18        10.3530   14.2390   -4.5430 C.ar      1 LLG2502     0.0000 
     13 C14        11.4450   14.6840   -2.3180 C.ar      1 LLG2502     0.0000 
     14 C9         11.6680   14.2920   -0.8980 C.ar      1 LLG2502     0.0000 
     15 C11        10.2270   12.2650   -1.2560 C.ar      1 LLG2502     0.0000 
     16 C12        10.0000   12.6270   -2.5920 C.ar      1 LLG2502     0.0000 
     17 O8         14.7610   15.2960   -2.1680 O.2       1 LLG2502     0.0000 
     18 H          16.7559   16.4014    0.2351 H         1 LLG2502     0.0000 
     19 H          16.8352   15.9276   -1.4706 H         1 LLG2502     0.0000 
     20 H          17.7383   17.8707   -2.0357 H         1 LLG2502     0.0000 
     21 H          16.4956   18.7518   -1.1304 H         1 LLG2502     0.0000 
     22 H          12.9818   17.8259   -2.5025 H         1 LLG2502     0.0000 
     23 H          12.3981   17.0002   -1.0473 H         1 LLG2502     0.0000 
     24 H          11.2309   12.8142    0.5640 H         1 LLG2502     0.0000 
     25 H          10.7540   15.6936   -6.0218 H         1 LLG2502     0.0000 
     26 H          12.0563   17.1602   -4.6019 H         1 LLG2502     0.0000 
     27 H           9.7955   13.6081   -5.0966 H         1 LLG2502     0.0000 
     28 H          12.2415   14.8922   -0.3268 H         1 LLG2502     0.0000 
     29 H           9.8221   11.4325   -0.8490 H         1 LLG2502     0.0000 
     30 H           9.4503   12.0655   -3.2210 H         1 LLG2502     0.0000 
     31 H          18.7621   17.3746    0.1292 H         1 LLG2502     0.0000 
     32 H          18.7665   18.9569   -0.1580 H         1 LLG2502     0.0000 
     33 H          17.6990   18.3288    0.8677 H         1 LLG2502     0.0000 
@<TRIPOS>BOND
     1    3    1 1    
     2   31    1 1    
     3   32    1 1    
     4   33    1 1    
     5    3    2 1    
     6   10    2 1    
     7   18    2 1    
     8   19    2 1    
     9   20    3 1    
    10   21    3 1    
    11    5    4 1    
    12    8    4 1    
    13   22    4 1    
    14   23    4 1    
    15   10    5 1    
    16   17    5 2    
    17   14    6 ar   
    18   15    6 ar   
    19   24    6 1    
    20   12    7 ar   
    21   13    7 ar   
    22   16    7 ar   
    23   11    8 ar   
    24   13    8 ar   
    25   11    9 ar   
    26   12    9 ar   
    27   25    9 1    
    28   26   11 1    
    29   27   12 1    
    30   14   13 ar   
    31   28   14 1    
    32   16   15 ar   
    33   29   15 1    
    34   30   16 1    
@<TRIPOS>SUBSTRUCTURE
     1 LLG2502     1 GROUP   
@<TRIPOS>SET

