#    Name: 3lam_KRP_1_INTS_M
#    Modification time : Mon Mar 24 21:16:08 2014

@<TRIPOS>MOLECULE
3lam_KRP_1_INTS_M
   64     0     6     0     0
SMALL
NO_CHARGES


@<TRIPOS>ATOM
      1 CA          7.4280    8.1300   17.4635 C.3       2 GLC5        0.0000 
      2 CA          6.8960    9.3000   16.0390 C.3       6 GLL5        0.0000 
      3 CA          7.9600    6.9600   18.8880 C.3       4 GLP5        0.0000 
      4 CA          7.3580   13.9675   16.4235 C.3       2 GLC5        0.0000 
      5 CA          7.0050   11.8980   16.0920 C.3       6 GLL5        0.0000 
      6 CA          7.7110   16.0370   16.7550 C.3       4 GLP5        0.0000 
      7 CA          5.8710   11.9315   18.0230 C.3       2 GLC5        0.0000 
      8 CA          4.7370   11.9650   19.9540 C.3       4 GLP5        0.0000 
      9 CA          8.6835   14.1640   16.3400 C.3       2 GLC5        0.0000 
     10 CA          9.6560   12.2910   15.9250 C.3       6 GLL5        0.0000 
     11 CA         11.3470   11.2665   22.4740 C.3       2 GLC5        0.0000 
     12 CA         10.0490   12.2460   22.4330 C.3       6 GLL5        0.0000 
     13 CA         12.6450   10.2870   22.5150 C.3       4 GLP5        0.0000 
     14 CA          8.7270   10.4485   22.3235 C.3       2 GLC5        0.0000 
     15 CA          7.4050    8.6510   22.2140 C.3       4 GLP5        0.0000 
     16 CA         11.0265   18.2050   19.5050 C.3       2 GLC5        0.0000 
     17 CA         10.7490   16.3340   19.6340 C.3       6 GLL5        0.0000 
     18 CA         11.3040   20.0760   19.3760 C.3       4 GLP5        0.0000 
     19 CA         10.2835   16.4870   17.5950 C.3       2 GLC5        0.0000 
     20 CA          9.8180   16.6400   15.5560 C.3       4 GLP5        0.0000 
     21 CA         12.5730   15.8495   20.0710 C.3       2 GLC5        0.0000 
     22 CA         14.3970   15.3650   20.5080 C.3       4 GLP5        0.0000 
     23 CA          9.6595   16.7005   21.0185 C.3       2 GLC5        0.0000 
     24 CA          8.5700   17.0670   22.4030 C.3       4 GLP5        0.0000 
     25 CA         10.3140   14.6680   15.3735 C.3       2 GLC5        0.0000 
     26 CA         10.8100   12.6960   15.1910 C.3       6 GLL5        0.0000 
     27 CA         11.3785   15.3720   15.6460 C.3       2 GLC5        0.0000 
     28 CA         12.9390   14.1040   15.7360 C.3       6 GLL5        0.0000 
     29 CA         13.7970   13.5615   13.8130 C.3       2 GLC5        0.0000 
     30 CA         14.6550   13.0190   11.8900 C.3       4 GLP5        0.0000 
     31 CA         14.1820   14.5360   16.9815 C.3       2 GLC5        0.0000 
     32 CA         15.4250   14.9680   18.2270 C.3       4 GLP5        0.0000 
     33 CA         13.9110   12.3625   13.3805 C.3       2 GLC5        0.0000 
     34 CA         13.1670   11.7060   14.8710 C.3       6 GLL5        0.0000 
     35 CA         14.5980   10.3255   15.1150 C.3       2 GLC5        0.0000 
     36 CA         16.0290    8.9450   15.3590 C.3       4 GLP5        0.0000 
     37 CA         13.4855   10.4285   13.5985 C.3       2 GLC5        0.0000 
     38 CA         13.8040    9.1510   12.3260 C.3       4 GLP5        0.0000 
     39 O           8.7815   13.7050   12.0680 O.2       1 ALC1        0.0000 
     40 O           9.1930   13.2210   13.3150 O.2       5 ALL1        0.0000 
     41 O           8.3700   14.1890   10.8210 O.2       3 ALP1        0.0000 
     42 CA          8.0060    8.8792   14.9245 C.3       2 GLC5        0.0000 
     43 CA          6.3060   10.6090   15.5010 C.3       6 GLL5        0.0000 
     44 CA          9.4110    7.8040   14.0790 C.3       4 GLP5        0.0000 
     45 CA          4.9160    8.9932   14.8990 C.3       2 GLC5        0.0000 
     46 CA          3.2310    8.0320   14.0280 C.3       4 GLP5        0.0000 
     47 CA          5.2297   12.6038   15.3613 C.3       2 GLC5        0.0000 
     48 CA          3.8040   13.9540   14.9260 C.3       4 GLP5        0.0000 
     49 CA         12.0025   11.7063   19.2010 C.3       2 GLC5        0.0000 
     50 CA          9.9360   12.5970   18.6470 C.3       6 GLL5        0.0000 
     51 CA         14.0930   11.1240   19.0940 C.3       4 GLP5        0.0000 
     52 CA          9.0460   12.8795   23.4217 C.3       2 GLC5        0.0000 
     53 CA         10.1130   12.8040   21.1500 C.3       6 GLL5        0.0000 
     54 CA          8.0110   13.2340   25.0520 C.3       4 GLP5        0.0000 
     55 CA          8.2870   13.0095   21.3242 C.3       2 GLC5        0.0000 
     56 CA          6.4930   13.4940   20.8570 C.3       4 GLP5        0.0000 
     57 CA          8.4575   14.0107   20.6268 C.3       2 GLC5        0.0000 
     58 CA         10.3920   14.2130   21.0400 C.3       6 GLL5        0.0000 
     59 CA          9.0237   15.2405   17.9565 C.3       2 GLC5        0.0000 
     60 CA         10.4520   14.8420   19.7530 C.3       6 GLL5        0.0000 
     61 CA          8.2797   13.3306   19.8963 C.3       2 GLC5        0.0000 
     62 CA         10.2210   14.0460   18.5630 C.3       6 GLL5        0.0000 
     63 CA         13.4102   11.6560   17.1992 C.3       2 GLC5        0.0000 
     64 CA         12.2880   12.6700   15.7380 C.3       6 GLL5        0.0000 
@<TRIPOS>BOND
@<TRIPOS>SUBSTRUCTURE
     1 ALC1       39 GROUP        1 X    ALC  0     ROOT ALC X 1
     2 GLC5        1 GROUP        1 X    GLC  0     **** GLC X 6
     3 ALP1       41 GROUP        1 Y    ALP  0     ROOT ALP Y 8
     4 GLP5        3 GROUP        1 Y    GLP  0     **** GLP Y 13
     5 ALL1       40 GROUP        1 Z    ALL  0     ROOT ALL Z 15
     6 GLL5        2 GROUP        1 Z    GLL  0     **** GLL Z 20
@<TRIPOS>SET

