#    Name: 3lam_KRP_1_ligand
#    Modification time : Mon Mar 24 21:16:08 2014

@<TRIPOS>MOLECULE
3lam_KRP_1_ligand
   46    47     1     0     0
SMALL
NO_CHARGES


@<TRIPOS>ATOM
      1 C1          6.3060   10.6090   15.5010 C.3       1 KRP561      0.0000 
      2 C2          6.8960    9.3000   16.0390 C.3       1 KRP561      0.0000 
      3 C4          7.0050   11.8980   16.0920 C.3       1 KRP561      0.0000 
      4 N5          8.3090   12.3400   15.3240 N.am      1 KRP561      0.0000 
      5 C6          9.6560   12.2910   15.9250 C.2       1 KRP561      0.0000 
      6 C7          9.6790   11.7310   17.3840 C.2       1 KRP561      0.0000 
      7 O8          9.4550   10.5420   17.5130 O.2       1 KRP561      0.0000 
      8 C9          9.9360   12.5970   18.6470 C.ar      1 KRP561      0.0000 
      9 C10         9.8880   11.9800   19.9690 C.ar      1 KRP561      0.0000 
     10 C11        10.1130   12.8040   21.1500 C.ar      1 KRP561      0.0000 
     11 C12        10.0490   12.2460   22.4330 C.1       1 KRP561      0.0000 
     12 N13         9.9400   11.8020   23.4890 N.1       1 KRP561      0.0000 
     13 C14        10.3920   14.2130   21.0400 C.ar      1 KRP561      0.0000 
     14 C15        10.4520   14.8420   19.7530 C.ar      1 KRP561      0.0000 
     15 C16        10.7490   16.3340   19.6340 C.3       1 KRP561      0.0000 
     16 C17        10.2210   14.0460   18.5630 C.ar      1 KRP561      0.0000 
     17 C18        10.8100   12.6960   15.1910 C.2       1 KRP561      0.0000 
     18 C19        12.2880   12.6700   15.7380 C.3       1 KRP561      0.0000 
     19 C20        12.9390   14.1040   15.7360 C.3       1 KRP561      0.0000 
     20 C21        13.1670   11.7060   14.8710 C.3       1 KRP561      0.0000 
     21 C22        10.4700   13.2110   13.7460 C.2       1 KRP561      0.0000 
     22 O23        11.3110   13.6080   12.9690 O.2       1 KRP561      0.0000 
     23 N24         9.1930   13.2210   13.3150 N.am      1 KRP561      0.0000 
     24 C25         8.1160   12.8200   14.0510 C.2       1 KRP561      0.0000 
     25 O26         6.9850   12.8910   13.4980 O.2       1 KRP561      0.0000 
     26 H           5.2422   10.6626   15.7464 H         1 KRP561      0.0000 
     27 H           6.4094   10.6408   14.4133 H         1 KRP561      0.0000 
     28 H           7.2644   11.7026   17.1358 H         1 KRP561      0.0000 
     29 H           6.2881   12.7229   16.0653 H         1 KRP561      0.0000 
     30 H           9.7024   11.0011   20.0625 H         1 KRP561      0.0000 
     31 H          10.5466   14.7613   21.8806 H         1 KRP561      0.0000 
     32 H          10.2529   14.4811   17.6472 H         1 KRP561      0.0000 
     33 H          12.2773   12.3022   16.7440 H         1 KRP561      0.0000 
     34 H           9.0014   13.5699   12.3174 H         1 KRP561      0.0000 
     35 H           7.8691    9.2155   15.8246 H         1 KRP561      0.0000 
     36 H           6.8080    9.2338   17.0329 H         1 KRP561      0.0000 
     37 H           6.4396    8.4996   15.6504 H         1 KRP561      0.0000 
     38 H          11.6370   16.5686   20.0295 H         1 KRP561      0.0000 
     39 H          10.7641   16.6348   18.6804 H         1 KRP561      0.0000 
     40 H          10.0627   16.8880   20.1052 H         1 KRP561      0.0000 
     41 H          13.8774   14.0863   16.0811 H         1 KRP561      0.0000 
     42 H          12.9722   14.4955   14.8164 H         1 KRP561      0.0000 
     43 H          12.4280   14.7447   16.3091 H         1 KRP561      0.0000 
     44 H          14.1120   11.6717   15.1963 H         1 KRP561      0.0000 
     45 H          12.8173   10.7693   14.8870 H         1 KRP561      0.0000 
     46 H          13.1969   11.9914   13.9130 H         1 KRP561      0.0000 
@<TRIPOS>BOND
     1    2    1 1    
     2    3    1 1    
     3   26    1 1    
     4   27    1 1    
     5   35    2 1    
     6   36    2 1    
     7   37    2 1    
     8    4    3 1    
     9   28    3 1    
    10   29    3 1    
    11    5    4 1    
    12   24    4 1    
    13    6    5 1    
    14   17    5 2    
    15    7    6 2    
    16    8    6 1    
    17    9    8 ar   
    18   16    8 ar   
    19   10    9 ar   
    20   30    9 1    
    21   11   10 1    
    22   13   10 ar   
    23   12   11 3    
    24   14   13 ar   
    25   31   13 1    
    26   15   14 1    
    27   16   14 ar   
    28   38   15 1    
    29   39   15 1    
    30   40   15 1    
    31   32   16 1    
    32   18   17 1    
    33   21   17 1    
    34   19   18 1    
    35   20   18 1    
    36   33   18 1    
    37   41   19 1    
    38   42   19 1    
    39   43   19 1    
    40   44   20 1    
    41   45   20 1    
    42   46   20 1    
    43   22   21 2    
    44   23   21 1    
    45   24   23 1    
    46   34   23 1    
    47   25   24 2    
@<TRIPOS>SUBSTRUCTURE
     1 KRP561      1 GROUP   
@<TRIPOS>SET

