#    Name: 3iw8_HIZ_1_INTS_M
#    Modification time : Tue Mar 25 17:35:50 2014

@<TRIPOS>MOLECULE
3iw8_HIZ_1_INTS_M
   81     0     9     0     0
SMALL
NO_CHARGES


@<TRIPOS>ATOM
      1 N          16.7495    4.1185   18.2760 N.am      2 SEC2        0.0000 
      2 N          17.9090    4.5110   18.2350 N.am      8 SEL2        0.0000 
      3 N          15.5900    3.7260   18.3170 N.am      5 SEP2        0.0000 
      4 CA         12.7965   10.7375   16.1195 C.3       3 GLC5        0.0000 
      5 CA         13.8760    9.0330   17.0480 C.3       9 GLL5        0.0000 
      6 CA         11.7170   12.4420   15.1910 C.3       6 GLP5        0.0000 
      7 CA         14.4135    8.8245   21.1705 C.3       3 GLC5        0.0000 
      8 CA         14.4380    7.9180   19.6240 C.3       9 GLL5        0.0000 
      9 CA         14.3890    9.7310   22.7170 C.3       6 GLP5        0.0000 
     10 CA         12.7035    8.8810   20.0920 C.3       3 GLC5        0.0000 
     11 CA         10.9690    9.8440   20.5600 C.3       6 GLP5        0.0000 
     12 CA         12.7980    6.8710   20.3535 C.3       3 GLC5        0.0000 
     13 CA         11.1580    5.8240   21.0830 C.3       6 GLP5        0.0000 
     14 CA         14.7290    5.8675   20.1625 C.3       3 GLC5        0.0000 
     15 CA         15.0200    3.8170   20.7010 C.3       6 GLP5        0.0000 
     16 CA         24.9180    7.0520   21.3950 C.3       3 GLC5        0.0000 
     17 CA         24.3520    5.0380   20.9760 C.3       9 GLL5        0.0000 
     18 CA         25.4840    9.0660   21.8140 C.3       6 GLP5        0.0000 
     19 CA         23.9620    4.9455   22.8285 C.3       3 GLC5        0.0000 
     20 CA         23.5720    4.8530   24.6810 C.3       6 GLP5        0.0000 
     21 CA         26.7070    4.9035   22.7925 C.3       3 GLC5        0.0000 
     22 CA         25.3390    4.2150   21.5340 C.3       9 GLL5        0.0000 
     23 CA         28.0750    5.5920   24.0510 C.3       6 GLP5        0.0000 
     24 CA         24.3790    2.5070   18.6915 C.3       3 GLC5        0.0000 
     25 CA         23.1410    3.0930   20.2750 C.3       9 GLL5        0.0000 
     26 CA         25.6170    1.9210   17.1080 C.3       6 GLP5        0.0000 
     27 CA         25.2945    1.4040   23.0335 C.3       3 GLC5        0.0000 
     28 CA         25.2350    2.8270   21.4690 C.3       9 GLL5        0.0000 
     29 CA         25.3540   -0.0190   24.5980 C.3       6 GLP5        0.0000 
     30 CA         17.1330    6.8410   20.0410 C.3       3 GLC5        0.0000 
     31 CA         16.6940    7.0580   18.3210 C.3       9 GLL5        0.0000 
     32 CA         17.5720    6.6240   21.7610 C.3       6 GLP5        0.0000 
     33 CA         15.8570    5.4375   19.5110 C.3       3 GLC5        0.0000 
     34 CA         25.0720   -0.5640   19.8680 C.3       3 GLC5        0.0000 
     35 CA         24.0120    0.8870   20.7560 C.3       9 GLL5        0.0000 
     36 CA         26.1320   -2.0150   18.9800 C.3       6 GLP5        0.0000 
     37 CA         24.6830    0.4340   22.6770 C.3       3 GLC5        0.0000 
     38 O          19.8990    6.6410   16.1025 O.2       1 ALC1        0.0000 
     39 O          18.6810    6.2850   17.1230 O.2       7 ALL1        0.0000 
     40 O          21.1170    6.9970   15.0820 O.2       4 ALP1        0.0000 
     41 CA         19.4980    3.4640   20.5650 C.3       3 GLC5        0.0000 
     42 CA         19.1580    2.2100   18.9000 C.3       9 GLL5        0.0000 
     43 CA         19.8380    4.7180   22.2300 C.3       6 GLP5        0.0000 
     44 CA         17.3830    2.3155   19.9605 C.3       3 GLC5        0.0000 
     45 CA         15.6080    2.4210   21.0210 C.3       6 GLP5        0.0000 
     46 CA         17.2345    2.8055   17.9040 C.3       3 GLC5        0.0000 
     47 CA         15.3110    3.4010   16.9080 C.3       6 GLP5        0.0000 
     48 CA         16.2655    7.2312   20.3502 C.3       3 GLC5        0.0000 
     49 CA         15.4800    7.7590   18.2550 C.3       9 GLL5        0.0000 
     50 CA         23.2385    6.3748   19.6883 C.3       3 GLC5        0.0000 
     51 CA         23.2420    4.4810   20.3390 C.3       9 GLL5        0.0000 
     52 CA         22.6800    7.9900   18.7190 C.3       6 GLP5        0.0000 
     53 CA         26.1412    5.4778   20.3905 C.3       3 GLC5        0.0000 
     54 CA         27.4370    6.3290   19.5260 C.3       6 GLP5        0.0000 
     55 CA         21.5147    4.2525   21.2685 C.3       3 GLC5        0.0000 
     56 CA         23.2728    3.5540   22.3605 C.3       3 GLC5        0.0000 
     57 CA         23.3540    3.3210   24.4140 C.3       6 GLP5        0.0000 
     58 CA         26.3525    2.7130   20.1412 C.3       3 GLC5        0.0000 
     59 CA         27.4180    1.9050   18.7810 C.3       6 GLP5        0.0000 
     60 CA         24.3205    3.4210   22.9578 C.3       3 GLC5        0.0000 
     61 CA         15.7675    6.2820   16.0225 C.3       3 GLC5        0.0000 
     62 CA         15.8710    8.2480   15.9420 C.3       9 GLL5        0.0000 
     63 CA         15.0580    4.6630   16.0750 C.3       6 GLP5        0.0000 
     64 CA         18.4657    0.9265   17.3377 C.3       3 GLC5        0.0000 
     65 CA         17.2640    0.3210   15.7870 C.3       6 GLP5        0.0000 
     66 CA         16.0815    5.8365   16.9145 C.3       3 GLC5        0.0000 
     67 CA         17.5160    6.9620   17.1870 C.3       9 GLL5        0.0000 
     68 CA         25.7437    1.7415   19.7875 C.3       3 GLC5        0.0000 
     69 CA         24.1270    2.2690   20.8320 C.3       9 GLL5        0.0000 
     70 CA         23.7117    2.4495   22.6040 C.3       3 GLC5        0.0000 
     71 CA         24.3875   -1.0815   18.7475 C.3       3 GLC5        0.0000 
     72 CA         22.8620   -0.5140   19.1600 C.3       9 GLL5        0.0000 
     73 CA         24.1300    0.8865   17.8115 C.3       3 GLC5        0.0000 
     74 CA         21.0550   -1.4290   18.4685 C.3       3 GLC5        0.0000 
     75 CA         22.4240    0.2180   17.8700 C.3       9 GLL5        0.0000 
     76 CA         19.4670   -2.7100   18.4220 C.3       6 GLP5        0.0000 
     77 CA         16.4802    9.4858   15.4582 C.3       3 GLC5        0.0000 
     78 CA         17.0830    7.5540   15.9980 C.3       9 GLL5        0.0000 
     79 CA         17.1910   10.8420   14.3950 C.3       6 GLP5        0.0000 
     80 CA         15.1645    6.3608   16.8695 C.3       3 GLC5        0.0000 
     81 CA         15.0620    8.3580   17.0730 C.3       9 GLL5        0.0000 
@<TRIPOS>BOND
@<TRIPOS>SUBSTRUCTURE
     1 ALC1       38 GROUP        1 X    ALC  0     ROOT ALC X 1
     2 SEC2        1 GROUP        1 X    SEC  0     **** SEC X 2
     3 GLC5        4 GROUP        1 X    GLC  0     **** GLC X 6
     4 ALP1       40 GROUP        1 Y    ALP  0     ROOT ALP Y 8
     5 SEP2        3 GROUP        1 Y    SEP  0     **** SEP Y 9
     6 GLP5        6 GROUP        1 Y    GLP  0     **** GLP Y 13
     7 ALL1       39 GROUP        1 Z    ALL  0     ROOT ALL Z 15
     8 SEL2        2 GROUP        1 Z    SEL  0     **** SEL Z 16
     9 GLL5        5 GROUP        1 Z    GLL  0     **** GLL Z 20
@<TRIPOS>SET

