#    Name: 3iw8_HIZ_1_ligand
#    Modification time : Tue Mar 25 17:35:50 2014

@<TRIPOS>MOLECULE
3iw8_HIZ_1_ligand
   47    49     1     0     0
SMALL
NO_CHARGES


@<TRIPOS>ATOM
      1 NAA        22.0300   -0.7590   16.8520 N.4       1 HIZ361      0.0000 
      2 OAB        17.9090    4.5110   18.2350 O.2       1 HIZ361      0.0000 
      3 FAC        13.8760    9.0330   17.0480 F         1 HIZ361      0.0000 
      4 CLAD       14.4380    7.9180   19.6240 Cl        1 HIZ361      0.0000 
      5 CAE        24.3520    5.0380   20.9760 C.ar      1 HIZ361      0.0000 
      6 CAF        23.2420    4.4810   20.3390 C.ar      1 HIZ361      0.0000 
      7 CAG        25.3390    4.2150   21.5340 C.ar      1 HIZ361      0.0000 
      8 CAH        23.1410    3.0930   20.2750 C.ar      1 HIZ361      0.0000 
      9 CAI        25.2350    2.8270   21.4690 C.ar      1 HIZ361      0.0000 
     10 CAJ        15.8710    8.2480   15.9420 C.ar      1 HIZ361      0.0000 
     11 CAK        17.0830    7.5540   15.9980 C.ar      1 HIZ361      0.0000 
     12 CAL        20.1770    0.8540   18.8770 C.2       1 HIZ361      0.0000 
     13 CAM        16.6940    7.0580   18.3210 C.ar      1 HIZ361      0.0000 
     14 CAN        24.0120    0.8870   20.7560 C.3       1 HIZ361      0.0000 
     15 CAO        22.8620   -0.5140   19.1600 C.3       1 HIZ361      0.0000 
     16 NAP        21.2720    2.4400   17.6000 N.2       1 HIZ361      0.0000 
     17 NAQ        18.6810    6.2850   17.1230 N.am      1 HIZ361      0.0000 
     18 NAR        20.0070    4.4360   17.4830 N.am      1 HIZ361      0.0000 
     19 OAS        22.7520    0.2640   20.4010 O.3       1 HIZ361      0.0000 
     20 SAT        19.1580    2.2100   18.9000 S.3       1 HIZ361      0.0000 
     21 CAU        18.8250    5.0530   17.6250 C.2       1 HIZ361      0.0000 
     22 CAV        24.1270    2.2690   20.8320 C.ar      1 HIZ361      0.0000 
     23 CAW        15.0620    8.3580   17.0730 C.ar      1 HIZ361      0.0000 
     24 CAX        17.5160    6.9620   17.1870 C.ar      1 HIZ361      0.0000 
     25 CAY        15.4800    7.7590   18.2550 C.ar      1 HIZ361      0.0000 
     26 CAZ        21.2540    1.1910   18.1260 C.2       1 HIZ361      0.0000 
     27 CBA        20.2130    3.1870   17.9380 C.2       1 HIZ361      0.0000 
     28 CBB        22.4240    0.2180   17.8700 C.3       1 HIZ361      0.0000 
     29 H          24.4483    6.0609   21.0375 H         1 HIZ361      0.0000 
     30 H          22.5251    5.0749   19.9319 H         1 HIZ361      0.0000 
     31 H          26.1537    4.6463   21.9993 H         1 HIZ361      0.0000 
     32 H          22.3253    2.6607   19.8090 H         1 HIZ361      0.0000 
     33 H          25.9524    2.2323   21.8777 H         1 HIZ361      0.0000 
     34 H          15.5732    8.6823   15.0558 H         1 HIZ361      0.0000 
     35 H          17.6657    7.4781   15.1494 H         1 HIZ361      0.0000 
     36 H          19.8848    0.1395   19.3365 H         1 HIZ361      0.0000 
     37 H          16.9815    6.6148   19.1996 H         1 HIZ361      0.0000 
     38 H          24.8179    0.4680   20.0390 H         1 HIZ361      0.0000 
     39 H          24.3635    0.4117   21.7508 H         1 HIZ361      0.0000 
     40 H          22.2578   -1.4479   19.2329 H         1 HIZ361      0.0000 
     41 H          23.9123   -0.8548   19.0077 H         1 HIZ361      0.0000 
     42 H          19.5119    6.7510   16.6560 H         1 HIZ361      0.0000 
     43 H          20.7986    4.9426   17.0013 H         1 HIZ361      0.0000 
     44 H          23.2684    0.7988   17.5127 H         1 HIZ361      0.0000 
     45 H          22.7820   -1.3752   16.6179 H         1 HIZ361      0.0000 
     46 H          21.2685   -1.3295   17.1598 H         1 HIZ361      0.0000 
     47 H          21.7399   -0.3154   16.0041 H         1 HIZ361      0.0000 
@<TRIPOS>BOND
     1   28    1 1    
     2   45    1 1    
     3   46    1 1    
     4   47    1 1    
     5   21    2 2    
     6   23    3 1    
     7   25    4 1    
     8    6    5 ar   
     9    7    5 ar   
    10   29    5 1    
    11    8    6 ar   
    12   30    6 1    
    13    9    7 ar   
    14   31    7 1    
    15   22    8 ar   
    16   32    8 1    
    17   22    9 ar   
    18   33    9 1    
    19   11   10 ar   
    20   23   10 ar   
    21   34   10 1    
    22   24   11 ar   
    23   35   11 1    
    24   20   12 1    
    25   26   12 2    
    26   36   12 1    
    27   24   13 ar   
    28   25   13 ar   
    29   37   13 1    
    30   19   14 1    
    31   22   14 1    
    32   38   14 1    
    33   39   14 1    
    34   19   15 1    
    35   28   15 1    
    36   40   15 1    
    37   41   15 1    
    38   26   16 1    
    39   27   16 2    
    40   21   17 am   
    41   24   17 1    
    42   42   17 1    
    43   21   18 am   
    44   27   18 1    
    45   43   18 1    
    46   27   20 1    
    47   25   23 ar   
    48   28   26 1    
    49   44   28 1    
@<TRIPOS>SUBSTRUCTURE
     1 HIZ361      1 GROUP   
@<TRIPOS>SET

