#    Name: 2xk9_XK9_1_INTS_M
#    Modification time : Tue Mar 25 06:08:56 2014

@<TRIPOS>MOLECULE
2xk9_XK9_1_INTS_M
   72     0    12     0     0
SMALL
NO_CHARGES


@<TRIPOS>ATOM
      1 N         -49.4015   14.7395   -3.0985 N.am      2 SEC2        0.0000 
      2 N         -49.4250   16.0170   -3.8370 N.am     10 SEL2        0.0000 
      3 N         -49.3780   13.4620   -2.3600 N.am      6 SEP2        0.0000 
      4 CA        -49.5775   18.3625   -4.6310 C.3       4 GLC5        0.0000 
      5 CA        -47.7140   17.6810   -4.3580 C.3      12 GLL5        0.0000 
      6 CA        -51.4410   19.0440   -4.9040 C.3       8 GLP5        0.0000 
      7 CA        -48.6310   18.9565   -5.6925 C.3       4 GLC5        0.0000 
      8 CA        -47.4530   17.1090   -5.6020 C.3      12 GLL5        0.0000 
      9 CA        -49.8090   20.8040   -5.7830 C.3       8 GLP5        0.0000 
     10 CA        -48.9350   17.4465   -7.2270 C.3       4 GLC5        0.0000 
     11 CA        -50.4170   17.7840   -8.8520 C.3       8 GLP5        0.0000 
     12 CA        -48.8740   16.8700   -8.1310 C.3       4 GLC5        0.0000 
     13 CA        -47.3310   15.9560   -7.4100 C.3      12 GLL5        0.0000 
     14 CA        -47.7010   17.3530   -9.1850 C.3       4 GLC5        0.0000 
     15 CA        -46.5060   16.9910   -7.5980 C.3      12 GLL5        0.0000 
     16 CA        -48.8960   17.7150  -10.7720 C.3       8 GLP5        0.0000 
     17 CA        -43.9330   18.2185   -6.7980 C.3       4 GLC5        0.0000 
     18 CA        -45.9110   18.8990   -6.1160 C.3      12 GLL5        0.0000 
     19 CA        -41.9550   17.5380   -7.4800 C.3       8 GLP5        0.0000 
     20 CA        -48.1615   15.0105  -12.2845 C.3       4 GLC5        0.0000 
     21 CA        -47.0230   14.0950  -10.6320 C.3      12 GLL5        0.0000 
     22 CA        -49.3000   15.9260  -13.9370 C.3       8 GLP5        0.0000 
     23 CA        -46.3810   13.1600   -8.7770 C.3       4 GLC5        0.0000 
     24 CA        -45.7390   12.2250   -6.9220 C.3       8 GLP5        0.0000 
     25 CA        -44.8640   12.3275  -13.7950 C.3       4 GLC5        0.0000 
     26 CA        -46.3710   13.5150  -12.9170 C.3      12 GLL5        0.0000 
     27 CA        -43.3570   11.1400  -14.6730 C.3       8 GLP5        0.0000 
     28 CA        -45.8170   11.2140  -13.7715 C.3       4 GLC5        0.0000 
     29 CA        -47.3700   12.5220  -12.9770 C.3      12 GLL5        0.0000 
     30 CA        -44.2640    9.9060  -14.5660 C.3       8 GLP5        0.0000 
     31 CA        -49.9905   12.0090  -10.9465 C.3       4 GLC5        0.0000 
     32 CA        -48.1740   12.3480  -11.8490 C.3      12 GLL5        0.0000 
     33 CA        -51.8070   11.6700  -10.0440 C.3       8 GLP5        0.0000 
     34 CA        -49.6345   13.8525  -11.9065 C.3       4 GLC5        0.0000 
     35 CA        -48.0100   13.1280  -10.7020 C.3      12 GLL5        0.0000 
     36 CA        -51.2590   14.5770  -13.1110 C.3       8 GLP5        0.0000 
     37 CA        -49.0535   12.0105   -9.5695 C.3       4 GLC5        0.0000 
     38 CA        -50.0970   10.8930   -8.4370 C.3       8 GLP5        0.0000 
     39 CA        -50.0465   10.7650  -15.0945 C.3       4 GLC5        0.0000 
     40 CA        -48.1860   10.3650  -14.0960 C.3      12 GLL5        0.0000 
     41 CA        -51.9070   11.1650  -16.0930 C.3       8 GLP5        0.0000 
     42 CA        -46.2250   10.1355  -14.3310 C.3       4 GLC5        0.0000 
     43 O         -47.2950   10.2585  -16.6275 O.2       1 ALC1        0.0000 
     44 O         -47.2120   11.6260  -16.3830 O.2       9 ALL1        0.0000 
     45 O         -47.3780    8.8910  -16.8720 O.2       5 ALP1        0.0000 
     46 OD1       -47.1230   10.2905  -17.7905 O.co2     3 ASC3        0.0000 
     47 OD1       -46.7910   12.2450  -17.5070 O.co2    11 ASL3        0.0000 
     48 OD1       -47.3780    8.8910  -16.8720 O.co2     7 ASP3        0.0000 
     49 OD1       -47.8190    9.1870  -19.0010 O.co2     7 ASP3        0.0000 
     50 OD1       -45.3525   11.6580  -17.2735 O.co2     3 ASC3        0.0000 
     51 OD1       -43.9140   11.0710  -17.0400 O.co2     7 ASP3        0.0000 
     52 O         -47.1230   10.2905  -17.7905 O.2       1 ALC1        0.0000 
     53 O         -46.8680   11.6900  -18.7090 O.2       9 ALL1        0.0000 
     54 O         -47.3435   10.4385  -18.8550 O.2       1 ALC1        0.0000 
     55 O         -47.8190    9.1870  -19.0010 O.2       5 ALP1        0.0000 
     56 CA        -45.5803   17.8160   -3.5423 C.3       4 GLC5        0.0000 
     57 CA        -43.7760   17.3630   -2.9070 C.3       8 GLP5        0.0000 
     58 CA        -45.4168   15.2257   -7.1725 C.3       4 GLC5        0.0000 
     59 CA        -43.9150   13.9780   -6.8410 C.3       8 GLP5        0.0000 
     60 CA        -48.0339   19.9174   -5.5294 C.3       4 GLC5        0.0000 
     61 CA        -44.9053   18.2733   -4.2010 C.3       4 GLC5        0.0000 
     62 CA        -46.1580   19.4680   -4.8740 C.3      12 GLL5        0.0000 
     63 CA        -47.7570   15.9545  -10.9840 C.3       4 GLC5        0.0000 
     64 CA        -47.2205   14.9180  -13.6442 C.3       4 GLC5        0.0000 
     65 CA        -46.2130   14.2930  -11.7600 C.3      12 GLL5        0.0000 
     66 CA        -48.1490   15.9320  -14.9500 C.3       8 GLP5        0.0000 
     67 CA        -45.1238   12.6223  -11.2257 C.3       4 GLC5        0.0000 
     68 CA        -43.7530   11.3900  -10.3950 C.3       8 GLP5        0.0000 
     69 CA        -49.0120   13.6120  -13.3185 C.3       4 GLC5        0.0000 
     70 CA        -50.2520   14.7890  -14.2240 C.3       8 GLP5        0.0000 
     71 CA        -46.2925   11.4812  -10.9337 C.3       4 GLC5        0.0000 
     72 CA        -44.6940   10.1810  -10.3100 C.3       8 GLP5        0.0000 
@<TRIPOS>BOND
@<TRIPOS>SUBSTRUCTURE
     1 ALC1       43 GROUP        1 X    ALC  0     ROOT ALC X 1
     2 SEC2        1 GROUP        1 X    SEC  0     **** SEC X 2
     3 ASC3       46 GROUP        1 X    ASC  0     **** ASC X 3
     4 GLC5        4 GROUP        1 X    GLC  0     **** GLC X 6
     5 ALP1       45 GROUP        1 Y    ALP  0     ROOT ALP Y 8
     6 SEP2        3 GROUP        1 Y    SEP  0     **** SEP Y 9
     7 ASP3       48 GROUP        1 Y    ASP  0     **** ASP Y 10
     8 GLP5        6 GROUP        1 Y    GLP  0     **** GLP Y 13
     9 ALL1       44 GROUP        1 Z    ALL  0     ROOT ALL Z 15
    10 SEL2        2 GROUP        1 Z    SEL  0     **** SEL Z 16
    11 ASL3       47 GROUP        1 Z    ASL  0     **** ASL Z 17
    12 GLL5        5 GROUP        1 Z    GLL  0     **** GLL Z 20
@<TRIPOS>SET

