#    Name: 2xk9_XK9_1_ligand
#    Modification time : Tue Mar 25 06:08:56 2014

@<TRIPOS>MOLECULE
2xk9_XK9_1_ligand
   47    49     1     0     0
SMALL
NO_CHARGES


@<TRIPOS>ATOM
      1 O3        -49.4250   16.0170   -3.8370 O.2       1 XK91511     0.0000 
      2 N7        -48.5750   17.1210   -3.4920 N.pl3     1 XK91511     0.0000 
      3 O2        -48.6520   17.6130   -2.1630 O.2       1 XK91511     0.0000 
      4 C3        -47.7140   17.6810   -4.3580 C.ar      1 XK91511     0.0000 
      5 C2        -47.0550   18.8570   -3.9970 C.ar      1 XK91511     0.0000 
      6 C4        -47.4530   17.1090   -5.6020 C.ar      1 XK91511     0.0000 
      7 N1        -47.9290   16.0360   -6.2110 N.pl3     1 XK91511     0.0000 
      8 C8        -47.3310   15.9560   -7.4100 C.2       1 XK91511     0.0000 
      9 C7        -46.5060   16.9910   -7.5980 C.2       1 XK91511     0.0000 
     10 C5        -46.5510   17.7210   -6.4800 C.ar      1 XK91511     0.0000 
     11 C6        -45.9110   18.8990   -6.1160 C.ar      1 XK91511     0.0000 
     12 C1        -46.1580   19.4680   -4.8740 C.ar      1 XK91511     0.0000 
     13 C9        -47.6150   14.8550   -8.4340 C.2       1 XK91511     0.0000 
     14 O1        -48.5070   14.0330   -8.1960 O.2       1 XK91511     0.0000 
     15 N2        -46.8650   14.9010   -9.5530 N.am      1 XK91511     0.0000 
     16 C10       -47.0230   14.0950  -10.6320 C.ar      1 XK91511     0.0000 
     17 C15       -46.2130   14.2930  -11.7600 C.ar      1 XK91511     0.0000 
     18 C14       -46.3710   13.5150  -12.9170 C.ar      1 XK91511     0.0000 
     19 C13       -47.3700   12.5220  -12.9770 C.ar      1 XK91511     0.0000 
     20 C12       -48.1740   12.3480  -11.8490 C.ar      1 XK91511     0.0000 
     21 C11       -48.0100   13.1280  -10.7020 C.ar      1 XK91511     0.0000 
     22 C16       -47.5440   11.7410  -14.1270 C.2       1 XK91511     0.0000 
     23 C17       -48.1860   10.3650  -14.0960 C.3       1 XK91511     0.0000 
     24 N3        -47.1370   12.2310  -15.2950 N.2       1 XK91511     0.0000 
     25 N4        -47.2120   11.6260  -16.3830 N.pl3     1 XK91511     0.0000 
     26 C18       -46.7910   12.2450  -17.5070 C.cat     1 XK91511     0.0000 
     27 N6        -46.8680   11.6900  -18.7090 N.pl3     1 XK91511     0.0000 
     28 N5        -46.2840   13.4570  -17.4490 N.pl3     1 XK91511     0.0000 
     29 OBC       -45.8650   14.0680  -18.6050 O.3       1 XK91511     0.0000 
     30 H         -47.2328   19.2786   -3.0728 H         1 XK91511     0.0000 
     31 H         -48.5858   15.4167   -5.8667 H         1 XK91511     0.0000 
     32 H         -45.9844   17.1732   -8.3818 H         1 XK91511     0.0000 
     33 H         -45.2540   19.3495   -6.7671 H         1 XK91511     0.0000 
     34 H         -45.6837   20.3358   -4.5986 H         1 XK91511     0.0000 
     35 H         -46.0778   15.6341   -9.5968 H         1 XK91511     0.0000 
     36 H         -45.4853   15.0265  -11.7387 H         1 XK91511     0.0000 
     37 H         -45.7580   13.6672  -13.7249 H         1 XK91511     0.0000 
     38 H         -48.9139   11.6191  -11.8628 H         1 XK91511     0.0000 
     39 H         -48.6401   12.9756   -9.8942 H         1 XK91511     0.0000 
     40 H         -47.5901   10.6470  -16.4748 H         1 XK91511     0.0000 
     41 H         -47.2080   10.7500  -18.7387 H         1 XK91511     0.0000 
     42 H         -46.5791   12.2617  -19.4769 H         1 XK91511     0.0000 
     43 H         -46.1900   13.9701  -16.5494 H         1 XK91511     0.0000 
     44 H         -48.2256    9.9530  -15.0063 H         1 XK91511     0.0000 
     45 H         -47.6801    9.7323  -13.5097 H         1 XK91511     0.0000 
     46 H         -49.1233   10.4002  -13.7492 H         1 XK91511     0.0000 
     47 H         -44.8997   14.2788  -18.4509 H         1 XK91511     0.0000 
@<TRIPOS>BOND
     1    2    1 2    
     2    3    2 2    
     3    4    2 1    
     4    5    4 ar   
     5    6    4 ar   
     6   12    5 ar   
     7   30    5 1    
     8    7    6 1    
     9   10    6 ar   
    10    8    7 1    
    11   31    7 1    
    12    9    8 2    
    13   13    8 1    
    14   10    9 1    
    15   32    9 1    
    16   11   10 ar   
    17   12   11 ar   
    18   33   11 1    
    19   34   12 1    
    20   14   13 2    
    21   15   13 am   
    22   16   15 1    
    23   35   15 1    
    24   17   16 ar   
    25   21   16 ar   
    26   18   17 ar   
    27   36   17 1    
    28   19   18 ar   
    29   37   18 1    
    30   20   19 ar   
    31   22   19 1    
    32   21   20 ar   
    33   38   20 1    
    34   39   21 1    
    35   23   22 1    
    36   24   22 2    
    37   44   23 1    
    38   45   23 1    
    39   46   23 1    
    40   25   24 1    
    41   26   25 ar   
    42   40   25 1    
    43   27   26 ar   
    44   28   26 ar   
    45   41   27 1    
    46   42   27 1    
    47   29   28 1    
    48   43   28 1    
    49   47   29 1    
@<TRIPOS>SUBSTRUCTURE
     1 XK91511     1 GROUP   
@<TRIPOS>SET

