#    Name: 3mtg_NAD_1_INTS_M
#    Modification time : Mon Mar 24 23:41:33 2014

@<TRIPOS>MOLECULE
3mtg_NAD_1_INTS_M
   78     0     9     0     0
SMALL
NO_CHARGES


@<TRIPOS>ATOM
      1 N          35.8780   41.6745  -30.5255 N.am      2 SEC2        0.0000 
      2 N          37.3030   42.0810  -29.9740 N.am      8 SEL2        0.0000 
      3 N          34.4530   41.2680  -31.0770 N.am      5 SEP2        0.0000 
      4 N          37.6720   42.0755  -31.1930 N.am      2 SEC2        0.0000 
      5 N          38.0410   42.0700  -32.4120 N.am      5 SEP2        0.0000 
      6 CA         34.3995   47.6575  -30.0070 C.3       3 GLC5        0.0000 
      7 CA         36.2400   46.5760  -29.6990 C.3       9 GLL5        0.0000 
      8 CA         32.5590   48.7390  -30.3150 C.3       6 GLP5        0.0000 
      9 N          38.3225   46.2615  -32.4930 N.am      2 SEC2        0.0000 
     10 N          37.0450   46.4440  -31.9560 N.am      8 SEL2        0.0000 
     11 N          39.6000   46.0790  -33.0300 N.am      5 SEP2        0.0000 
     12 O          36.1370   47.3165  -32.4705 O.2       1 ALC1        0.0000 
     13 O          37.0450   46.4440  -31.9560 O.2       7 ALL1        0.0000 
     14 O          35.2290   48.1890  -32.9850 O.2       4 ALP1        0.0000 
     15 O          36.6055   48.5600  -32.3685 O.2       1 ALC1        0.0000 
     16 O          37.9820   48.9310  -31.7520 O.2       7 ALL1        0.0000 
     17 O          37.1635   49.4920  -32.5485 O.2       1 ALC1        0.0000 
     18 O          36.3450   50.0530  -33.3450 O.2       4 ALP1        0.0000 
     19 CA         34.4660   48.7915  -30.1265 C.3       3 GLC5        0.0000 
     20 CA         36.3730   48.8440  -29.9380 C.3       9 GLL5        0.0000 
     21 CA         35.5710   48.4975  -27.9535 C.3       3 GLC5        0.0000 
     22 CA         34.7690   48.1510  -25.9690 C.3       6 GLP5        0.0000 
     23 N          37.8950   52.3905  -26.5985 N.am      2 SEC2        0.0000 
     24 N          37.3190   51.6160  -27.7530 N.am      8 SEL2        0.0000 
     25 N          38.4710   53.1650  -25.4440 N.am      5 SEP2        0.0000 
     26 CA         36.7380   53.9440  -29.4505 C.3       3 GLC5        0.0000 
     27 CA         35.5640   53.3450  -28.2020 C.3       9 GLL5        0.0000 
     28 CA         37.9120   54.5430  -30.6990 C.3       6 GLP5        0.0000 
     29 CA         34.8110   53.3440  -26.2095 C.3       3 GLC5        0.0000 
     30 CA         34.0580   53.3430  -24.2170 C.3       6 GLP5        0.0000 
     31 CA         33.2580   50.7130  -30.0885 C.3       3 GLC5        0.0000 
     32 CA         33.9570   52.6870  -29.8620 C.3       9 GLL5        0.0000 
     33 CA         32.1840   53.5280  -30.7845 C.3       3 GLC5        0.0000 
     34 CA         30.4110   54.3690  -31.7070 C.3       6 GLP5        0.0000 
     35 CA         34.0790   52.5425  -31.6725 C.3       3 GLC5        0.0000 
     36 CA         34.2010   52.3980  -33.4830 C.3       6 GLP5        0.0000 
     37 CA         35.9345   53.6150  -30.2805 C.3       3 GLC5        0.0000 
     38 CA         33.7415   51.4785  -28.2190 C.3       3 GLC5        0.0000 
     39 CA         33.5260   50.2700  -26.5760 C.3       6 GLP5        0.0000 
     40 CA         34.1345   49.9645  -29.7770 C.3       3 GLC5        0.0000 
     41 CA         35.7100   51.1900  -29.2390 C.3       9 GLL5        0.0000 
     42 N          33.3300   41.7440  -28.7215 N.am      2 SEC2        0.0000 
     43 N          34.4720   42.5400  -28.1120 N.am      8 SEL2        0.0000 
     44 N          32.1880   40.9480  -29.3310 N.am      5 SEP2        0.0000 
     45 CA         33.5580   42.1650  -25.8545 C.3       3 GLC5        0.0000 
     46 CA         35.1230   43.6000  -25.3510 C.3       9 GLL5        0.0000 
     47 CA         31.9930   40.7300  -26.3580 C.3       6 GLP5        0.0000 
     48 CA         33.7865   44.3085  -22.9435 C.3       3 GLC5        0.0000 
     49 CA         35.2870   43.6880  -23.8310 C.3       9 GLL5        0.0000 
     50 CA         32.2860   44.9290  -22.0560 C.3       6 GLP5        0.0000 
     51 CA         33.5470   43.4005  -22.2610 C.3       3 GLC5        0.0000 
     52 CA         34.8080   41.8720  -22.4660 C.3       9 GLL5        0.0000 
     53 CA         32.4725   42.7870  -22.3760 C.3       3 GLC5        0.0000 
     54 CA         32.6590   40.6450  -22.6960 C.3       9 GLL5        0.0000 
     55 O          30.1425   41.7045  -23.0755 O.2       1 ALC1        0.0000 
     56 O          29.7470   40.4790  -23.1280 O.2       7 ALL1        0.0000 
     57 O          30.5380   42.9300  -23.0230 O.2       4 ALP1        0.0000 
     58 CA         31.8535   36.3020  -23.0775 C.3       3 GLC5        0.0000 
     59 CA         32.6090   38.2330  -22.5140 C.3       9 GLL5        0.0000 
     60 CA         31.0980   34.3710  -23.6410 C.3       6 GLP5        0.0000 
     61 CA         35.6000   47.1135  -27.5700 C.3       3 GLC5        0.0000 
     62 CA         35.8395   44.9982  -30.9352 C.3       3 GLC5        0.0000 
     63 CA         36.6220   45.5760  -28.6430 C.3       9 GLL5        0.0000 
     64 CA         34.7540   43.5520  -31.9660 C.3       6 GLP5        0.0000 
     65 CA         39.0763   46.6947  -31.2733 C.3       3 GLC5        0.0000 
     66 CA         37.4190   46.8130  -30.6380 C.3       9 GLL5        0.0000 
     67 CA         40.6030   45.8250  -31.9700 C.3       6 GLP5        0.0000 
     68 CA         37.9168   50.3820  -30.6532 C.3       3 GLC5        0.0000 
     69 CA         37.6800   48.3160  -30.5150 C.3       9 GLL5        0.0000 
     70 CA         38.8070   52.1840  -31.0800 C.3       6 GLP5        0.0000 
     71 CA         37.3867   51.9240  -29.9402 C.3       3 GLC5        0.0000 
     72 CA         34.6639   51.1179  -27.6683 C.3       3 GLC5        0.0000 
     73 CA         36.2230   52.1380  -28.3620 C.3       9 GLL5        0.0000 
     74 CA         36.4522   45.2480  -23.2852 C.3       3 GLC5        0.0000 
     75 CA         36.9570   47.1110  -22.9690 C.3       6 GLP5        0.0000 
     76 CA         32.1470   40.3870  -24.5293 C.3       3 GLC5        0.0000 
     77 CA         31.4695   40.5135  -21.0873 C.3       3 GLC5        0.0000 
     78 CA         30.6380   40.9830  -19.4740 C.3       6 GLP5        0.0000 
@<TRIPOS>BOND
@<TRIPOS>SUBSTRUCTURE
     1 ALC1       12 GROUP        1 X    ALC  0     ROOT ALC X 1
     2 SEC2        1 GROUP        1 X    SEC  0     **** SEC X 2
     3 GLC5        6 GROUP        1 X    GLC  0     **** GLC X 6
     4 ALP1       14 GROUP        1 Y    ALP  0     ROOT ALP Y 8
     5 SEP2        3 GROUP        1 Y    SEP  0     **** SEP Y 9
     6 GLP5        8 GROUP        1 Y    GLP  0     **** GLP Y 13
     7 ALL1       13 GROUP        1 Z    ALL  0     ROOT ALL Z 15
     8 SEL2        2 GROUP        1 Z    SEL  0     **** SEL Z 16
     9 GLL5        7 GROUP        1 Z    GLL  0     **** GLL Z 20
@<TRIPOS>SET

