#    Name: 3mtg_NAD_1_ligand
#    Modification time : Mon Mar 24 23:41:33 2014

@<TRIPOS>MOLECULE
3mtg_NAD_1_ligand
   70    74     1     0     0
SMALL
NO_CHARGES


@<TRIPOS>ATOM
      1 PA         37.3830   43.1170  -28.9150 P.3       1 NAD1        0.0000 
      2 O1A        38.7540   43.6470  -28.7580 O.co2     1 NAD1        0.0000 
      3 O2A        37.3030   42.0810  -29.9740 O.co2     1 NAD1        0.0000 
      4 O5B        36.4280   44.3410  -29.2450 O.3       1 NAD1        0.0000 
      5 C5B        36.6220   45.5760  -28.6430 C.3       1 NAD1        0.0000 
      6 C4B        36.2400   46.5760  -29.6990 C.3       1 NAD1        0.0000 
      7 O4B        35.9270   47.8030  -29.0880 O.3       1 NAD1        0.0000 
      8 C3B        37.4190   46.8130  -30.6380 C.3       1 NAD1        0.0000 
      9 O3B        37.0450   46.4440  -31.9560 O.3       1 NAD1        0.0000 
     10 C2B        37.6800   48.3160  -30.5150 C.3       1 NAD1        0.0000 
     11 O2B        37.9820   48.9310  -31.7520 O.3       1 NAD1        0.0000 
     12 C1B        36.3730   48.8440  -29.9380 C.3       1 NAD1        0.0000 
     13 N9A        36.5460   50.0990  -29.1820 N.pl3     1 NAD1        0.0000 
     14 C8A        37.5280   50.3650  -28.2410 C.2       1 NAD1        0.0000 
     15 N7A        37.3190   51.6160  -27.7530 N.2       1 NAD1        0.0000 
     16 C5A        36.2230   52.1380  -28.3620 C.ar      1 NAD1        0.0000 
     17 C6A        35.5640   53.3450  -28.2020 C.ar      1 NAD1        0.0000 
     18 N6A        35.7640   53.9910  -27.0610 N.pl3     1 NAD1        0.0000 
     19 N1A        34.4260   53.6200  -28.9460 N.ar      1 NAD1        0.0000 
     20 C2A        33.9570   52.6870  -29.8620 C.ar      1 NAD1        0.0000 
     21 N3A        34.6170   51.4760  -29.9890 N.ar      1 NAD1        0.0000 
     22 C4A        35.7100   51.1900  -29.2390 C.ar      1 NAD1        0.0000 
     23 O3         36.9070   42.4800  -27.5250 O.3       1 NAD1        0.0000 
     24 PN         35.4710   41.8170  -27.2800 P.3       1 NAD1        0.0000 
     25 O1N        35.5980   40.3370  -27.2790 O.co2     1 NAD1        0.0000 
     26 O2N        34.4720   42.5400  -28.1120 O.co2     1 NAD1        0.0000 
     27 O5D        35.1960   42.2410  -25.7520 O.3       1 NAD1        0.0000 
     28 C5D        35.1230   43.6000  -25.3510 C.3       1 NAD1        0.0000 
     29 C4D        35.2870   43.6880  -23.8310 C.3       1 NAD1        0.0000 
     30 O4D        34.2650   42.9040  -23.2560 O.3       1 NAD1        0.0000 
     31 C3D        36.6080   43.0820  -23.3720 C.3       1 NAD1        0.0000 
     32 O3D        37.0760   43.7990  -22.2480 O.3       1 NAD1        0.0000 
     33 C2D        36.2260   41.6780  -22.9550 C.3       1 NAD1        0.0000 
     34 O2D        37.0340   41.1690  -21.9180 O.3       1 NAD1        0.0000 
     35 C1D        34.8080   41.8720  -22.4660 C.3       1 NAD1        0.0000 
     36 N1N        34.0220   40.6190  -22.5140 N.pl3     1 NAD1        0.0000 
     37 C2N        32.6590   40.6450  -22.6960 C.ar      1 NAD1        0.0000 
     38 C3N        31.9430   39.4430  -22.7050 C.ar      1 NAD1        0.0000 
     39 C7N        30.4530   39.3910  -22.8250 C.2       1 NAD1        0.0000 
     40 O7N        29.8440   38.1400  -22.6280 O.2       1 NAD1        0.0000 
     41 N7N        29.7470   40.4790  -23.1280 N.am      1 NAD1        0.0000 
     42 C4N        32.6090   38.2330  -22.5140 C.ar      1 NAD1        0.0000 
     43 C5N        33.9810   38.2230  -22.3100 C.ar      1 NAD1        0.0000 
     44 C6N        34.6720   39.4290  -22.2940 C.ar      1 NAD1        0.0000 
     45 H          37.6545   45.7539  -28.3673 H         1 NAD1        0.0000 
     46 H          35.9817   45.7319  -27.7830 H         1 NAD1        0.0000 
     47 H          35.4249   46.1929  -30.2738 H         1 NAD1        0.0000 
     48 H          38.2528   46.2905  -30.2590 H         1 NAD1        0.0000 
     49 H          38.4360   48.4517  -29.7669 H         1 NAD1        0.0000 
     50 H          35.6881   48.9796  -30.7561 H         1 NAD1        0.0000 
     51 H          38.2250   49.7624  -27.9896 H         1 NAD1        0.0000 
     52 H          35.3230   54.8847  -26.9782 H         1 NAD1        0.0000 
     53 H          36.3377   53.5260  -26.3868 H         1 NAD1        0.0000 
     54 H          33.1343   52.8935  -30.4347 H         1 NAD1        0.0000 
     55 H          34.1597   44.0539  -25.6063 H         1 NAD1        0.0000 
     56 H          35.9140   44.2066  -25.8044 H         1 NAD1        0.0000 
     57 H          35.2345   44.6981  -23.5268 H         1 NAD1        0.0000 
     58 H          37.2665   43.0437  -24.1768 H         1 NAD1        0.0000 
     59 H          36.1881   41.0683  -23.8240 H         1 NAD1        0.0000 
     60 H          34.8864   42.2083  -21.4211 H         1 NAD1        0.0000 
     61 H          32.1616   41.5326  -22.8250 H         1 NAD1        0.0000 
     62 H          30.2733   41.3129  -23.2943 H         1 NAD1        0.0000 
     63 H          28.7542   40.3640  -23.1619 H         1 NAD1        0.0000 
     64 H          32.0811   37.3513  -22.5249 H         1 NAD1        0.0000 
     65 H          34.4792   37.3400  -22.1729 H         1 NAD1        0.0000 
     66 H          35.6939   39.4227  -22.1125 H         1 NAD1        0.0000 
     67 H          36.3886   47.1415  -32.2435 H         1 NAD1        0.0000 
     68 H          37.1101   49.2951  -32.0796 H         1 NAD1        0.0000 
     69 H          37.3896   43.0987  -21.6067 H         1 NAD1        0.0000 
     70 H          36.4195   41.0725  -21.1349 H         1 NAD1        0.0000 
@<TRIPOS>BOND
     1    2    1 ar   
     2    3    1 ar   
     3    4    1 1    
     4   23    1 1    
     5    5    4 1    
     6    6    5 1    
     7   45    5 1    
     8   46    5 1    
     9    7    6 1    
    10    8    6 1    
    11   47    6 1    
    12   12    7 1    
    13    9    8 1    
    14   10    8 1    
    15   48    8 1    
    16   67    9 1    
    17   11   10 1    
    18   12   10 1    
    19   49   10 1    
    20   68   11 1    
    21   13   12 1    
    22   50   12 1    
    23   14   13 1    
    24   22   13 1    
    25   15   14 2    
    26   51   14 1    
    27   16   15 1    
    28   17   16 ar   
    29   22   16 ar   
    30   18   17 1    
    31   19   17 ar   
    32   52   18 1    
    33   53   18 1    
    34   20   19 ar   
    35   21   20 ar   
    36   54   20 1    
    37   22   21 ar   
    38   24   23 1    
    39   25   24 ar   
    40   26   24 ar   
    41   27   24 1    
    42   28   27 1    
    43   29   28 1    
    44   55   28 1    
    45   56   28 1    
    46   30   29 1    
    47   31   29 1    
    48   57   29 1    
    49   35   30 1    
    50   32   31 1    
    51   33   31 1    
    52   58   31 1    
    53   69   32 1    
    54   34   33 1    
    55   35   33 1    
    56   59   33 1    
    57   70   34 1    
    58   36   35 1    
    59   60   35 1    
    60   37   36 ar   
    61   44   36 ar   
    62   38   37 ar   
    63   61   37 1    
    64   39   38 1    
    65   42   38 ar   
    66   40   39 2    
    67   41   39 am   
    68   62   41 1    
    69   63   41 1    
    70   43   42 ar   
    71   64   42 1    
    72   44   43 ar   
    73   65   43 1    
    74   66   44 1    
@<TRIPOS>SUBSTRUCTURE
     1 NAD1        1 GROUP   
@<TRIPOS>SET

