#    Name: 4dan_2FA_1_INTS_M
#    Modification time : Mon Apr  7 22:27:34 2014

@<TRIPOS>MOLECULE
4dan_2FA_1_INTS_M
   55     0     9     0     0
SMALL
NO_CHARGES


@<TRIPOS>ATOM
      1 O          42.1745   29.5545   23.0870 O.2       1 ALC1        0.0000 
      2 O          41.7990   30.6510   22.7260 O.2       7 ALL1        0.0000 
      3 O          42.5500   28.4580   23.4480 O.2       4 ALP1        0.0000 
      4 CA         43.8035   31.8035   23.5340 C.3       3 GLC5        0.0000 
      5 CA         42.6410   31.6290   22.0980 C.3       9 GLL5        0.0000 
      6 CA         44.9660   31.9780   24.9700 C.3       6 GLP5        0.0000 
      7 CA         44.6480   31.9210   21.1465 C.3       3 GLC5        0.0000 
      8 CA         46.6550   32.2130   20.1950 C.3       6 GLP5        0.0000 
      9 CA         42.2465   29.4820   22.5875 C.3       3 GLC5        0.0000 
     10 CA         41.8520   27.3350   23.0770 C.3       6 GLP5        0.0000 
     11 CA         44.3440   36.4085   22.0655 C.3       3 GLC5        0.0000 
     12 CA         43.4190   35.0840   23.4200 C.3       9 GLL5        0.0000 
     13 CA         45.2690   37.7330   20.7110 C.3       6 GLP5        0.0000 
     14 CA         48.8070   35.5345   22.1950 C.3       3 GLC5        0.0000 
     15 CA         47.0070   34.9960   23.3140 C.3       9 GLL5        0.0000 
     16 CA         50.6070   36.0730   21.0760 C.3       6 GLP5        0.0000 
     17 CA         46.5140   33.3605   23.7215 C.3       3 GLC5        0.0000 
     18 CA         46.0210   31.7250   24.1290 C.3       6 GLP5        0.0000 
     19 CA         45.7845   37.2145   25.5560 C.3       3 GLC5        0.0000 
     20 CA         44.3680   35.5800   25.5980 C.3       9 GLL5        0.0000 
     21 CA         47.2010   38.8490   25.5140 C.3       6 GLP5        0.0000 
     22 O          43.3800   36.2595   28.1530 O.2       1 ALC1        0.0000 
     23 O          44.2650   35.8900   26.9110 O.2       7 ALL1        0.0000 
     24 O          42.4950   36.6290   29.3950 O.2       4 ALP1        0.0000 
     25 N          40.9625   36.0045   25.7380 N.am      2 SEC2        0.0000 
     26 N          41.9160   35.4920   24.9880 N.am      8 SEL2        0.0000 
     27 N          40.0090   36.5170   26.4880 N.am      5 SEP2        0.0000 
     28 CA         44.8405   34.2070   20.0635 C.3       3 GLC5        0.0000 
     29 CA         42.8710   34.4790   20.4490 C.3       9 GLL5        0.0000 
     30 CA         46.8100   33.9350   19.6780 C.3       6 GLP5        0.0000 
     31 N          44.1605   35.8510   18.9750 N.am      2 SEC2        0.0000 
     32 N          42.6610   35.2770   19.3030 N.am      8 SEL2        0.0000 
     33 N          45.6600   36.4250   18.6470 N.am      5 SEP2        0.0000 
     34 N          42.7350   35.5325   17.9950 N.am      2 SEC2        0.0000 
     35 N          42.8090   35.7880   16.6870 N.am      5 SEP2        0.0000 
     36 CA         44.7415   32.6245   20.1100 C.3       3 GLC5        0.0000 
     37 CA         42.8280   33.0360   20.0250 C.3       9 GLL5        0.0000 
     38 O          42.8375   33.2885   17.6305 O.2       1 ALC1        0.0000 
     39 O          42.3300   32.9340   18.6980 O.2       7 ALL1        0.0000 
     40 O          43.3450   33.6430   16.5630 O.2       4 ALP1        0.0000 
     41 CA         42.4398   30.2145   20.5808 C.3       3 GLC5        0.0000 
     42 CA         41.8860   32.3510   20.9850 C.3       9 GLL5        0.0000 
     43 CA         42.6160   28.4390   19.6200 C.3       6 GLP5        0.0000 
     44 CA         43.1500   36.4587   20.5708 C.3       3 GLC5        0.0000 
     45 CA         43.9820   38.3510   20.1820 C.3       6 GLP5        0.0000 
     46 CA         42.4802   37.1455   23.8270 C.3       3 GLC5        0.0000 
     47 CA         41.6260   39.0400   23.5590 C.3       6 GLP5        0.0000 
     48 CA         47.4537   36.6273   23.5140 C.3       3 GLC5        0.0000 
     49 CA         45.7600   35.1250   23.7760 C.3       9 GLL5        0.0000 
     50 CA         48.5240   38.1940   23.4830 C.3       6 GLP5        0.0000 
     51 CA         45.8263   36.3967   22.1280 C.3       3 GLC5        0.0000 
     52 CA         46.5968   34.4978   21.6115 C.3       3 GLC5        0.0000 
     53 CA         43.5515   37.2615   26.0675 C.3       3 GLC5        0.0000 
     54 CA         43.2500   35.4180   24.7700 C.3       9 GLL5        0.0000 
     55 CA         43.2940   39.0240   26.9510 C.3       6 GLP5        0.0000 
@<TRIPOS>BOND
@<TRIPOS>SUBSTRUCTURE
     1 ALC1        1 GROUP        1 X    ALC  0     ROOT ALC X 1
     2 SEC2       25 GROUP        1 X    SEC  0     **** SEC X 2
     3 GLC5        4 GROUP        1 X    GLC  0     **** GLC X 6
     4 ALP1        3 GROUP        1 Y    ALP  0     ROOT ALP Y 8
     5 SEP2       27 GROUP        1 Y    SEP  0     **** SEP Y 9
     6 GLP5        6 GROUP        1 Y    GLP  0     **** GLP Y 13
     7 ALL1        2 GROUP        1 Z    ALL  0     ROOT ALL Z 15
     8 SEL2       26 GROUP        1 Z    SEL  0     **** SEL Z 16
     9 GLL5        5 GROUP        1 Z    GLL  0     **** GLL Z 20
@<TRIPOS>SET

