#    Name: 4dan_2FA_1_ligand
#    Modification time : Mon Apr  7 22:27:34 2014

@<TRIPOS>MOLECULE
4dan_2FA_1_ligand
   32    34     1     0     0
SMALL
NO_CHARGES


@<TRIPOS>ATOM
      1 O5'        41.7990   30.6510   22.7260 O.3       1 2FA301      0.0000 
      2 C5'        42.6410   31.6290   22.0980 C.3       1 2FA301      0.0000 
      3 C4'        41.8860   32.3510   20.9850 C.3       1 2FA301      0.0000 
      4 O4'        41.0940   33.3980   21.5300 O.3       1 2FA301      0.0000 
      5 C1'        41.7650   34.6540   21.4700 C.3       1 2FA301      0.0000 
      6 N9         42.1890   34.9690   22.8630 N.pl3     1 2FA301      0.0000 
      7 C4         43.4190   35.0840   23.4200 C.ar      1 2FA301      0.0000 
      8 N3         44.6940   34.9540   22.9530 N.ar      1 2FA301      0.0000 
      9 C2         45.7600   35.1250   23.7760 C.ar      1 2FA301      0.0000 
     10 F          47.0070   34.9960   23.3140 F         1 2FA301      0.0000 
     11 N1         45.6010   35.4350   25.0790 N.ar      1 2FA301      0.0000 
     12 C6         44.3680   35.5800   25.5980 C.ar      1 2FA301      0.0000 
     13 N6         44.2650   35.8900   26.9110 N.pl3     1 2FA301      0.0000 
     14 C5         43.2500   35.4180   24.7700 C.ar      1 2FA301      0.0000 
     15 N7         41.9160   35.4920   24.9880 N.2       1 2FA301      0.0000 
     16 C8         41.2830   35.2150   23.8200 C.2       1 2FA301      0.0000 
     17 C2'        42.8710   34.4790   20.4490 C.3       1 2FA301      0.0000 
     18 O2'        42.6610   35.2770   19.3030 O.3       1 2FA301      0.0000 
     19 C3'        42.8280   33.0360   20.0250 C.3       1 2FA301      0.0000 
     20 O3'        42.3300   32.9340   18.6980 O.3       1 2FA301      0.0000 
     21 H          43.5332   31.1664   21.6539 H         1 2FA301      0.0000 
     22 H          42.9845   32.3855   22.8169 H         1 2FA301      0.0000 
     23 H          41.2885   31.6539   20.4442 H         1 2FA301      0.0000 
     24 H          41.0762   35.4054   21.1154 H         1 2FA301      0.0000 
     25 H          45.1246   35.9447   27.4190 H         1 2FA301      0.0000 
     26 H          43.3384   36.0370   27.2570 H         1 2FA301      0.0000 
     27 H          40.3161   35.1996   23.7042 H         1 2FA301      0.0000 
     28 H          43.8091   34.6625   20.9189 H         1 2FA301      0.0000 
     29 H          43.7977   32.6145   20.1377 H         1 2FA301      0.0000 
     30 H          42.4139   30.1110   23.3007 H         1 2FA301      0.0000 
     31 H          41.7050   35.5649   19.3599 H         1 2FA301      0.0000 
     32 H          43.0456   33.3292   18.1220 H         1 2FA301      0.0000 
@<TRIPOS>BOND
     1    2    1 1    
     2   30    1 1    
     3    3    2 1    
     4   21    2 1    
     5   22    2 1    
     6    4    3 1    
     7   19    3 1    
     8   23    3 1    
     9    5    4 1    
    10    6    5 1    
    11   17    5 1    
    12   24    5 1    
    13    7    6 1    
    14   16    6 1    
    15    8    7 ar   
    16   14    7 ar   
    17    9    8 ar   
    18   10    9 1    
    19   11    9 ar   
    20   12   11 ar   
    21   13   12 1    
    22   14   12 ar   
    23   25   13 1    
    24   26   13 1    
    25   15   14 1    
    26   16   15 2    
    27   27   16 1    
    28   18   17 1    
    29   19   17 1    
    30   28   17 1    
    31   31   18 1    
    32   20   19 1    
    33   29   19 1    
    34   32   20 1    
@<TRIPOS>SUBSTRUCTURE
     1 2FA301      1 GROUP   
@<TRIPOS>SET

