#    Name: 3ion_8H1_1_INTS_M
#    Modification time : Tue Mar 25 17:02:00 2014

@<TRIPOS>MOLECULE
3ion_8H1_1_INTS_M
   94     0    12     0     0
SMALL
NO_CHARGES


@<TRIPOS>ATOM
      1 CA        -35.1980  -21.6410    4.1865 C.3       4 GLC5        0.0000 
      2 CA        -35.0370  -22.3930    5.9140 C.3      12 GLL5        0.0000 
      3 CA        -35.3590  -20.8890    2.4590 C.3       8 GLP5        0.0000 
      4 N         -34.8740  -29.9520    2.0360 N.am      2 SEC2        0.0000 
      5 N         -34.4540  -29.6610    3.3940 N.am     10 SEL2        0.0000 
      6 N         -35.2940  -30.2430    0.6780 N.am      6 SEP2        0.0000 
      7 N         -29.2230  -27.1220    4.3745 N.am      2 SEC2        0.0000 
      8 N         -30.6630  -27.0070    4.8390 N.am     10 SEL2        0.0000 
      9 N         -27.7830  -27.2370    3.9100 N.am      6 SEP2        0.0000 
     10 O         -30.8975  -30.6695    3.5475 O.2       1 ALC1        0.0000 
     11 O         -32.3170  -30.6120    3.2520 O.2       9 ALL1        0.0000 
     12 O         -29.4780  -30.7270    3.8430 O.2       5 ALP1        0.0000 
     13 N         -39.4500  -31.4740    3.8590 N.am      2 SEC2        0.0000 
     14 N         -38.5570  -30.5610    3.3110 N.am     10 SEL2        0.0000 
     15 N         -40.3430  -32.3870    4.4070 N.am      6 SEP2        0.0000 
     16 OD1       -41.7690  -26.7400    0.8340 O.co2     3 ASC3        0.0000 
     17 OD1       -41.6680  -25.4180    1.7380 O.co2    11 ASL3        0.0000 
     18 OD1       -41.8700  -28.0620   -0.0700 O.co2     7 ASP3        0.0000 
     19 O         -40.8480  -25.3990    0.5560 O.2       1 ALC1        0.0000 
     20 O         -41.6680  -25.4180    1.7380 O.2       9 ALL1        0.0000 
     21 O         -40.0280  -25.3800   -0.6260 O.2       5 ALP1        0.0000 
     22 O         -41.7690  -26.7400    0.8340 O.2       1 ALC1        0.0000 
     23 O         -41.8700  -28.0620   -0.0700 O.2       5 ALP1        0.0000 
     24 CA        -34.0250  -26.1530    2.8890 C.3       4 GLC5        0.0000 
     25 CA        -34.8150  -27.4400    4.2250 C.3      12 GLL5        0.0000 
     26 CA        -33.2350  -24.8660    1.5530 C.3       8 GLP5        0.0000 
     27 CA        -33.7080  -27.8430    2.3635 C.3       4 GLC5        0.0000 
     28 CA        -35.3010  -28.6440    3.7030 C.3      12 GLL5        0.0000 
     29 CA        -32.1150  -27.0420    1.0240 C.3       8 GLP5        0.0000 
     30 CA        -33.7910  -31.4950    3.7285 C.3       4 GLC5        0.0000 
     31 CA        -33.1210  -29.5250    3.5950 C.3      12 GLL5        0.0000 
     32 CA        -34.4610  -33.4650    3.8620 C.3       8 GLP5        0.0000 
     33 CA        -34.0335  -29.3925    1.6460 C.3       4 GLC5        0.0000 
     34 CA        -34.9460  -29.2600   -0.3030 C.3       8 GLP5        0.0000 
     35 CA        -29.3260  -28.7250    4.7245 C.3       4 GLC5        0.0000 
     36 CA        -31.2080  -28.1310    4.3410 C.3      12 GLL5        0.0000 
     37 CA        -27.4440  -29.3190    5.1080 C.3       8 GLP5        0.0000 
     38 CA        -29.9035  -27.0525    3.1585 C.3       4 GLC5        0.0000 
     39 CA        -28.5990  -25.9740    1.9760 C.3       8 GLP5        0.0000 
     40 CA        -31.5240  -24.1835    8.0230 C.3       4 GLC5        0.0000 
     41 CA        -31.5980  -23.6940    6.0280 C.3      12 GLL5        0.0000 
     42 CA        -31.4500  -24.6730   10.0180 C.3       8 GLP5        0.0000 
     43 CA        -30.5805  -23.5755    8.4985 C.3       4 GLC5        0.0000 
     44 CA        -29.7110  -22.4780    6.9790 C.3      12 GLL5        0.0000 
     45 CA        -28.7845  -24.2145    7.4665 C.3       4 GLC5        0.0000 
     46 CA        -27.8580  -25.9510    7.9540 C.3       8 GLP5        0.0000 
     47 CA        -30.1525  -21.8475    5.1450 C.3       4 GLC5        0.0000 
     48 CA        -30.5940  -21.2170    3.3110 C.3       8 GLP5        0.0000 
     49 CA        -35.8615  -31.8400    3.6930 C.3       4 GLC5        0.0000 
     50 CA        -37.2620  -30.2150    3.5240 C.3      12 GLL5        0.0000 
     51 CA        -38.1630  -30.3130    1.4660 C.3       4 GLC5        0.0000 
     52 CA        -39.0640  -30.4110   -0.5920 C.3       8 GLP5        0.0000 
     53 CA        -40.2540  -23.1575    2.1315 C.3       4 GLC5        0.0000 
     54 CA        -40.7970  -25.0130    2.8860 C.3      12 GLL5        0.0000 
     55 CA        -39.7110  -21.3020    1.3770 C.3       8 GLP5        0.0000 
     56 CA        -41.5615  -30.7615    7.3270 C.3       4 GLC5        0.0000 
     57 CA        -41.1470  -28.8050    6.4410 C.3      12 GLL5        0.0000 
     58 CA        -41.9760  -32.7180    8.2130 C.3       8 GLP5        0.0000 
     59 CA        -33.5048  -24.9593    7.4865 C.3       4 GLC5        0.0000 
     60 CA        -33.6080  -24.8720    5.3540 C.3      12 GLL5        0.0000 
     61 CA        -33.7080  -25.6250    9.3620 C.3       8 GLP5        0.0000 
     62 CA        -33.2682  -24.5798    3.5820 C.3       4 GLC5        0.0000 
     63 CA        -32.9950  -23.7150    5.8680 C.3      12 GLL5        0.0000 
     64 CA        -32.6983  -25.4363    3.3093 C.3       4 GLC5        0.0000 
     65 CA        -31.4610  -25.9820    5.1510 C.3      12 GLL5        0.0000 
     66 CA        -34.4938  -28.4303    6.1580 C.3       4 GLC5        0.0000 
     67 CA        -33.4300  -27.2490    4.4470 C.3      12 GLL5        0.0000 
     68 CA        -34.8650  -29.5160    7.9800 C.3       8 GLP5        0.0000 
     69 CA        -35.2955  -27.9670    2.0280 C.3       4 GLC5        0.0000 
     70 CA        -35.5330  -27.8920    0.0920 C.3       8 GLP5        0.0000 
     71 CA        -31.5399  -29.4724    5.5211 C.3       4 GLC5        0.0000 
     72 CA        -31.0520  -30.4150    6.9420 C.3       8 GLP5        0.0000 
     73 CA        -32.1249  -27.7182    2.5823 C.3       4 GLC5        0.0000 
     74 CA        -29.8792  -25.6900    3.6920 C.3       4 GLC5        0.0000 
     75 CA        -31.5589  -26.1731    7.1586 C.3       4 GLC5        0.0000 
     76 CA        -30.8580  -24.8300    5.6650 C.3      12 GLL5        0.0000 
     77 CA        -31.6080  -26.9280    8.9520 C.3       8 GLP5        0.0000 
     78 CA        -31.0856  -22.7421    4.5587 C.3       4 GLC5        0.0000 
     79 CA        -39.3089  -28.9216    1.2631 C.3       4 GLC5        0.0000 
     80 CA        -39.4080  -29.5540    3.0250 C.3      12 GLL5        0.0000 
     81 CA        -39.7390  -29.0300   -0.5060 C.3       8 GLP5        0.0000 
     82 CA        -36.9370  -29.7821    5.4567 C.3       4 GLC5        0.0000 
     83 CA        -37.2340  -30.0670    7.3620 C.3       8 GLP5        0.0000 
     84 CA        -36.3831  -28.6039    1.7526 C.3       4 GLC5        0.0000 
     85 CA        -43.2297  -27.2473    6.3970 C.3       4 GLC5        0.0000 
     86 CA        -41.4550  -26.4240    4.9860 C.3      12 GLL5        0.0000 
     87 CA        -44.5740  -27.5250    7.9230 C.3       8 GLP5        0.0000 
     88 CA        -38.9742  -29.1675    6.9598 C.3       4 GLC5        0.0000 
     89 CA        -40.2820  -27.7310    6.6740 C.3      12 GLL5        0.0000 
     90 CA        -39.2592  -26.0910    7.6315 C.3       4 GLC5        0.0000 
     91 CA        -38.1600  -25.0450    8.9500 C.3       8 GLP5        0.0000 
     92 CA        -42.7711  -27.8839    7.1204 C.3       4 GLC5        0.0000 
     93 CA        -41.1369  -26.7212    8.0819 C.3       4 GLC5        0.0000 
     94 CA        -41.6990  -26.0370    9.9090 C.3       8 GLP5        0.0000 
@<TRIPOS>BOND
@<TRIPOS>SUBSTRUCTURE
     1 ALC1       10 GROUP        1 X    ALC  0     ROOT ALC X 1
     2 SEC2        4 GROUP        1 X    SEC  0     **** SEC X 2
     3 ASC3       16 GROUP        1 X    ASC  0     **** ASC X 3
     4 GLC5        1 GROUP        1 X    GLC  0     **** GLC X 6
     5 ALP1       12 GROUP        1 Y    ALP  0     ROOT ALP Y 8
     6 SEP2        6 GROUP        1 Y    SEP  0     **** SEP Y 9
     7 ASP3       18 GROUP        1 Y    ASP  0     **** ASP Y 10
     8 GLP5        3 GROUP        1 Y    GLP  0     **** GLP Y 13
     9 ALL1       11 GROUP        1 Z    ALL  0     ROOT ALL Z 15
    10 SEL2        5 GROUP        1 Z    SEL  0     **** SEL Z 16
    11 ASL3       17 GROUP        1 Z    ASL  0     **** ASL Z 17
    12 GLL5        2 GROUP        1 Z    GLL  0     **** GLL Z 20
@<TRIPOS>SET

