#    Name: 3ion_8H1_1_ligand
#    Modification time : Tue Mar 25 17:02:00 2014

@<TRIPOS>MOLECULE
3ion_8H1_1_ligand
   64    68     1     0     0
SMALL
NO_CHARGES


@<TRIPOS>ATOM
      1 C1        -35.0370  -22.3930    5.9140 C.3       1 8H11        0.0000 
      2 N1        -34.4540  -29.6610    3.3940 N.ar      1 8H11        0.0000 
      3 O1        -33.6540  -22.5660    6.2360 O.3       1 8H11        0.0000 
      4 C2        -32.9950  -23.7150    5.8680 C.ar      1 8H11        0.0000 
      5 N2        -30.6630  -27.0070    4.8390 N.ar      1 8H11        0.0000 
      6 O2        -31.0670  -22.5270    6.5340 O.3       1 8H11        0.0000 
      7 C3        -33.6080  -24.8720    5.3540 C.ar      1 8H11        0.0000 
      8 N3        -32.3170  -30.6120    3.2520 N.pl3     1 8H11        0.0000 
      9 O3        -39.8730  -27.2030    2.6220 O.3       1 8H11        0.0000 
     10 C4        -32.8620  -26.0310    4.9800 C.ar      1 8H11        0.0000 
     11 N4        -38.5570  -30.5610    3.3110 N.ar      1 8H11        0.0000 
     12 C5        -33.4300  -27.2490    4.4470 C.ar      1 8H11        0.0000 
     13 N5        -41.6680  -25.4180    1.7380 N.4       1 8H11        0.0000 
     14 C6        -34.8150  -27.4400    4.2250 C.ar      1 8H11        0.0000 
     15 C7        -35.3010  -28.6440    3.7030 C.ar      1 8H11        0.0000 
     16 C8        -33.1210  -29.5250    3.5950 C.ar      1 8H11        0.0000 
     17 C9        -32.5740  -28.3320    4.1240 C.ar      1 8H11        0.0000 
     18 C10       -31.2080  -28.1310    4.3410 C.ar      1 8H11        0.0000 
     19 C11       -31.4610  -25.9820    5.1510 C.ar      1 8H11        0.0000 
     20 C12       -30.8580  -24.8300    5.6650 C.ar      1 8H11        0.0000 
     21 C13       -31.5980  -23.6940    6.0280 C.ar      1 8H11        0.0000 
     22 C14       -29.7110  -22.4780    6.9790 C.3       1 8H11        0.0000 
     23 C15       -36.7350  -28.9150    3.4550 C.ar      1 8H11        0.0000 
     24 C16       -37.6740  -27.9180    3.1500 C.ar      1 8H11        0.0000 
     25 C17       -39.0250  -28.2270    2.9290 C.ar      1 8H11        0.0000 
     26 C18       -39.4080  -29.5540    3.0250 C.ar      1 8H11        0.0000 
     27 C19       -37.2620  -30.2150    3.5240 C.ar      1 8H11        0.0000 
     28 C20       -39.4960  -25.8350    2.7970 C.3       1 8H11        0.0000 
     29 C21       -40.7970  -25.0130    2.8860 C.3       1 8H11        0.0000 
     30 C22       -41.6200  -25.1440    4.1940 C.3       1 8H11        0.0000 
     31 C23       -41.4550  -26.4240    4.9860 C.ar      1 8H11        0.0000 
     32 C24       -42.3160  -27.5150    4.7560 C.ar      1 8H11        0.0000 
     33 C25       -42.1620  -28.7040    5.4820 C.ar      1 8H11        0.0000 
     34 C26       -41.1470  -28.8050    6.4410 C.ar      1 8H11        0.0000 
     35 C27       -40.2820  -27.7310    6.6740 C.ar      1 8H11        0.0000 
     36 C28       -40.4350  -26.5430    5.9520 C.ar      1 8H11        0.0000 
     37 H         -34.6379  -24.8931    5.2391 H         1 8H11        0.0000 
     38 H         -31.3413  -30.5174    3.4497 H         1 8H11        0.0000 
     39 H         -32.7854  -31.3924    2.8379 H         1 8H11        0.0000 
     40 H         -35.4684  -26.6779    4.4531 H         1 8H11        0.0000 
     41 H         -30.5640  -28.9462    4.0846 H         1 8H11        0.0000 
     42 H         -29.8236  -24.8120    5.7835 H         1 8H11        0.0000 
     43 H         -37.3637  -26.9332    3.0866 H         1 8H11        0.0000 
     44 H         -40.4338  -29.7771    2.8616 H         1 8H11        0.0000 
     45 H         -36.5631  -30.9920    3.7684 H         1 8H11        0.0000 
     46 H         -38.9241  -25.4565    1.9574 H         1 8H11        0.0000 
     47 H         -38.9427  -25.6763    3.7156 H         1 8H11        0.0000 
     48 H         -40.5454  -23.9579    2.7459 H         1 8H11        0.0000 
     49 H         -42.6963  -25.0096    3.9341 H         1 8H11        0.0000 
     50 H         -41.3658  -24.2746    4.8448 H         1 8H11        0.0000 
     51 H         -43.0587  -27.4357    4.0527 H         1 8H11        0.0000 
     52 H         -42.7888  -29.4941    5.3114 H         1 8H11        0.0000 
     53 H         -41.0372  -29.6757    6.9778 H         1 8H11        0.0000 
     54 H         -39.5369  -27.8144    7.3729 H         1 8H11        0.0000 
     55 H         -39.8047  -25.7517    6.1224 H         1 8H11        0.0000 
     56 H         -35.3866  -21.5138    6.2379 H         1 8H11        0.0000 
     57 H         -35.1955  -22.4259    4.9272 H         1 8H11        0.0000 
     58 H         -35.6061  -23.1045    6.3262 H         1 8H11        0.0000 
     59 H         -41.2254  -25.2472    0.8577 H         1 8H11        0.0000 
     60 H         -41.8938  -26.3917    1.7686 H         1 8H11        0.0000 
     61 H         -42.5332  -24.9165    1.7332 H         1 8H11        0.0000 
     62 H         -29.0705  -22.6993    6.2436 H         1 8H11        0.0000 
     63 H         -29.4644  -21.5706    7.3193 H         1 8H11        0.0000 
     64 H         -29.5401  -23.1259    7.7213 H         1 8H11        0.0000 
@<TRIPOS>BOND
     1    3    1 1    
     2   56    1 1    
     3   57    1 1    
     4   58    1 1    
     5   15    2 ar   
     6   16    2 ar   
     7    4    3 1    
     8    7    4 ar   
     9   21    4 ar   
    10   18    5 ar   
    11   19    5 ar   
    12   21    6 1    
    13   22    6 1    
    14   10    7 ar   
    15   37    7 1    
    16   16    8 1    
    17   38    8 1    
    18   39    8 1    
    19   25    9 1    
    20   28    9 1    
    21   12   10 ar   
    22   19   10 ar   
    23   26   11 ar   
    24   27   11 ar   
    25   14   12 ar   
    26   17   12 ar   
    27   29   13 1    
    28   59   13 1    
    29   60   13 1    
    30   61   13 1    
    31   15   14 ar   
    32   40   14 1    
    33   23   15 1    
    34   17   16 ar   
    35   18   17 ar   
    36   41   18 1    
    37   20   19 ar   
    38   21   20 ar   
    39   42   20 1    
    40   62   22 1    
    41   63   22 1    
    42   64   22 1    
    43   24   23 ar   
    44   27   23 ar   
    45   25   24 ar   
    46   43   24 1    
    47   26   25 ar   
    48   44   26 1    
    49   45   27 1    
    50   29   28 1    
    51   46   28 1    
    52   47   28 1    
    53   30   29 1    
    54   48   29 1    
    55   31   30 1    
    56   49   30 1    
    57   50   30 1    
    58   32   31 ar   
    59   36   31 ar   
    60   33   32 ar   
    61   51   32 1    
    62   34   33 ar   
    63   52   33 1    
    64   35   34 ar   
    65   53   34 1    
    66   36   35 ar   
    67   54   35 1    
    68   55   36 1    
@<TRIPOS>SUBSTRUCTURE
     1 8H11        1 GROUP   
@<TRIPOS>SET

