#    Name: 3cf6_SP1_1_INTS_M
#    Modification time : Mon Mar 24 21:08:52 2014

@<TRIPOS>MOLECULE
3cf6_SP1_1_INTS_M
   65     0     9     0     0
SMALL
NO_CHARGES


@<TRIPOS>ATOM
      1 CA          9.3880  -18.7160  -60.1160 C.3       3 GLC5        0.0000 
      2 CA          8.2270  -19.3210  -61.6820 C.3       9 GLL5        0.0000 
      3 CA         10.5490  -18.1110  -58.5500 C.3       6 GLP5        0.0000 
      4 CA          8.4600  -20.6765  -63.3180 C.3       3 GLC5        0.0000 
      5 CA          8.6930  -22.0320  -64.9540 C.3       6 GLP5        0.0000 
      6 CA          7.9585  -20.9660  -60.9680 C.3       3 GLC5        0.0000 
      7 CA          7.6900  -22.6110  -60.2540 C.3       6 GLP5        0.0000 
      8 N          10.1685  -17.1260  -63.5355 N.am      2 SEC2        0.0000 
      9 N           8.8150  -17.2550  -63.8630 N.am      8 SEL2        0.0000 
     10 N          11.5220  -16.9970  -63.2080 N.am      5 SEP2        0.0000 
     11 N           8.6260  -17.0080  -65.2125 N.am      2 SEC2        0.0000 
     12 N           8.4370  -16.7610  -66.5620 N.am      5 SEP2        0.0000 
     13 O           9.0975  -15.8640  -64.6465 O.2       1 ALC1        0.0000 
     14 O           8.8150  -17.2550  -63.8630 O.2       7 ALL1        0.0000 
     15 O           9.3800  -14.4730  -65.4300 O.2       4 ALP1        0.0000 
     16 CA          4.7835  -18.9465  -64.9775 C.3       3 GLC5        0.0000 
     17 CA          5.0160  -18.7750  -63.1430 C.3       9 GLL5        0.0000 
     18 CA          4.5510  -19.1180  -66.8120 C.3       6 GLP5        0.0000 
     19 CA          3.9935  -20.3365  -62.5655 C.3       3 GLC5        0.0000 
     20 CA          2.9710  -21.8980  -61.9880 C.3       6 GLP5        0.0000 
     21 CA          4.5500  -17.5885  -64.6595 C.3       3 GLC5        0.0000 
     22 CA          4.6180  -17.4720  -62.4630 C.3       9 GLL5        0.0000 
     23 CA          4.4820  -17.7050  -66.8560 C.3       6 GLP5        0.0000 
     24 CA          3.8235  -15.4755  -62.9935 C.3       3 GLC5        0.0000 
     25 CA          3.0290  -13.4790  -63.5240 C.3       6 GLP5        0.0000 
     26 CA          2.7315  -17.4550  -63.4305 C.3       3 GLC5        0.0000 
     27 CA          0.8450  -17.4380  -64.3980 C.3       6 GLP5        0.0000 
     28 N           5.5385  -14.3650  -62.6005 N.am      2 SEC2        0.0000 
     29 N           5.0220  -14.8390  -61.1410 N.am      8 SEL2        0.0000 
     30 N           6.0550  -13.8910  -64.0600 N.am      5 SEP2        0.0000 
     31 CA          2.0085  -18.2310  -60.5015 C.3       3 GLC5        0.0000 
     32 CA          3.5320  -16.6310  -60.5660 C.3       9 GLL5        0.0000 
     33 CA          0.4850  -19.8310  -60.4370 C.3       6 GLP5        0.0000 
     34 N           2.1405  -17.5545  -55.7475 N.am      2 SEC2        0.0000 
     35 N           2.0700  -17.7250  -57.3880 N.am      8 SEL2        0.0000 
     36 N           2.2110  -17.3840  -54.1070 N.am      5 SEP2        0.0000 
     37 CA          2.7330  -21.9120  -57.6715 C.3       3 GLC5        0.0000 
     38 CA          3.1000  -20.0770  -56.9760 C.3       9 GLL5        0.0000 
     39 CA          2.3660  -23.7470  -58.3670 C.3       6 GLP5        0.0000 
     40 CA          4.3780  -21.3395  -55.8410 C.3       3 GLC5        0.0000 
     41 CA          5.6560  -22.6020  -54.7060 C.3       6 GLP5        0.0000 
     42 O           1.2795  -19.7615  -55.3005 O.2       1 ALC1        0.0000 
     43 O           2.4560  -20.3420  -55.8280 O.2       7 ALL1        0.0000 
     44 O           0.1030  -19.1810  -54.7730 O.2       4 ALP1        0.0000 
     45 N           4.3970  -22.0180  -56.6980 N.am      2 SEC2        0.0000 
     46 N           3.9720  -20.9360  -57.5460 N.am      8 SEL2        0.0000 
     47 N           4.8220  -23.1000  -55.8500 N.am      5 SEP2        0.0000 
     48 CA          3.4840  -22.2025  -58.5445 C.3       3 GLC5        0.0000 
     49 CA          4.6020  -20.6580  -58.7220 C.3       9 GLL5        0.0000 
     50 CA          6.1460  -21.6345  -59.4880 C.3       3 GLC5        0.0000 
     51 CA          3.7865  -21.2780  -60.3550 C.3       3 GLC5        0.0000 
     52 CA          5.9395  -19.9545  -57.4250 C.3       3 GLC5        0.0000 
     53 CA          7.2770  -19.2510  -56.1280 C.3       6 GLP5        0.0000 
     54 CA          4.9300  -17.8635  -57.9785 C.3       3 GLC5        0.0000 
     55 CA          3.5340  -18.5700  -58.9300 C.3       9 GLL5        0.0000 
     56 CA          6.3260  -17.1570  -57.0270 C.3       6 GLP5        0.0000 
     57 CA          5.8178  -16.8942  -58.9952 C.3       3 GLC5        0.0000 
     58 CA          4.9690  -16.1210  -60.5260 C.3       9 GLL5        0.0000 
     59 CA          3.6398  -14.9275  -62.0350 C.3       3 GLC5        0.0000 
     60 CA          1.1673  -20.4258  -57.1535 C.3       3 GLC5        0.0000 
     61 CA          2.8270  -18.8080  -57.6620 C.3       9 GLL5        0.0000 
     62 CA         -0.6290  -21.4090  -56.9880 C.3       6 GLP5        0.0000 
     63 CA          4.1677  -18.8092  -56.1120 C.3       3 GLC5        0.0000 
     64 CA          5.3720  -18.1760  -54.9050 C.3       6 GLP5        0.0000 
     65 CA          1.8669  -19.4186  -59.2807 C.3       3 GLC5        0.0000 
@<TRIPOS>BOND
@<TRIPOS>SUBSTRUCTURE
     1 ALC1       13 GROUP        1 X    ALC  0     ROOT ALC X 1
     2 SEC2        8 GROUP        1 X    SEC  0     **** SEC X 2
     3 GLC5        1 GROUP        1 X    GLC  0     **** GLC X 6
     4 ALP1       15 GROUP        1 Y    ALP  0     ROOT ALP Y 8
     5 SEP2       10 GROUP        1 Y    SEP  0     **** SEP Y 9
     6 GLP5        3 GROUP        1 Y    GLP  0     **** GLP Y 13
     7 ALL1       14 GROUP        1 Z    ALL  0     ROOT ALL Z 15
     8 SEL2        9 GROUP        1 Z    SEL  0     **** SEL Z 16
     9 GLL5        2 GROUP        1 Z    GLL  0     **** GLL Z 20
@<TRIPOS>SET

