#    Name: 3cf6_SP1_1_ligand
#    Modification time : Mon Mar 24 21:08:52 2014

@<TRIPOS>MOLECULE
3cf6_SP1_1_ligand
   34    37     1     0     0
SMALL
NO_CHARGES


@<TRIPOS>ATOM
      1 P           7.5340  -17.9380  -62.8700 P.3       1 SP12        0.0000 
      2 S1P         8.2270  -19.3210  -61.6820 S.2       1 SP12        0.0000 
      3 O2P         8.8150  -17.2550  -63.8630 O.3       1 SP12        0.0000 
      4 O5'         6.3090  -18.5490  -63.7300 O.3       1 SP12        0.0000 
      5 C5'         5.0160  -18.7750  -63.1430 C.3       1 SP12        0.0000 
      6 C4'         4.6180  -17.4720  -62.4630 C.3       1 SP12        0.0000 
      7 O4'         3.4110  -17.5300  -61.6880 O.3       1 SP12        0.0000 
      8 C3'         5.6500  -17.1420  -61.4010 C.3       1 SP12        0.0000 
      9 O3'         6.8630  -16.7650  -62.0120 O.3       1 SP12        0.0000 
     10 C2'         4.9690  -16.1210  -60.5260 C.3       1 SP12        0.0000 
     11 O2'         5.0220  -14.8390  -61.1410 O.3       1 SP12        0.0000 
     12 C1'         3.5320  -16.6310  -60.5660 C.3       1 SP12        0.0000 
     13 N9          3.1360  -17.3470  -59.3260 N.pl3     1 SP12        0.0000 
     14 C8          2.2640  -16.8610  -58.4220 C.2       1 SP12        0.0000 
     15 N7          2.0700  -17.7250  -57.3880 N.2       1 SP12        0.0000 
     16 C5          2.8270  -18.8080  -57.6620 C.ar      1 SP12        0.0000 
     17 C6          3.1000  -20.0770  -56.9760 C.ar      1 SP12        0.0000 
     18 N6          2.4560  -20.3420  -55.8280 N.pl3     1 SP12        0.0000 
     19 N1          3.9720  -20.9360  -57.5460 N.ar      1 SP12        0.0000 
     20 C2          4.6020  -20.6580  -58.7220 C.ar      1 SP12        0.0000 
     21 N3          4.4050  -19.5120  -59.4000 N.ar      1 SP12        0.0000 
     22 C4          3.5340  -18.5700  -58.9300 C.ar      1 SP12        0.0000 
     23 H           5.0456  -19.5549  -62.3936 H         1 SP12        0.0000 
     24 H           4.2705  -19.0102  -63.8911 H         1 SP12        0.0000 
     25 H           4.6056  -16.6704  -63.1562 H         1 SP12        0.0000 
     26 H           5.7562  -18.0618  -60.8067 H         1 SP12        0.0000 
     27 H           5.3267  -16.1778  -59.5641 H         1 SP12        0.0000 
     28 H           2.8789  -15.7774  -60.7151 H         1 SP12        0.0000 
     29 H           1.8156  -15.9853  -58.4933 H         1 SP12        0.0000 
     30 H           2.9583  -20.8883  -55.1577 H         1 SP12        0.0000 
     31 H           1.5317  -19.9694  -55.7459 H         1 SP12        0.0000 
     32 H           5.2731  -21.3781  -59.1129 H         1 SP12        0.0000 
     33 H           8.4919  -16.3413  -64.1095 H         1 SP12        0.0000 
     34 H           4.8782  -14.1883  -60.3955 H         1 SP12        0.0000 
@<TRIPOS>BOND
     1    2    1 2    
     2    3    1 1    
     3    4    1 1    
     4    9    1 1    
     5   33    3 1    
     6    5    4 1    
     7    6    5 1    
     8   23    5 1    
     9   24    5 1    
    10    7    6 1    
    11    8    6 1    
    12   25    6 1    
    13   12    7 1    
    14    9    8 1    
    15   10    8 1    
    16   26    8 1    
    17   11   10 1    
    18   12   10 1    
    19   27   10 1    
    20   34   11 1    
    21   13   12 1    
    22   28   12 1    
    23   14   13 1    
    24   22   13 1    
    25   15   14 2    
    26   29   14 1    
    27   16   15 1    
    28   17   16 ar   
    29   22   16 ar   
    30   18   17 1    
    31   19   17 ar   
    32   30   18 1    
    33   31   18 1    
    34   20   19 ar   
    35   21   20 ar   
    36   32   20 1    
    37   22   21 ar   
@<TRIPOS>SUBSTRUCTURE
     1 SP12        1 GROUP   
@<TRIPOS>SET

