#    Name: 7atj_FER_2_INTS_M
#    Modification time : Tue Mar 25 13:56:31 2014

@<TRIPOS>MOLECULE
7atj_FER_2_INTS_M
   35     0     6     0     0
SMALL
NO_CHARGES


@<TRIPOS>ATOM
      1 CA          5.1230    4.0445    4.1285 C.3       2 GLC5        0.0000 
      2 CA          3.3150    2.9590    4.4000 C.3       6 GLL5        0.0000 
      3 CA          6.9310    5.1300    3.8570 C.3       4 GLP5        0.0000 
      4 CA          0.2645    5.0165    4.2255 C.3       2 GLC5        0.0000 
      5 CA         -1.3230    3.8350    5.0910 C.3       6 GLL5        0.0000 
      6 CA          1.8520    6.1980    3.3600 C.3       4 GLP5        0.0000 
      7 CA         -2.0605    5.6275    5.6865 C.3       2 GLC5        0.0000 
      8 CA         -2.7980    7.4200    6.2820 C.3       4 GLP5        0.0000 
      9 CA         -2.6935    3.0155    4.5760 C.3       2 GLC5        0.0000 
     10 CA         -4.0640    2.1960    4.0610 C.3       4 GLP5        0.0000 
     11 N           1.5270    4.5225    7.2360 N.am      1 SEC2        0.0000 
     12 N           2.4440    3.6230    6.5260 N.am      5 SEL2        0.0000 
     13 N           0.6100    5.4220    7.9460 N.am      3 SEP2        0.0000 
     14 CA          2.3130    4.6478    4.0860 C.3       2 GLC5        0.0000 
     15 CA          2.2330    3.2360    5.2240 C.3       6 GLL5        0.0000 
     16 CA          2.0475    1.0268    4.6595 C.3       2 GLC5        0.0000 
     17 CA          1.3210   -1.0440    4.5070 C.3       4 GLP5        0.0000 
     18 CA          3.6440    0.9527    3.6042 C.3       2 GLC5        0.0000 
     19 CA          4.0560   -0.8580    3.4590 C.3       4 GLP5        0.0000 
     20 CA          2.1815    4.3488    3.0847 C.3       2 GLC5        0.0000 
     21 CA          3.1490    2.5680    3.0990 C.3       6 GLL5        0.0000 
     22 CA          1.9160    0.7278    3.6582 C.3       2 GLC5        0.0000 
     23 CA          1.8730    2.4310    2.5200 C.3       6 GLL5        0.0000 
     24 CA          1.3545    4.5548    3.6867 C.3       2 GLC5        0.0000 
     25 CA          0.7700    2.7130    3.3460 C.3       6 GLL5        0.0000 
     26 CA          1.0890    0.9337    4.2602 C.3       2 GLC5        0.0000 
     27 CA          0.9440    3.1100    4.6810 C.3       6 GLL5        0.0000 
     28 CA          1.1695    3.6575   -0.1475 C.3       2 GLC5        0.0000 
     29 CA          1.7570    2.0180    1.1420 C.3       6 GLL5        0.0000 
     30 CA          1.1360    5.3820   -1.1040 C.3       4 GLP5        0.0000 
     31 CA          1.0290   -0.1035    0.3590 C.3       2 GLC5        0.0000 
     32 CA          0.6490    1.8480    0.4760 C.3       6 GLL5        0.0000 
     33 CA          0.8550   -2.1400   -0.0910 C.3       4 GLP5        0.0000 
     34 CA          2.4345    0.4826    1.5747 C.3       2 GLC5        0.0000 
     35 CA          3.6370   -1.0710    1.9960 C.3       4 GLP5        0.0000 
@<TRIPOS>BOND
@<TRIPOS>SUBSTRUCTURE
     1 SEC2       11 GROUP        1 X    SEC  0     ROOT SEC X 2
     2 GLC5        1 GROUP        1 X    GLC  0     **** GLC X 6
     3 SEP2       13 GROUP        1 Y    SEP  0     ROOT SEP Y 9
     4 GLP5        3 GROUP        1 Y    GLP  0     **** GLP Y 13
     5 SEL2       12 GROUP        1 Z    SEL  0     ROOT SEL Z 16
     6 GLL5        2 GROUP        1 Z    GLL  0     **** GLL Z 20
@<TRIPOS>SET

