#    Name: 7atj_FER_2_ligand
#    Modification time : Tue Mar 25 13:56:31 2014

@<TRIPOS>MOLECULE
7atj_FER_2_ligand
   23    23     1     0     0
SMALL
NO_CHARGES


@<TRIPOS>ATOM
      1 C4          2.2330    3.2360    5.2240 C.ar      1 FER702      0.0000 
      2 C5          3.3150    2.9590    4.4000 C.ar      1 FER702      0.0000 
      3 C6          3.1490    2.5680    3.0990 C.ar      1 FER702      0.0000 
      4 C3          0.9440    3.1100    4.6810 C.ar      1 FER702      0.0000 
      5 C2          0.7700    2.7130    3.3460 C.ar      1 FER702      0.0000 
      6 C1          1.8730    2.4310    2.5200 C.ar      1 FER702      0.0000 
      7 C10        -1.3230    3.8350    5.0910 C.3       1 FER702      0.0000 
      8 C7          1.7570    2.0180    1.1420 C.2       1 FER702      0.0000 
      9 C8          0.6490    1.8480    0.4760 C.2       1 FER702      0.0000 
     10 C9          0.5960    1.4210   -0.9490 C.2       1 FER702      0.0000 
     11 O1         -0.5450    1.2860   -1.5030 O.co2     1 FER702      0.0000 
     12 O2          1.7340    1.2110   -1.5370 O.co2     1 FER702      0.0000 
     13 O4          2.4440    3.6230    6.5260 O.3       1 FER702      0.0000 
     14 O3         -0.0390    3.4170    5.5940 O.3       1 FER702      0.0000 
     15 H           4.2792    3.0540    4.7914 H         1 FER702      0.0000 
     16 H           3.9811    2.3617    2.5055 H         1 FER702      0.0000 
     17 H          -0.1840    2.6260    2.9623 H         1 FER702      0.0000 
     18 H           2.7101    1.8464    0.6626 H         1 FER702      0.0000 
     19 H          -0.3042    2.0030    0.9048 H         1 FER702      0.0000 
     20 H          -1.2527    4.6646    4.5370 H         1 FER702      0.0000 
     21 H          -1.7429    3.1331    4.5157 H         1 FER702      0.0000 
     22 H          -1.9662    4.0306    5.8313 H         1 FER702      0.0000 
     23 H           3.3734    3.3209    6.7383 H         1 FER702      0.0000 
@<TRIPOS>BOND
     1    2    1 ar   
     2    4    1 ar   
     3   13    1 1    
     4    3    2 ar   
     5   15    2 1    
     6    6    3 ar   
     7   16    3 1    
     8    5    4 ar   
     9   14    4 1    
    10    6    5 ar   
    11   17    5 1    
    12    8    6 1    
    13   14    7 1    
    14   20    7 1    
    15   21    7 1    
    16   22    7 1    
    17    9    8 2    
    18   18    8 1    
    19   10    9 1    
    20   19    9 1    
    21   11   10 ar   
    22   12   10 ar   
    23   23   13 1    
@<TRIPOS>SUBSTRUCTURE
     1 FER702      1 GROUP   
@<TRIPOS>SET

