#    Name: 3tzm_085_1_INTS_M
#    Modification time : Mon Mar 24 21:15:01 2014

@<TRIPOS>MOLECULE
3tzm_085_1_INTS_M
   71     0     6     0     0
SMALL
NO_CHARGES


@<TRIPOS>ATOM
      1 CA          1.0715    8.6005    2.6125 C.3       2 GLC5        0.0000 
      2 CA          2.5850    7.3020    3.2330 C.3       6 GLL5        0.0000 
      3 CA         -0.4420    9.8990    1.9920 C.3       4 GLP5        0.0000 
      4 CA          0.5225    8.2190    1.7205 C.3       2 GLC5        0.0000 
      5 CA          1.4870    6.5390    1.4490 C.3       6 GLL5        0.0000 
      6 CA          0.8470    7.2010   -0.0975 C.3       2 GLC5        0.0000 
      7 CA          0.2070    7.8630   -1.6440 C.3       4 GLP5        0.0000 
      8 CA          2.4275    5.0835    0.0785 C.3       2 GLC5        0.0000 
      9 CA          3.3680    3.6280   -1.2920 C.3       4 GLP5        0.0000 
     10 CA          0.8280    4.6945    2.3715 C.3       2 GLC5        0.0000 
     11 CA          0.1690    2.8500    3.2940 C.3       4 GLP5        0.0000 
     12 N           3.3135    5.8265   -0.0875 N.am      1 SEC2        0.0000 
     13 N           2.8900    6.6130    1.1140 N.am      5 SEL2        0.0000 
     14 N           3.7370    5.0400   -1.2890 N.am      3 SEP2        0.0000 
     15 CA          6.8170    6.7900    2.2615 C.3       2 GLC5        0.0000 
     16 CA          4.8300    7.5540    2.3920 C.3       6 GLL5        0.0000 
     17 CA          8.8040    6.0260    2.1310 C.3       4 GLP5        0.0000 
     18 CA          7.0935    7.8640    3.8510 C.3       2 GLC5        0.0000 
     19 CA          5.2140    8.1060    3.6200 C.3       6 GLL5        0.0000 
     20 CA          8.9730    7.6220    4.0820 C.3       4 GLP5        0.0000 
     21 N           4.2440    7.8435   16.0205 N.am      1 SEC2        0.0000 
     22 N           4.1680    8.0050   14.5320 N.am      5 SEL2        0.0000 
     23 N           4.3200    7.6820   17.5090 N.am      3 SEP2        0.0000 
     24 N           6.3910   10.8290    8.4215 N.am      1 SEC2        0.0000 
     25 N           5.5940    9.7370    7.6730 N.am      5 SEL2        0.0000 
     26 N           7.1880   11.9210    9.1700 N.am      3 SEP2        0.0000 
     27 CA          3.9620   11.0040    6.6125 C.3       2 GLC5        0.0000 
     28 CA          5.6050    9.7010    6.3320 C.3       6 GLL5        0.0000 
     29 CA          2.3190   12.3070    6.8930 C.3       4 GLP5        0.0000 
     30 CA          8.6070   13.3935    2.2295 C.3       2 GLC5        0.0000 
     31 CA          8.0800   12.1880    4.0360 C.3       6 GLL5        0.0000 
     32 CA          9.1340   14.5990    0.4230 C.3       4 GLP5        0.0000 
     33 CA          5.6035   11.1665    2.2650 C.3       2 GLC5        0.0000 
     34 CA          6.7740   11.8790    3.6240 C.3       6 GLL5        0.0000 
     35 CA          4.4330   10.4540    0.9060 C.3       4 GLP5        0.0000 
     36 CA          5.7470   13.4570    2.5500 C.3       2 GLC5        0.0000 
     37 CA          4.7200   15.0350    1.4760 C.3       4 GLP5        0.0000 
     38 CA          3.2458    5.8120    4.3760 C.3       2 GLC5        0.0000 
     39 CA          2.9800    7.8420    4.4510 C.3       6 GLL5        0.0000 
     40 CA          3.7090    4.0520    4.9100 C.3       4 GLP5        0.0000 
     41 CA          3.7412    8.8415    1.8105 C.3       2 GLC5        0.0000 
     42 CA          5.0915    6.0180    3.2663 C.3       2 GLC5        0.0000 
     43 CA          3.5140    7.1560    2.1970 C.3       6 GLL5        0.0000 
     44 CA          6.0110    4.6810    4.2380 C.3       4 GLP5        0.0000 
     45 CA          5.3818    6.4360    4.1898 C.3       2 GLC5        0.0000 
     46 CA          4.5448    9.2535    2.3702 C.3       2 GLC5        0.0000 
     47 CA          3.0099   10.0583    4.8690 C.3       2 GLC5        0.0000 
     48 CA          4.2910    8.2760    4.6630 C.3       6 GLL5        0.0000 
     49 CA          1.8770   11.7080    4.4870 C.3       4 GLP5        0.0000 
     50 CA          6.2823    8.2458   10.7722 C.3       2 GLC5        0.0000 
     51 CA          4.3700    8.6180    9.4730 C.3       6 GLL5        0.0000 
     52 CA          7.9390    7.4730   11.5550 C.3       4 GLP5        0.0000 
     53 CA          6.0370    8.0395   11.7767 C.3       2 GLC5        0.0000 
     54 CA          4.5510    9.1460   11.8400 C.3       6 GLL5        0.0000 
     55 CA          3.4768   10.4921   11.6495 C.3       2 GLC5        0.0000 
     56 CA          3.7190    8.0660   12.1570 C.3       6 GLL5        0.0000 
     57 CA          2.7360   12.3100   11.6340 C.3       4 GLP5        0.0000 
     58 CA          4.8067    6.1750   11.4607 C.3       2 GLC5        0.0000 
     59 CA          6.0610    4.6210   11.6090 C.3       4 GLP5        0.0000 
     60 CA          6.5005   11.6593    7.1963 C.3       2 GLC5        0.0000 
     61 CA          6.9870   13.2120    8.4650 C.3       4 GLP5        0.0000 
     62 CA          7.5563   12.2172    7.0355 C.3       2 GLC5        0.0000 
     63 CA          7.7050   10.8120    5.9810 C.3       6 GLL5        0.0000 
     64 CA          8.3890    9.3848    4.7867 C.3       2 GLC5        0.0000 
     65 CA          9.0815   13.7018    4.7817 C.3       2 GLC5        0.0000 
     66 CA          8.5460   11.6330    5.2310 C.3       6 GLL5        0.0000 
     67 CA          9.8500   15.4930    4.9300 C.3       4 GLP5        0.0000 
     68 CA          6.5815   13.3863    5.0025 C.3       2 GLC5        0.0000 
     69 CA          5.7360   14.7390    6.1750 C.3       4 GLP5        0.0000 
     70 CA          8.3238   10.9939    2.7504 C.3       2 GLC5        0.0000 
     71 CA          9.1040   10.0930    1.3720 C.3       4 GLP5        0.0000 
@<TRIPOS>BOND
@<TRIPOS>SUBSTRUCTURE
     1 SEC2       12 GROUP        1 X    SEC  0     ROOT SEC X 2
     2 GLC5        1 GROUP        1 X    GLC  0     **** GLC X 6
     3 SEP2       14 GROUP        1 Y    SEP  0     ROOT SEP Y 9
     4 GLP5        3 GROUP        1 Y    GLP  0     **** GLP Y 13
     5 SEL2       13 GROUP        1 Z    SEL  0     ROOT SEL Z 16
     6 GLL5        2 GROUP        1 Z    GLL  0     **** GLL Z 20
@<TRIPOS>SET

