#    Name: 3tzm_085_1_ligand
#    Modification time : Mon Mar 24 21:15:01 2014

@<TRIPOS>MOLECULE
3tzm_085_1_ligand
   45    49     1     0     0
SMALL
NO_CHARGES


@<TRIPOS>ATOM
      1 CAM         2.9800    7.8420    4.4510 C.ar      1 0851        0.0000 
      2 CAZ         2.5850    7.3020    3.2330 C.ar      1 0851        0.0000 
      3 OAS         1.3620    6.8470    2.8250 O.3       1 0851        0.0000 
      4 CAN         1.4870    6.5390    1.4490 C.3       1 0851        0.0000 
      5 OAR         2.8900    6.6130    1.1140 O.3       1 0851        0.0000 
      6 CAY         3.5140    7.1560    2.1970 C.ar      1 0851        0.0000 
      7 CAL         4.8300    7.5540    2.3920 C.ar      1 0851        0.0000 
      8 CAK         5.2140    8.1060    3.6200 C.ar      1 0851        0.0000 
      9 CAW         4.2910    8.2760    4.6630 C.ar      1 0851        0.0000 
     10 CBB         4.6500    8.7580    5.9450 C.2       1 0851        0.0000 
     11 NAP         4.1290    8.2770    7.0770 N.pl3     1 0851        0.0000 
     12 CBA         4.6870    8.8730    8.1340 C.2       1 0851        0.0000 
     13 CAV         4.3700    8.6180    9.4730 C.ar      1 0851        0.0000 
     14 CAJ         4.8810    9.4190   10.5060 C.ar      1 0851        0.0000 
     15 CAH         4.5510    9.1460   11.8400 C.ar      1 0851        0.0000 
     16 CAI         3.5460    7.5300    9.8010 C.ar      1 0851        0.0000 
     17 CAG         3.2260    7.2540   11.1350 C.ar      1 0851        0.0000 
     18 CAU         3.7190    8.0660   12.1570 C.ar      1 0851        0.0000 
     19 CAT         3.3650    7.7760   13.6190 C.2       1 0851        0.0000 
     20 OAB         4.1680    8.0050   14.5320 O.2       1 0851        0.0000 
     21 NAA         2.1350    7.3020   13.8110 N.am      1 0851        0.0000 
     22 NAQ         5.5940    9.7370    7.6730 N.2       1 0851        0.0000 
     23 CBC         5.6050    9.7010    6.3320 C.2       1 0851        0.0000 
     24 CAX         6.4230   10.5120    5.5230 C.ar      1 0851        0.0000 
     25 CAF         7.7050   10.8120    5.9810 C.ar      1 0851        0.0000 
     26 CAD         8.5460   11.6330    5.2310 C.ar      1 0851        0.0000 
     27 CAC         8.0800   12.1880    4.0360 C.ar      1 0851        0.0000 
     28 CAE         6.7740   11.8790    3.6240 C.ar      1 0851        0.0000 
     29 NAO         5.9840   11.0750    4.3660 N.ar      1 0851        0.0000 
     30 H           2.2899    7.9259    5.2204 H         1 0851        0.0000 
     31 H           0.9196    7.2486    0.8340 H         1 0851        0.0000 
     32 H           1.1059    5.5327    1.2350 H         1 0851        0.0000 
     33 H           5.5216    7.4462    1.6429 H         1 0851        0.0000 
     34 H           6.1964    8.3944    3.7624 H         1 0851        0.0000 
     35 H           3.4341    7.5834    7.1252 H         1 0851        0.0000 
     36 H           5.4986   10.2074   10.2823 H         1 0851        0.0000 
     37 H           4.9224    9.7427   12.5899 H         1 0851        0.0000 
     38 H           3.1744    6.9304    9.0515 H         1 0851        0.0000 
     39 H           2.6264    6.4510   11.3607 H         1 0851        0.0000 
     40 H           1.8603    7.1637   14.7625 H         1 0851        0.0000 
     41 H           1.5971    7.1271   12.9863 H         1 0851        0.0000 
     42 H           8.0324   10.4256    6.8771 H         1 0851        0.0000 
     43 H           9.4976   11.8287    5.5518 H         1 0851        0.0000 
     44 H           8.6669   12.7976    3.4796 H         1 0851        0.0000 
     45 H           6.4326   12.2873    2.7307 H         1 0851        0.0000 
@<TRIPOS>BOND
     1    2    1 ar   
     2    9    1 ar   
     3   30    1 1    
     4    3    2 1    
     5    6    2 ar   
     6    4    3 1    
     7    5    4 1    
     8   31    4 1    
     9   32    4 1    
    10    6    5 1    
    11    7    6 ar   
    12    8    7 ar   
    13   33    7 1    
    14    9    8 ar   
    15   34    8 1    
    16   10    9 1    
    17   11   10 1    
    18   23   10 2    
    19   12   11 1    
    20   35   11 1    
    21   13   12 1    
    22   22   12 2    
    23   14   13 ar   
    24   16   13 ar   
    25   15   14 ar   
    26   36   14 1    
    27   18   15 ar   
    28   37   15 1    
    29   17   16 ar   
    30   38   16 1    
    31   18   17 ar   
    32   39   17 1    
    33   19   18 1    
    34   20   19 2    
    35   21   19 am   
    36   40   21 1    
    37   41   21 1    
    38   23   22 1    
    39   24   23 1    
    40   25   24 ar   
    41   29   24 ar   
    42   26   25 ar   
    43   42   25 1    
    44   27   26 ar   
    45   43   26 1    
    46   28   27 ar   
    47   44   27 1    
    48   29   28 ar   
    49   45   28 1    
@<TRIPOS>SUBSTRUCTURE
     1 0851        1 GROUP   
@<TRIPOS>SET

