#    Name: 1zy1_MET_ALA_SER_2_INTS_M
#    Modification time : Mon Mar 24 17:58:35 2014

@<TRIPOS>MOLECULE
1zy1_MET_ALA_SER_2_INTS_M
   47     0    12     0     0
SMALL
NO_CHARGES


@<TRIPOS>ATOM
      1 OD1        25.8750  -19.4895  -40.0475 O.co2     3 ASC3        0.0000 
      2 OD1        26.8320  -19.2710  -38.4840 O.co2    11 ASL3        0.0000 
      3 OD1        24.9180  -19.7080  -41.6110 O.co2     7 ASP3        0.0000 
      4 OD1        26.2870  -20.2395  -39.3630 O.co2     3 ASC3        0.0000 
      5 OD1        25.7420  -21.2080  -40.2420 O.co2     7 ASP3        0.0000 
      6 O          27.3845  -18.3165  -39.7740 O.2       1 ALC1        0.0000 
      7 O          26.8320  -19.2710  -38.4840 O.2       9 ALL1        0.0000 
      8 O          27.9370  -17.3620  -41.0640 O.2       5 ALP1        0.0000 
      9 O          26.2870  -20.2395  -39.3630 O.2       1 ALC1        0.0000 
     10 O          25.7420  -21.2080  -40.2420 O.2       5 ALP1        0.0000 
     11 N          30.2345  -18.4565  -37.9285 N.am      2 SEC2        0.0000 
     12 N          29.0540  -18.5140  -37.0670 N.am     10 SEL2        0.0000 
     13 N          31.4150  -18.3990  -38.7900 N.am      6 SEP2        0.0000 
     14 CA         29.4155  -22.4375  -37.1610 C.3       4 GLC5        0.0000 
     15 CA         28.0610  -23.7870  -36.4990 C.3      12 GLL5        0.0000 
     16 CA         30.7700  -21.0880  -37.8230 C.3       8 GLP5        0.0000 
     17 CA         29.5460  -24.7655  -35.1880 C.3       4 GLC5        0.0000 
     18 CA         31.0310  -25.7440  -33.8770 C.3       8 GLP5        0.0000 
     19 CA         28.8235  -24.2950  -37.6795 C.3       4 GLC5        0.0000 
     20 CA         29.5860  -24.8030  -38.8600 C.3       8 GLP5        0.0000 
     21 O          26.7315  -18.7470  -34.5785 O.2       1 ALC1        0.0000 
     22 O          27.8510  -18.3470  -35.1910 O.2       9 ALL1        0.0000 
     23 O          25.6120  -19.1470  -33.9660 O.2       5 ALP1        0.0000 
     24 CA         26.9190  -18.1195  -32.4000 C.3       4 GLC5        0.0000 
     25 CA         28.5170  -17.0240  -33.2010 C.3      12 GLL5        0.0000 
     26 CA         25.3210  -19.2150  -31.5990 C.3       8 GLP5        0.0000 
     27 CA         32.5060  -17.1790  -36.7320 C.3       4 GLC5        0.0000 
     28 CA         33.4780  -18.3410  -35.2320 C.3      12 GLL5        0.0000 
     29 CA         31.5340  -16.0170  -38.2320 C.3       8 GLP5        0.0000 
     30 CA         28.9335  -20.7145  -37.3758 C.3       4 GLC5        0.0000 
     31 CA         27.2580  -21.0790  -36.8400 C.3      12 GLL5        0.0000 
     32 CA         25.3250  -20.5795  -37.5228 C.3       4 GLC5        0.0000 
     33 CA         23.5530  -20.8180  -38.1170 C.3       8 GLP5        0.0000 
     34 CA         25.7740  -23.4078  -34.3888 C.3       4 GLC5        0.0000 
     35 CA         26.2760  -21.7930  -35.9380 C.3      12 GLL5        0.0000 
     36 CA         24.9980  -24.2150  -33.1060 C.3       8 GLP5        0.0000 
     37 CA         25.0100  -22.3477  -36.6813 C.3       4 GLC5        0.0000 
     38 CA         26.8240  -23.4080  -35.4050 C.3      12 GLL5        0.0000 
     39 CA         23.4700  -22.0950  -37.6910 C.3       8 GLP5        0.0000 
     40 CA         27.0562  -25.4262  -35.7150 C.3       4 GLC5        0.0000 
     41 CA         26.6700  -27.2550  -35.4780 C.3       8 GLP5        0.0000 
     42 CA         28.3272  -15.8480  -34.9672 C.3       4 GLC5        0.0000 
     43 CA         28.9540  -17.6500  -34.5800 C.3      12 GLL5        0.0000 
     44 CA         27.9190  -14.3590  -36.0440 C.3       8 GLP5        0.0000 
     45 CA         33.0948  -19.6625  -36.3272 C.3       4 GLC5        0.0000 
     46 CA         32.4450  -19.0310  -34.5010 C.3      12 GLL5        0.0000 
     47 CA         33.2280  -20.6390  -37.7880 C.3       8 GLP5        0.0000 
@<TRIPOS>BOND
@<TRIPOS>SUBSTRUCTURE
     1 ALC1        6 GROUP        1 X    ALC  0     ROOT ALC X 1
     2 SEC2       11 GROUP        1 X    SEC  0     **** SEC X 2
     3 ASC3        1 GROUP        1 X    ASC  0     **** ASC X 3
     4 GLC5       14 GROUP        1 X    GLC  0     **** GLC X 6
     5 ALP1        8 GROUP        1 Y    ALP  0     ROOT ALP Y 8
     6 SEP2       13 GROUP        1 Y    SEP  0     **** SEP Y 9
     7 ASP3        3 GROUP        1 Y    ASP  0     **** ASP Y 10
     8 GLP5       16 GROUP        1 Y    GLP  0     **** GLP Y 13
     9 ALL1        7 GROUP        1 Z    ALL  0     ROOT ALL Z 15
    10 SEL2       12 GROUP        1 Z    SEL  0     **** SEL Z 16
    11 ASL3        2 GROUP        1 Z    ASL  0     **** ASL Z 17
    12 GLL5       15 GROUP        1 Z    GLL  0     **** GLL Z 20
@<TRIPOS>SET

