#    Name: 1zy1_MET_ALA_SER_2_ligand
#    Modification time : Mon Mar 24 17:58:35 2014

@<TRIPOS>MOLECULE
1zy1_MET_ALA_SER_2_ligand
   42    41     3     0     0
SMALL
NO_CHARGES


@<TRIPOS>ATOM
      1 N          26.8320  -19.2710  -38.4840 N.4       1 MET1        0.0000
      2 CA         26.9360  -19.6030  -37.0170 C.3       1 MET1        0.0000
      3 C          28.0290  -18.7800  -36.4180 C.2       1 MET1        0.0000
      4 O          29.0540  -18.5140  -37.0670 O.2       1 MET1        0.0000
      5 CB         27.2580  -21.0790  -36.8400 C.3       1 MET1        0.0000
      6 CG         26.2760  -21.7930  -35.9380 C.3       1 MET1        0.0000
      7 SD         26.8240  -23.4080  -35.4050 S.3       1 MET1        0.0000
      8 CE         28.0610  -23.7870  -36.4990 C.3       1 MET1        0.0000
      9 HA         26.0099  -19.3826  -36.5344 H         1 MET1        0.0000
     10 HB2        28.2715  -21.1760  -36.4228 H         1 MET1        0.0000
     11 HB3        27.2636  -21.5644  -37.8275 H         1 MET1        0.0000
     12 HG2        25.3313  -22.0101  -36.4191 H         1 MET1        0.0000
     13 HG3        26.1032  -21.2801  -35.0009 H         1 MET1        0.0000
     14 HNCA       26.5069  -20.0507  -39.0191 H         1 MET1        0.0000
     15 H          26.1970  -18.5165  -38.6499 H         1 MET1        0.0000
     16 H          27.7152  -19.0005  -38.8671 H         1 MET1        0.0000
     17 HE1        28.7161  -23.0374  -36.5931 H         1 MET1        0.0000
     18 HE2        28.5776  -24.5933  -36.2108 H         1 MET1        0.0000
     19 HE3        27.7027  -23.9796  -37.4125 H         1 MET1        0.0000
     20 N          27.8510  -18.3470  -35.1910 N.am      2 ALA2        0.0000
     21 CA         28.9540  -17.6500  -34.5800 C.3       2 ALA2        0.0000
     22 C          30.0310  -18.7240  -34.3170 C.2       2 ALA2        0.0000
     23 O          29.6390  -19.9070  -34.1220 O.2       2 ALA2        0.0000
     24 CB         28.5170  -17.0240  -33.2010 C.3       2 ALA2        0.0000
     25 H          27.0038  -18.4661  -34.6486 H         2 ALA2        0.0000
     26 HA         29.3571  -16.9017  -35.1897 H         2 ALA2        0.0000
     27 HB1        29.2691  -16.5334  -32.7609 H         2 ALA2        0.0000
     28 HB2        27.7662  -16.3726  -33.3101 H         2 ALA2        0.0000
     29 HB3        28.2068  -17.7235  -32.5572 H         2 ALA2        0.0000
     30 N          31.2630  -18.1750  -34.5940 N.am      3 SER3        0.0000
     31 CA         32.4450  -19.0310  -34.5010 C.3       3 SER3        0.0000
     32 C          32.7530  -19.1110  -33.0160 C.2       3 SER3        0.0000
     33 O          32.3560  -18.1410  -32.3050 O.2       3 SER3        0.0000
     34 CB         33.4780  -18.3410  -35.2320 C.3       3 SER3        0.0000
     35 OG         34.5120  -17.8120  -34.4000 O.3       3 SER3        0.0000
     36 OXT        33.4770  -20.0380  -32.6470 O.3       3 SER3        0.0000
     37 HNCA       31.3885  -17.2098  -34.8581 H         3 SER3        0.0000
     38 HA         32.2369  -19.9816  -34.8796 H         3 SER3        0.0000
     39 HB2        33.0177  -17.5173  -35.8376 H         3 SER3        0.0000
     40 HB3        33.9200  -19.0342  -35.9944 H         3 SER3        0.0000
     41 HG         34.1103  -17.7667  -33.4853 H         3 SER3        0.0000
     42 H          34.3823  -19.8202  -33.0118 H         3 SER3        0.0000
@<TRIPOS>BOND
     1    2    1 1
     2   14    1 1
     3   15    1 1
     4   16    1 1
     5    3    2 1
     6    5    2 1
     7    9    2 1
     8    4    3 2
     9    6    5 1
    10   10    5 1
    11   11    5 1
    12    7    6 1
    13   12    6 1
    14   13    6 1
    15    8    7 1
    16   17    8 1
    17   18    8 1
    18   19    8 1
    19   21   20 1
    20   25   20 1
    21   22   21 1
    22   24   21 1
    23   26   21 1
    24   23   22 2
    25   27   24 1
    26   28   24 1
    27   29   24 1
    28   31   30 1
    29   37   30 1
    30   32   31 1
    31   34   31 1
    32   38   31 1
    33   33   32 2
    34   36   32 1
    35   35   34 1
    36   39   34 1
    37   40   34 1
    38   41   35 1
    39   42   36 1
    40   20    3 am
    41   30   22 am
@<TRIPOS>SUBSTRUCTURE
     1 MET1        1 RESIDUE
     2 ALA2       20 RESIDUE
     3 SER3       30 RESIDUE
@<TRIPOS>SET

