#    Name: 1dj3_GDP_2_INTS_M
#    Modification time : Mon Mar 24 22:01:26 2014

@<TRIPOS>MOLECULE
1dj3_GDP_2_INTS_M
   58     0    12     0     0
SMALL
NO_CHARGES


@<TRIPOS>ATOM
      1 NZ        111.8465   62.5090   48.2035 N.4       3 LYC4        0.0000 
      2 NZ        111.6110   61.5610   49.1910 N.4      11 LYL4        0.0000 
      3 NZ        112.0820   63.4570   47.2160 N.4       7 LYP4        0.0000 
      4 N         110.8250   61.3430   50.3805 N.am      2 SEC2        0.0000 
      5 N         111.6110   61.5610   49.1910 N.am     10 SEL2        0.0000 
      6 N         110.0390   61.1250   51.5700 N.am      6 SEP2        0.0000 
      7 N         110.1260   61.0935   49.1945 N.am      2 SEC2        0.0000 
      8 N         108.6410   60.6260   49.1980 N.am      6 SEP2        0.0000 
      9 N         111.8465   62.5090   48.2035 N.am      2 SEC2        0.0000 
     10 N         112.0820   63.4570   47.2160 N.am      6 SEP2        0.0000 
     11 N         109.7740   58.9235   47.8730 N.am      2 SEC2        0.0000 
     12 N         110.9750   59.1930   48.5260 N.am     10 SEL2        0.0000 
     13 N         108.5730   58.6540   47.2200 N.am      6 SEP2        0.0000 
     14 NZ        112.5145   61.8865   47.3810 N.4       3 LYC4        0.0000 
     15 NZ        112.9470   60.3160   47.5460 N.4      11 LYL4        0.0000 
     16 N         112.1920   56.2140   49.5700 N.am      2 SEC2        0.0000 
     17 N         111.5990   57.5360   50.4960 N.am     10 SEL2        0.0000 
     18 N         112.7850   54.8920   48.6440 N.am      6 SEP2        0.0000 
     19 N         113.4660   56.1395   49.4520 N.am      2 SEC2        0.0000 
     20 N         114.1470   57.3870   50.2600 N.am     10 SEL2        0.0000 
     21 CA        113.4380   60.0610   52.4850 C.3       4 GLC5        0.0000 
     22 CA        112.0650   58.5490   53.0950 C.3      12 GLL5        0.0000 
     23 CA        114.8110   61.5730   51.8750 C.3       8 GLP5        0.0000 
     24 CA        110.6970   59.2085   52.2390 C.3       4 GLC5        0.0000 
     25 CA        109.3290   59.8680   51.3830 C.3       8 GLP5        0.0000 
     26 CA        111.6380   58.0740   55.8015 C.3       4 GLC5        0.0000 
     27 CA        112.2850   57.3150   53.9890 C.3      12 GLL5        0.0000 
     28 CA        110.9910   58.8330   57.6140 C.3       8 GLP5        0.0000 
     29 CA        110.7340   57.5010   56.2935 C.3       4 GLC5        0.0000 
     30 CA        110.4770   56.1690   54.9730 C.3      12 GLL5        0.0000 
     31 CA        105.9850   56.4465   54.4860 C.3       4 GLC5        0.0000 
     32 CA        107.1910   57.0240   56.2490 C.3      12 GLL5        0.0000 
     33 CA        104.7790   55.8690   52.7230 C.3       8 GLP5        0.0000 
     34 CA        107.9610   58.3925   57.2060 C.3       4 GLC5        0.0000 
     35 CA        108.7310   59.7610   58.1630 C.3       8 GLP5        0.0000 
     36 CA        106.0875   55.5560   57.4680 C.3       4 GLC5        0.0000 
     37 CA        104.9840   54.0880   58.6870 C.3       8 GLP5        0.0000 
     38 N         105.4410   59.0875   57.6475 N.am      2 SEC2        0.0000 
     39 N         105.1170   57.5370   57.3440 N.am     10 SEL2        0.0000 
     40 N         105.7650   60.6380   57.9510 N.am      6 SEP2        0.0000 
     41 N         104.6235   56.3950   58.0685 N.am      2 SEC2        0.0000 
     42 N         104.1300   55.2530   58.7930 N.am      6 SEP2        0.0000 
     43 O         106.3015   57.1425   59.8560 O.2       1 ALC1        0.0000 
     44 O         106.9020   56.8170   58.5750 O.2       9 ALL1        0.0000 
     45 O         105.7010   57.4680   61.1370 O.2       5 ALP1        0.0000 
     46 O         107.6050   55.9740   61.1225 O.2       1 ALC1        0.0000 
     47 O         108.6100   56.1060   59.9490 O.2       9 ALL1        0.0000 
     48 O         106.6000   55.8420   62.2960 O.2       5 ALP1        0.0000 
     49 O         107.1555   56.7870   60.5430 O.2       1 ALC1        0.0000 
     50 CA        109.7385   57.7165   57.0465 C.3       4 GLC5        0.0000 
     51 CA        108.4860   56.6000   56.4790 C.3      12 GLL5        0.0000 
     52 CA        112.3435   54.6933   52.0845 C.3       4 GLC5        0.0000 
     53 CA        110.6510   55.5530   53.5960 C.3      12 GLL5        0.0000 
     54 CA        113.3210   53.6210   50.7320 C.3       8 GLP5        0.0000 
     55 CA        109.6540   54.2425   55.2373 C.3       4 GLC5        0.0000 
     56 CA        108.7440   52.6240   56.1900 C.3       8 GLP5        0.0000 
     57 CA        107.5973   54.9895   56.1000 C.3       4 GLC5        0.0000 
     58 CA        107.3560   53.1670   55.8360 C.3       8 GLP5        0.0000 
@<TRIPOS>BOND
@<TRIPOS>SUBSTRUCTURE
     1 ALC1       43 GROUP        1 X    ALC  0     ROOT ALC X 1
     2 SEC2        4 GROUP        1 X    SEC  0     **** SEC X 2
     3 LYC4        1 GROUP        1 X    LYC  0     **** LYC X 4
     4 GLC5       21 GROUP        1 X    GLC  0     **** GLC X 6
     5 ALP1       45 GROUP        1 Y    ALP  0     ROOT ALP Y 8
     6 SEP2        6 GROUP        1 Y    SEP  0     **** SEP Y 9
     7 LYP4        3 GROUP        1 Y    LYP  0     **** LYP Y 11
     8 GLP5       23 GROUP        1 Y    GLP  0     **** GLP Y 13
     9 ALL1       44 GROUP        1 Z    ALL  0     ROOT ALL Z 15
    10 SEL2        5 GROUP        1 Z    SEL  0     **** SEL Z 16
    11 LYL4        2 GROUP        1 Z    LYL  0     **** LYL Z 18
    12 GLL5       22 GROUP        1 Z    GLL  0     **** GLL Z 20
@<TRIPOS>SET

