#    Name: 1dj3_GDP_2_ligand
#    Modification time : Mon Mar 24 22:01:26 2014

@<TRIPOS>MOLECULE
1dj3_GDP_2_ligand
   40    42     1     0     0
SMALL
NO_CHARGES


@<TRIPOS>ATOM
      1 PB        112.0050   60.2020   48.7800 P.3       1 GDP600      0.0000 
      2 O1B       111.6110   61.5610   49.1910 O.co2     1 GDP600      0.0000 
      3 O2B       110.9750   59.1930   48.5260 O.co2     1 GDP600      0.0000 
      4 O3B       112.9470   60.3160   47.5460 O.co2     1 GDP600      0.0000 
      5 O3A       113.0030   59.5850   49.8900 O.3       1 GDP600      0.0000 
      6 PA        112.9590   58.1490   50.6320 P.3       1 GDP600      0.0000 
      7 O1A       111.5990   57.5360   50.4960 O.co2     1 GDP600      0.0000 
      8 O2A       114.1470   57.3870   50.2600 O.co2     1 GDP600      0.0000 
      9 O5'       113.1350   58.6980   52.1440 O.3       1 GDP600      0.0000 
     10 C5'       112.0650   58.5490   53.0950 C.3       1 GDP600      0.0000 
     11 C4'       112.2850   57.3150   53.9890 C.3       1 GDP600      0.0000 
     12 O4'       111.2830   57.3560   55.0030 O.3       1 GDP600      0.0000 
     13 C3'       112.0810   55.9780   53.2780 C.3       1 GDP600      0.0000 
     14 O3'       113.0270   55.0200   53.7210 O.3       1 GDP600      0.0000 
     15 C2'       110.6510   55.5530   53.5960 C.3       1 GDP600      0.0000 
     16 O2'       110.3620   54.1340   53.5680 O.3       1 GDP600      0.0000 
     17 C1'       110.4770   56.1690   54.9730 C.3       1 GDP600      0.0000 
     18 N9        109.0870   56.5690   55.2330 N.pl3     1 GDP600      0.0000 
     19 C8        108.1210   56.9850   54.3680 C.2       1 GDP600      0.0000 
     20 N7        106.9810   57.2750   54.8960 N.2       1 GDP600      0.0000 
     21 C5        107.1910   57.0240   56.2490 C.2       1 GDP600      0.0000 
     22 C6        106.2910   57.1730   57.3600 C.2       1 GDP600      0.0000 
     23 O6        105.1170   57.5370   57.3440 O.2       1 GDP600      0.0000 
     24 N1        106.9020   56.8170   58.5750 N.am      1 GDP600      0.0000 
     25 C2        108.2120   56.3920   58.7160 C.2       1 GDP600      0.0000 
     26 N2        108.6100   56.1060   59.9490 N.pl3     1 GDP600      0.0000 
     27 N3        109.0630   56.2550   57.6810 N.2       1 GDP600      0.0000 
     28 C4        108.4860   56.6000   56.4790 C.2       1 GDP600      0.0000 
     29 H         111.0942   58.4258   52.5941 H         1 GDP600      0.0000 
     30 H         111.9861   59.4252   53.7542 H         1 GDP600      0.0000 
     31 H         113.2555   57.3491   54.4144 H         1 GDP600      0.0000 
     32 H         112.1402   56.1638   52.2190 H         1 GDP600      0.0000 
     33 H         110.0016   56.1266   52.9309 H         1 GDP600      0.0000 
     34 H         110.8141   55.4721   55.7091 H         1 GDP600      0.0000 
     35 H         108.3233   57.0512   53.3674 H         1 GDP600      0.0000 
     36 H         106.3026   56.8822   59.4518 H         1 GDP600      0.0000 
     37 H         109.5549   55.7931   60.0449 H         1 GDP600      0.0000 
     38 H         107.9291   56.2292   60.6709 H         1 GDP600      0.0000 
     39 H         112.5371   54.1482   53.7097 H         1 GDP600      0.0000 
     40 H         109.8371   53.9604   54.4013 H         1 GDP600      0.0000 
@<TRIPOS>BOND
     1    2    1 ar   
     2    3    1 ar   
     3    4    1 ar   
     4    5    1 1    
     5    6    5 1    
     6    7    6 ar   
     7    8    6 ar   
     8    9    6 1    
     9   10    9 1    
    10   11   10 1    
    11   29   10 1    
    12   30   10 1    
    13   12   11 1    
    14   13   11 1    
    15   31   11 1    
    16   17   12 1    
    17   14   13 1    
    18   15   13 1    
    19   32   13 1    
    20   39   14 1    
    21   16   15 1    
    22   17   15 1    
    23   33   15 1    
    24   40   16 1    
    25   18   17 1    
    26   34   17 1    
    27   19   18 1    
    28   28   18 1    
    29   20   19 2    
    30   35   19 1    
    31   21   20 1    
    32   22   21 1    
    33   28   21 2    
    34   23   22 2    
    35   24   22 am   
    36   25   24 1    
    37   36   24 1    
    38   26   25 1    
    39   27   25 2    
    40   37   26 1    
    41   38   26 1    
    42   28   27 1    
@<TRIPOS>SUBSTRUCTURE
     1 GDP600      1 GROUP   
@<TRIPOS>SET

