#    Name: 1ore_AMP_1_INTS_M
#    Modification time : Mon Mar 24 20:24:50 2014

@<TRIPOS>MOLECULE
1ore_AMP_1_INTS_M
   58     0     9     0     0
SMALL
NO_CHARGES


@<TRIPOS>ATOM
      1 N           9.3650   31.0485   20.0605 N.am      2 SEC2        0.0000 
      2 N           8.8700   30.7320   21.3920 N.am      8 SEL2        0.0000 
      3 N           9.8600   31.3650   18.7290 N.am      5 SEP2        0.0000 
      4 N           9.8485   31.6315   21.2500 N.am      2 SEC2        0.0000 
      5 N          10.8270   32.5310   21.1080 N.am      5 SEP2        0.0000 
      6 N           8.9585   27.0135   22.5755 N.am      2 SEC2        0.0000 
      7 N           9.0460   28.3020   21.7850 N.am      8 SEL2        0.0000 
      8 N           8.8710   25.7250   23.3660 N.am      5 SEP2        0.0000 
      9 N           8.2530   27.7430   20.7260 N.am      2 SEC2        0.0000 
     10 N           7.4600   27.1840   19.6670 N.am      5 SEP2        0.0000 
     11 N           6.5455   28.3165   22.3570 N.am      2 SEC2        0.0000 
     12 N           6.9780   29.6820   22.6420 N.am      8 SEL2        0.0000 
     13 N           6.1130   26.9510   22.0720 N.am      5 SEP2        0.0000 
     14 N           6.2100   29.5750   21.6195 N.am      2 SEC2        0.0000 
     15 N           5.4420   29.4680   20.5970 N.am      5 SEP2        0.0000 
     16 CA         10.4600   27.8805   25.3365 C.3       3 GLC5        0.0000 
     17 CA         10.5270   29.5090   23.9130 C.3       9 GLL5        0.0000 
     18 CA         10.3930   26.2520   26.7600 C.3       6 GLP5        0.0000 
     19 CA          8.8735   28.2395   24.3100 C.3       3 GLC5        0.0000 
     20 CA          7.2200   26.9700   24.7070 C.3       6 GLP5        0.0000 
     21 O          14.4170   30.6525   23.8245 O.2       1 ALC1        0.0000 
     22 O          13.5940   31.3370   24.6800 O.2       7 ALL1        0.0000 
     23 O          15.2400   29.9680   22.9690 O.2       4 ALP1        0.0000 
     24 CA         12.6610   27.9445   26.7375 C.3       3 GLC5        0.0000 
     25 CA         12.4320   29.9560   26.3800 C.3       9 GLL5        0.0000 
     26 CA         12.8900   25.9330   27.0950 C.3       6 GLP5        0.0000 
     27 N          13.4365   30.9735   28.4625 N.am      2 SEC2        0.0000 
     28 N          13.5870   30.2420   27.1760 N.am      8 SEL2        0.0000 
     29 N          13.2860   31.7050   29.7490 N.am      5 SEP2        0.0000 
     30 O          14.6365   29.3300   28.1485 O.2       1 ALC1        0.0000 
     31 O          13.5870   30.2420   27.1760 O.2       7 ALL1        0.0000 
     32 O          15.6860   28.4180   29.1210 O.2       4 ALP1        0.0000 
     33 O          14.5420   29.4470   27.0735 O.2       1 ALC1        0.0000 
     34 O          15.4970   28.6520   26.9710 O.2       4 ALP1        0.0000 
     35 CA          8.5530   28.2220   32.1470 C.3       3 GLC5        0.0000 
     36 CA          8.7590   28.2080   30.0730 C.3       9 GLL5        0.0000 
     37 CA          8.3470   28.2360   34.2210 C.3       6 GLP5        0.0000 
     38 CA         10.0030   26.8195   29.5280 C.3       3 GLC5        0.0000 
     39 CA         11.2470   25.4310   28.9830 C.3       6 GLP5        0.0000 
     40 CA          7.7660   26.5035   29.1225 C.3       3 GLC5        0.0000 
     41 CA          6.7730   24.7990   28.1720 C.3       6 GLP5        0.0000 
     42 O           7.1080   27.0870   31.6245 O.2       1 ALC1        0.0000 
     43 O           7.5750   27.6200   30.3620 O.2       7 ALL1        0.0000 
     44 O           6.6410   26.5540   32.8870 O.2       4 ALP1        0.0000 
     45 N           9.9385   27.4320   32.2775 N.am      2 SEC2        0.0000 
     46 N           9.8040   28.1980   31.0030 N.am      8 SEL2        0.0000 
     47 N          10.0730   26.6660   33.5520 N.am      5 SEP2        0.0000 
     48 CA          9.6775   28.5095   32.4580 C.3       3 GLC5        0.0000 
     49 CA         11.0080   28.7830   30.6950 C.3       9 GLL5        0.0000 
     50 CA         11.0700   27.2310   32.2200 C.3       3 GLC5        0.0000 
     51 CA         11.1320   25.6790   33.7450 C.3       6 GLP5        0.0000 
     52 CA         11.1275   27.1070   29.8390 C.3       3 GLC5        0.0000 
     53 N          12.2410   30.5685   29.6295 N.am      2 SEC2        0.0000 
     54 N          11.1960   29.4320   29.5100 N.am      8 SEL2        0.0000 
     55 CA         11.3172   30.9547   22.1988 C.3       3 GLC5        0.0000 
     56 CA         11.7050   31.7930   20.2500 C.3       6 GLP5        0.0000 
     57 CA          9.9832   27.7222   27.7515 C.3       3 GLC5        0.0000 
     58 CA         10.1800   29.5100   28.6190 C.3       9 GLL5        0.0000 
@<TRIPOS>BOND
@<TRIPOS>SUBSTRUCTURE
     1 ALC1       21 GROUP        1 X    ALC  0     ROOT ALC X 1
     2 SEC2        1 GROUP        1 X    SEC  0     **** SEC X 2
     3 GLC5       16 GROUP        1 X    GLC  0     **** GLC X 6
     4 ALP1       23 GROUP        1 Y    ALP  0     ROOT ALP Y 8
     5 SEP2        3 GROUP        1 Y    SEP  0     **** SEP Y 9
     6 GLP5       18 GROUP        1 Y    GLP  0     **** GLP Y 13
     7 ALL1       22 GROUP        1 Z    ALL  0     ROOT ALL Z 15
     8 SEL2        2 GROUP        1 Z    SEL  0     **** SEL Z 16
     9 GLL5       17 GROUP        1 Z    GLL  0     **** GLL Z 20
@<TRIPOS>SET

