#    Name: 1ore_AMP_1_ligand
#    Modification time : Mon Mar 24 20:24:50 2014

@<TRIPOS>MOLECULE
1ore_AMP_1_ligand
   35    37     1     0     0
SMALL
NO_CHARGES


@<TRIPOS>ATOM
      1 P           8.4780   29.6340   22.3460 P.3       1 AMP1001     0.0000 
      2 O1P         8.8700   30.7320   21.3920 O.co2     1 AMP1001     0.0000 
      3 O2P         9.0460   28.3020   21.7850 O.co2     1 AMP1001     0.0000 
      4 O3P         6.9780   29.6820   22.6420 O.co2     1 AMP1001     0.0000 
      5 O5'         9.1700   29.8900   23.7730 O.3       1 AMP1001     0.0000 
      6 C5'        10.5270   29.5090   23.9130 C.3       1 AMP1001     0.0000 
      7 C4'        11.3320   30.7240   24.3820 C.3       1 AMP1001     0.0000 
      8 O4'        10.7270   31.4140   25.4940 O.3       1 AMP1001     0.0000 
      9 C3'        12.6920   30.2570   24.9050 C.3       1 AMP1001     0.0000 
     10 O3'        13.5940   31.3370   24.6800 O.3       1 AMP1001     0.0000 
     11 C2'        12.4320   29.9560   26.3800 C.3       1 AMP1001     0.0000 
     12 O2'        13.5870   30.2420   27.1760 O.3       1 AMP1001     0.0000 
     13 C1'        11.2000   30.8480   26.7170 C.3       1 AMP1001     0.0000 
     14 N9         10.1170   30.0770   27.3630 N.pl3     1 AMP1001     0.0000 
     15 C8          8.8410   29.8360   26.8910 C.2       1 AMP1001     0.0000 
     16 N7          8.1640   29.0990   27.7990 N.2       1 AMP1001     0.0000 
     17 C5          8.9670   28.8750   28.8670 C.ar      1 AMP1001     0.0000 
     18 C6          8.7590   28.2080   30.0730 C.ar      1 AMP1001     0.0000 
     19 N6          7.5750   27.6200   30.3620 N.pl3     1 AMP1001     0.0000 
     20 N1          9.8040   28.1980   31.0030 N.ar      1 AMP1001     0.0000 
     21 C2         11.0080   28.7830   30.6950 C.ar      1 AMP1001     0.0000 
     22 N3         11.1960   29.4320   29.5100 N.ar      1 AMP1001     0.0000 
     23 C4         10.1800   29.5100   28.6190 C.ar      1 AMP1001     0.0000 
     24 H          10.9609   29.1698   22.9688 H         1 AMP1001     0.0000 
     25 H          10.6600   28.7180   24.6556 H         1 AMP1001     0.0000 
     26 H          11.5092   31.3810   23.5612 H         1 AMP1001     0.0000 
     27 H          12.9426   29.3716   24.3979 H         1 AMP1001     0.0000 
     28 H          12.1087   28.9353   26.4449 H         1 AMP1001     0.0000 
     29 H          11.5477   31.6267   27.3827 H         1 AMP1001     0.0000 
     30 H           8.5035   30.1515   26.0450 H         1 AMP1001     0.0000 
     31 H           7.5283   27.1290   31.2319 H         1 AMP1001     0.0000 
     32 H           6.8517   27.7286   29.6801 H         1 AMP1001     0.0000 
     33 H          11.7910   28.7277   31.3832 H         1 AMP1001     0.0000 
     34 H          14.2629   30.9835   24.0261 H         1 AMP1001     0.0000 
     35 H          14.0055   29.3514   27.3540 H         1 AMP1001     0.0000 
@<TRIPOS>BOND
     1    2    1 ar   
     2    3    1 ar   
     3    4    1 ar   
     4    5    1 1    
     5    6    5 1    
     6    7    6 1    
     7   24    6 1    
     8   25    6 1    
     9    8    7 1    
    10    9    7 1    
    11   26    7 1    
    12   13    8 1    
    13   10    9 1    
    14   11    9 1    
    15   27    9 1    
    16   34   10 1    
    17   12   11 1    
    18   13   11 1    
    19   28   11 1    
    20   35   12 1    
    21   14   13 1    
    22   29   13 1    
    23   15   14 1    
    24   23   14 1    
    25   16   15 2    
    26   30   15 1    
    27   17   16 1    
    28   18   17 ar   
    29   23   17 ar   
    30   19   18 1    
    31   20   18 ar   
    32   31   19 1    
    33   32   19 1    
    34   21   20 ar   
    35   22   21 ar   
    36   33   21 1    
    37   23   22 ar   
@<TRIPOS>SUBSTRUCTURE
     1 AMP1001     1 GROUP   
@<TRIPOS>SET

