#    Name: 3htj_ET_2_INTS_M
#    Modification time : Tue Mar 25 14:56:34 2014

@<TRIPOS>MOLECULE
3htj_ET_2_INTS_M
   63     0     6     0     0
SMALL
NO_CHARGES


@<TRIPOS>ATOM
      1 CA        -13.0320   18.9560   -6.8770 C.3       2 GLC5        0.0000 
      2 CA        -15.1250   19.4220   -6.6080 C.3       6 GLL5        0.0000 
      3 CA        -10.9390   18.4900   -7.1460 C.3       4 GLP5        0.0000 
      4 CA        -12.9855   18.9845   -5.4080 C.3       2 GLC5        0.0000 
      5 CA        -15.0310   19.5750   -5.1960 C.3       6 GLL5        0.0000 
      6 CA        -10.9400   18.3940   -5.6200 C.3       4 GLP5        0.0000 
      7 CA        -16.0955   23.8290   -6.8100 C.3       2 GLC5        0.0000 
      8 CA        -14.1890   24.5370   -5.8480 C.3       6 GLL5        0.0000 
      9 CA        -18.0020   23.1210   -7.7720 C.3       4 GLP5        0.0000 
     10 CA        -17.2855   23.6745   -0.5165 C.3       2 GLC5        0.0000 
     11 CA        -15.4400   22.7210   -0.3500 C.3       6 GLL5        0.0000 
     12 CA        -19.1310   24.6280   -0.6830 C.3       4 GLP5        0.0000 
     13 CA        -16.5875   20.3745   -2.9910 C.3       2 GLC5        0.0000 
     14 CA        -14.8330   19.8680   -2.2980 C.3       6 GLL5        0.0000 
     15 CA        -18.3420   20.8810   -3.6840 C.3       4 GLP5        0.0000 
     16 CA        -15.7435   18.8340   -1.0585 C.3       2 GLC5        0.0000 
     17 CA        -16.6540   17.8000    0.1810 C.3       4 GLP5        0.0000 
     18 CA        -14.4935   18.5825   -0.5275 C.3       2 GLC5        0.0000 
     19 CA        -13.5140   19.1430   -1.9640 C.3       6 GLL5        0.0000 
     20 CA        -15.4730   18.0220    0.9090 C.3       4 GLP5        0.0000 
     21 CA        -11.7100   19.3930   -0.8375 C.3       2 GLC5        0.0000 
     22 CA         -9.9060   19.6430    0.2890 C.3       4 GLP5        0.0000 
     23 O         -15.9565   17.2890   -5.9110 O.2       1 ALC1        0.0000 
     24 O         -15.3800   18.1530   -7.1720 O.2       5 ALL1        0.0000 
     25 O         -16.5330   16.4250   -4.6500 O.2       3 ALP1        0.0000 
     26 O         -16.0710   16.9010   -6.9360 O.2       1 ALC1        0.0000 
     27 O         -16.7620   15.6490   -6.7000 O.2       3 ALP1        0.0000 
     28 O         -13.8350   28.5805   -4.3655 O.2       1 ALC1        0.0000 
     29 O         -13.5660   27.2230   -3.3710 O.2       5 ALL1        0.0000 
     30 O         -14.1040   29.9380   -5.3600 O.2       3 ALP1        0.0000 
     31 CA        -13.6315   20.9890   -8.8705 C.3       2 GLC5        0.0000 
     32 CA        -14.7200   21.8050   -6.9550 C.3       6 GLL5        0.0000 
     33 CA        -12.4200   20.8020  -10.5290 C.3       4 GLP5        0.0000 
     34 CA        -15.6597   25.7775   -3.5955 C.3       2 GLC5        0.0000 
     35 CA        -13.9770   24.8550   -3.0360 C.3       6 GLL5        0.0000 
     36 CA        -17.4180   26.1490   -3.7200 C.3       4 GLP5        0.0000 
     37 CA        -14.3562   26.3745   -1.9775 C.3       2 GLC5        0.0000 
     38 CA        -13.8260   25.9570   -3.9060 C.3       6 GLL5        0.0000 
     39 CA        -14.8110   27.3430   -0.4840 C.3       4 GLP5        0.0000 
     40 CA        -13.6372   25.8322   -7.4433 C.3       2 GLC5        0.0000 
     41 CA        -13.9340   25.7900   -5.3110 C.3       6 GLL5        0.0000 
     42 CA        -13.2130   26.5010   -9.3070 C.3       4 GLP5        0.0000 
     43 CA        -15.3658   26.4462   -5.8332 C.3       2 GLC5        0.0000 
     44 CA        -16.6700   27.7290   -6.0870 C.3       4 GLP5        0.0000 
     45 CA        -15.8565   24.8042   -3.9963 C.3       2 GLC5        0.0000 
     46 CA        -14.3480   23.3800   -4.9960 C.3       6 GLL5        0.0000 
     47 CA        -16.3660   22.3582   -7.0753 C.3       2 GLC5        0.0000 
     48 CA        -14.6170   22.0150   -5.5450 C.3       6 GLL5        0.0000 
     49 CA        -11.2980   21.6968    0.6675 C.3       2 GLC5        0.0000 
     50 CA        -12.9880   22.4700   -0.5480 C.3       6 GLL5        0.0000 
     51 CA         -9.6730   20.8380    1.1900 C.3       4 GLP5        0.0000 
     52 CA        -12.3788   22.6422    2.7968 C.3       2 GLC5        0.0000 
     53 CA        -12.8580   22.6410    0.8380 C.3       6 GLL5        0.0000 
     54 CA        -11.3290   22.5400    4.3570 C.3       4 GLP5        0.0000 
     55 CA        -14.0307   24.4187    1.4482 C.3       2 GLC5        0.0000 
     56 CA        -13.9990   22.8480    1.6350 C.3       6 GLL5        0.0000 
     57 CA        -14.6330   26.0930    1.6600 C.3       4 GLP5        0.0000 
     58 CA        -16.0012   23.3565    2.8102 C.3       2 GLC5        0.0000 
     59 CA        -17.3600   23.8450    4.2810 C.3       4 GLP5        0.0000 
     60 CA        -14.9980   24.4488    1.0035 C.3       2 GLC5        0.0000 
     61 CA        -15.2860   22.8880    1.0440 C.3       6 GLL5        0.0000 
     62 CA        -12.4073   19.6647   -2.8585 C.3       2 GLC5        0.0000 
     63 CA        -10.6410   19.8240   -3.5860 C.3       4 GLP5        0.0000 
@<TRIPOS>BOND
@<TRIPOS>SUBSTRUCTURE
     1 ALC1       23 GROUP        1 X    ALC  0     ROOT ALC X 1
     2 GLC5        1 GROUP        1 X    GLC  0     **** GLC X 6
     3 ALP1       25 GROUP        1 Y    ALP  0     ROOT ALP Y 8
     4 GLP5        3 GROUP        1 Y    GLP  0     **** GLP Y 13
     5 ALL1       24 GROUP        1 Z    ALL  0     ROOT ALL Z 15
     6 GLL5        2 GROUP        1 Z    GLL  0     **** GLL Z 20
@<TRIPOS>SET

