#    Name: 3htj_ET_2_ligand
#    Modification time : Tue Mar 25 14:56:34 2014

@<TRIPOS>MOLECULE
3htj_ET_2_ligand
   44    47     1     0     0
SMALL
NO_CHARGES


@<TRIPOS>ATOM
      1 C1        -14.7200   21.8050   -6.9550 C.ar      1 ET21        0.0000 
      2 C2        -14.9660   20.5470   -7.4690 C.ar      1 ET21        0.0000 
      3 C3        -15.1250   19.4220   -6.6080 C.ar      1 ET21        0.0000 
      4 C4        -15.0310   19.5750   -5.1960 C.ar      1 ET21        0.0000 
      5 N5        -14.6610   21.0760   -3.2090 N.ar      1 ET21        0.0000 
      6 C6        -14.4080   22.3240   -2.6530 C.ar      1 ET21        0.0000 
      7 C7        -13.9770   24.8550   -3.0360 C.ar      1 ET21        0.0000 
      8 C8        -13.8260   25.9570   -3.9060 C.ar      1 ET21        0.0000 
      9 C9        -13.9340   25.7900   -5.3110 C.ar      1 ET21        0.0000 
     10 C10       -14.1890   24.5370   -5.8480 C.ar      1 ET21        0.0000 
     11 C11       -14.2420   23.5390   -3.5490 C.ar      1 ET21        0.0000 
     12 C12       -14.3480   23.3800   -4.9960 C.ar      1 ET21        0.0000 
     13 C13       -14.6170   22.0150   -5.5450 C.ar      1 ET21        0.0000 
     14 C14       -14.7690   20.8850   -4.6130 C.ar      1 ET21        0.0000 
     15 C15       -14.2860   22.5080   -1.1610 C.ar      1 ET21        0.0000 
     16 C16       -12.9880   22.4700   -0.5480 C.ar      1 ET21        0.0000 
     17 C17       -12.8580   22.6410    0.8380 C.ar      1 ET21        0.0000 
     18 C18       -13.9990   22.8480    1.6350 C.ar      1 ET21        0.0000 
     19 C19       -15.2860   22.8880    1.0440 C.ar      1 ET21        0.0000 
     20 C20       -15.4400   22.7210   -0.3500 C.ar      1 ET21        0.0000 
     21 C21       -14.8330   19.8680   -2.2980 C.3       1 ET21        0.0000 
     22 C22       -13.5140   19.1430   -1.9640 C.3       1 ET21        0.0000 
     23 N23       -15.3800   18.1530   -7.1720 N.pl3     1 ET21        0.0000 
     24 N24       -13.5660   27.2230   -3.3710 N.pl3     1 ET21        0.0000 
     25 H         -14.6060   22.6167   -7.5790 H         1 ET21        0.0000 
     26 H         -15.0391   20.3993   -8.4865 H         1 ET21        0.0000 
     27 H         -15.1447   18.7776   -4.5796 H         1 ET21        0.0000 
     28 H         -13.8985   24.9842   -2.0233 H         1 ET21        0.0000 
     29 H         -13.8208   26.6080   -5.9198 H         1 ET21        0.0000 
     30 H         -14.2707   24.4026   -6.8631 H         1 ET21        0.0000 
     31 H         -12.1677   22.3174   -1.1346 H         1 ET21        0.0000 
     32 H         -11.9307   22.6155    1.2732 H         1 ET21        0.0000 
     33 H         -13.9033   22.9707    2.6464 H         1 ET21        0.0000 
     34 H         -16.1093   23.0392    1.6334 H         1 ET21        0.0000 
     35 H         -16.3597   22.7512   -0.7764 H         1 ET21        0.0000 
     36 H         -15.5169   19.1480   -2.7745 H         1 ET21        0.0000 
     37 H         -15.3046   20.1879   -1.3555 H         1 ET21        0.0000 
     38 H         -15.9011   17.5157   -6.6042 H         1 ET21        0.0000 
     39 H         -15.0179   17.9992   -8.0913 H         1 ET21        0.0000 
     40 H         -13.5135   27.2770   -2.3738 H         1 ET21        0.0000 
     41 H         -13.4549   27.9655   -4.0316 H         1 ET21        0.0000 
     42 H         -13.0588   18.8024   -2.7867 H         1 ET21        0.0000 
     43 H         -12.8661   19.7463   -1.4990 H         1 ET21        0.0000 
     44 H         -13.6639   18.3564   -1.3650 H         1 ET21        0.0000 
@<TRIPOS>BOND
     1    2    1 ar   
     2   13    1 ar   
     3   25    1 1    
     4    3    2 ar   
     5   26    2 1    
     6    4    3 ar   
     7   23    3 1    
     8   14    4 ar   
     9   27    4 1    
    10    6    5 ar   
    11   14    5 ar   
    12   21    5 1    
    13   11    6 ar   
    14   15    6 1    
    15    8    7 ar   
    16   11    7 ar   
    17   28    7 1    
    18    9    8 ar   
    19   24    8 1    
    20   10    9 ar   
    21   29    9 1    
    22   12   10 ar   
    23   30   10 1    
    24   12   11 ar   
    25   13   12 ar   
    26   14   13 ar   
    27   16   15 ar   
    28   20   15 ar   
    29   17   16 ar   
    30   31   16 1    
    31   18   17 ar   
    32   32   17 1    
    33   19   18 ar   
    34   33   18 1    
    35   20   19 ar   
    36   34   19 1    
    37   35   20 1    
    38   22   21 1    
    39   36   21 1    
    40   37   21 1    
    41   42   22 1    
    42   43   22 1    
    43   44   22 1    
    44   38   23 1    
    45   39   23 1    
    46   40   24 1    
    47   41   24 1    
@<TRIPOS>SUBSTRUCTURE
     1 ET21        1 GROUP   
@<TRIPOS>SET

