#    Name: 2qf7_AGS_2_INTS_M
#    Modification time : Mon Mar 24 21:54:45 2014

@<TRIPOS>MOLECULE
2qf7_AGS_2_INTS_M
   59     0    15     0     0
SMALL
NO_CHARGES


@<TRIPOS>ATOM
      1 CA        150.1145   67.9245   45.9015 C.3       5 GLC5        0.0000 
      2 CA        151.8180   66.7360   45.3390 C.3      15 GLL5        0.0000 
      3 CA        148.4110   69.1130   46.4640 C.3      10 GLP5        0.0000 
      4 Zn        154.7485   66.3450   43.0580 Zn        4 ZIC7        0.0000 
      5 Zn        153.7800   66.5440   43.0370 Zn       14 ZIL7        0.0000 
      6 Zn        155.7170   66.1460   43.0790 Zn        9 ZIP7        0.0000 
      7 N         154.1770   68.0240   43.7920 N.am      2 SEC2        0.0000 
      8 N         153.7800   66.5440   43.0370 N.am     12 SEL2        0.0000 
      9 N         154.5740   69.5040   44.5470 N.am      7 SEP2        0.0000 
     10 Zn        155.3820   65.0470   43.3590 Zn        4 ZIC7        0.0000 
     11 Zn        155.0470   63.9480   43.6390 Zn       14 ZIL7        0.0000 
     12 NZ        155.5360   60.8665   48.0015 N.4       3 LYC4        0.0000 
     13 NZ        154.7950   62.0230   47.3930 N.4      13 LYL4        0.0000 
     14 NZ        156.2770   59.7100   48.6100 N.4       8 LYP4        0.0000 
     15 N         155.5360   60.8665   48.0015 N.am      2 SEC2        0.0000 
     16 N         154.7950   62.0230   47.3930 N.am     12 SEL2        0.0000 
     17 N         156.2770   59.7100   48.6100 N.am      7 SEP2        0.0000 
     18 Zn        153.7075   65.3075   46.5895 Zn        4 ZIC7        0.0000 
     19 Zn        153.7240   64.3620   46.8260 Zn       14 ZIL7        0.0000 
     20 Zn        153.6910   66.2530   46.3530 Zn        9 ZIP7        0.0000 
     21 CA        151.6490   61.2215   45.5810 C.3       5 GLC5        0.0000 
     22 CA        151.0520   62.8620   46.9150 C.3      15 GLL5        0.0000 
     23 CA        152.2460   59.5810   44.2470 C.3      10 GLP5        0.0000 
     24 CA        149.1975   63.9670   50.5110 C.3       5 GLC5        0.0000 
     25 CA        149.8820   62.3600   49.1200 C.3      15 GLL5        0.0000 
     26 CA        148.5130   65.5740   51.9020 C.3      10 GLP5        0.0000 
     27 N         147.8415   64.0985   49.0525 N.am      2 SEC2        0.0000 
     28 N         149.0740   63.5120   49.4070 N.am     12 SEL2        0.0000 
     29 N         146.6090   64.6850   48.6980 N.am      7 SEP2        0.0000 
     30 O         149.6960   64.7525   49.7860 O.2       1 ALC1        0.0000 
     31 O         149.0740   63.5120   49.4070 O.2      11 ALL1        0.0000 
     32 O         150.3180   65.9930   50.1650 O.2       6 ALP1        0.0000 
     33 CA        147.6975   61.5850   50.9020 C.3       5 GLC5        0.0000 
     34 CA        149.3000   61.0930   49.7150 C.3      15 GLL5        0.0000 
     35 CA        146.0950   62.0770   52.0890 C.3      10 GLP5        0.0000 
     36 O         146.8045   61.8265   48.8750 O.2       1 ALC1        0.0000 
     37 O         147.8830   61.0210   49.4730 O.2      11 ALL1        0.0000 
     38 O         145.7260   62.6320   48.2770 O.2       6 ALP1        0.0000 
     39 CA        150.9795   59.1400   47.1445 C.3       5 GLC5        0.0000 
     40 CA        149.9070   60.0110   48.8240 C.3      15 GLL5        0.0000 
     41 CA        152.0520   58.2690   45.4650 C.3      10 GLP5        0.0000 
     42 O         155.2700   57.4420   51.4150 O.2       1 ALC1        0.0000 
     43 O         154.1310   56.8290   51.9690 O.2      11 ALL1        0.0000 
     44 O         156.4090   58.0550   50.8610 O.2       6 ALP1        0.0000 
     45 O         154.4195   55.6330   53.1030 O.2       1 ALC1        0.0000 
     46 O         154.7080   54.4370   54.2370 O.2       6 ALP1        0.0000 
     47 CA        150.4550   55.7155   50.9855 C.3       5 GLC5        0.0000 
     48 CA        150.5080   57.2280   52.3540 C.3      15 GLL5        0.0000 
     49 CA        150.4020   54.2030   49.6170 C.3      10 GLP5        0.0000 
     50 CA        150.7300   57.1905   54.4230 C.3       5 GLC5        0.0000 
     51 CA        150.9520   57.1530   56.4920 C.3      10 GLP5        0.0000 
     52 CA        149.3330   58.4355   53.7465 C.3       5 GLC5        0.0000 
     53 CA        148.1580   59.6430   55.1390 C.3      10 GLP5        0.0000 
     54 CA        151.4230   58.6130   52.9290 C.3       5 GLC5        0.0000 
     55 CA        152.3380   59.9980   53.5040 C.3      10 GLP5        0.0000 
     56 CA        151.5475   56.6900   49.6191 C.3       5 GLC5        0.0000 
     57 CA        152.5410   58.1470   50.6630 C.3      15 GLL5        0.0000 
     58 CA        151.1910   55.2640   48.3870 C.3      10 GLP5        0.0000 
     59 CA        152.1210   59.0570   52.1776 C.3       5 GLC5        0.0000 
@<TRIPOS>BOND
@<TRIPOS>SUBSTRUCTURE
     1 ALC1       30 GROUP        1 X    ALC  0     ROOT ALC X 1
     2 SEC2        7 GROUP        1 X    SEC  0     **** SEC X 2
     3 LYC4       12 GROUP        1 X    LYC  0     **** LYC X 4
     4 ZIC7        4 GROUP        1 X    ZIC  0     **** ZIC X 5
     5 GLC5        1 GROUP        1 X    GLC  0     **** GLC X 6
     6 ALP1       32 GROUP        1 Y    ALP  0     ROOT ALP Y 8
     7 SEP2        9 GROUP        1 Y    SEP  0     **** SEP Y 9
     8 LYP4       14 GROUP        1 Y    LYP  0     **** LYP Y 11
     9 ZIP7        6 GROUP        1 Y    ZIP  0     **** ZIP Y 12
    10 GLP5        3 GROUP        1 Y    GLP  0     **** GLP Y 13
    11 ALL1       31 GROUP        1 Z    ALL  0     ROOT ALL Z 15
    12 SEL2        8 GROUP        1 Z    SEL  0     **** SEL Z 16
    13 LYL4       13 GROUP        1 Z    LYL  0     **** LYL Z 18
    14 ZIL7        5 GROUP        1 Z    ZIL  0     **** ZIL Z 19
    15 GLL5        2 GROUP        1 Z    GLL  0     **** GLL Z 20
@<TRIPOS>SET

