#    Name: 2qf7_AGS_2_ligand
#    Modification time : Mon Mar 24 21:54:45 2014

@<TRIPOS>MOLECULE
2qf7_AGS_2_ligand
   43    45     1     0     0
SMALL
NO_CHARGES


@<TRIPOS>ATOM
      1 PG        152.3130   65.7830   43.7020 P.3       1 AGS1161     0.0000 
      2 S1G       151.8180   66.7360   45.3390 S.3       1 AGS1161     0.0000 
      3 O2G       153.7800   66.5440   43.0370 O.co2     1 AGS1161     0.0000 
      4 O3G       151.0010   65.8310   42.5160 O.co2     1 AGS1161     0.0000 
      5 PB        153.7130   63.2520   43.8250 P.3       1 AGS1161     0.0000 
      6 O1B       153.2150   62.3510   42.7200 O.co2     1 AGS1161     0.0000 
      7 O2B       155.0470   63.9480   43.6390 O.co2     1 AGS1161     0.0000 
      8 O3B       152.5150   64.2560   44.2020 O.3       1 AGS1161     0.0000 
      9 PA        153.7220   62.8480   46.6840 P.3       1 AGS1161     0.0000 
     10 O1A       154.7950   62.0230   47.3930 O.co2     1 AGS1161     0.0000 
     11 O2A       153.7240   64.3620   46.8260 O.co2     1 AGS1161     0.0000 
     12 O3A       153.7260   62.3370   45.1460 O.3       1 AGS1161     0.0000 
     13 O5'       152.3160   62.2780   47.2240 O.3       1 AGS1161     0.0000 
     14 C5'       151.0520   62.8620   46.9150 C.3       1 AGS1161     0.0000 
     15 C4'       149.9720   62.0400   47.6240 C.3       1 AGS1161     0.0000 
     16 O4'       150.2120   60.6130   47.5490 O.3       1 AGS1161     0.0000 
     17 C3'       149.8820   62.3600   49.1200 C.3       1 AGS1161     0.0000 
     18 O3'       149.0740   63.5120   49.4070 O.3       1 AGS1161     0.0000 
     19 C2'       149.3000   61.0930   49.7150 C.3       1 AGS1161     0.0000 
     20 O2'       147.8830   61.0210   49.4730 O.3       1 AGS1161     0.0000 
     21 C1'       149.9070   60.0110   48.8240 C.3       1 AGS1161     0.0000 
     22 N9        151.1200   59.3680   49.4200 N.pl3     1 AGS1161     0.0000 
     23 C8        152.3960   59.4790   48.9490 C.2       1 AGS1161     0.0000 
     24 N7        153.2770   58.7470   49.7000 N.2       1 AGS1161     0.0000 
     25 C5        152.5410   58.1470   50.6630 C.ar      1 AGS1161     0.0000 
     26 C6        152.8390   57.2210   51.7740 C.ar      1 AGS1161     0.0000 
     27 N6        154.1310   56.8290   51.9690 N.pl3     1 AGS1161     0.0000 
     28 N1        151.7870   56.8230   52.5610 N.ar      1 AGS1161     0.0000 
     29 C2        150.5080   57.2280   52.3540 C.ar      1 AGS1161     0.0000 
     30 N3        150.1530   58.0710   51.3450 N.ar      1 AGS1161     0.0000 
     31 C4        151.1180   58.5480   50.4840 C.ar      1 AGS1161     0.0000 
     32 H         150.8408   62.8397   45.8480 H         1 AGS1161     0.0000 
     33 H         150.9771   63.8875   47.2705 H         1 AGS1161     0.0000 
     34 H         149.0053   62.2730   47.1889 H         1 AGS1161     0.0000 
     35 H         150.8912   62.4541   49.4870 H         1 AGS1161     0.0000 
     36 H         149.5927   60.9549   50.6766 H         1 AGS1161     0.0000 
     37 H         149.1352   59.2444   48.6807 H         1 AGS1161     0.0000 
     38 H         152.6529   60.0152   48.1703 H         1 AGS1161     0.0000 
     39 H         154.2898   56.1995   52.7296 H         1 AGS1161     0.0000 
     40 H         154.8057   57.2057   51.3342 H         1 AGS1161     0.0000 
     41 H         149.7517   56.8739   53.0046 H         1 AGS1161     0.0000 
     42 H         149.6887   64.2931   49.2967 H         1 AGS1161     0.0000 
     43 H         147.6716   61.8339   48.9303 H         1 AGS1161     0.0000 
@<TRIPOS>BOND
     1    2    1 1    
     2    3    1 ar   
     3    4    1 ar   
     4    8    1 1    
     5    6    5 ar   
     6    7    5 ar   
     7    8    5 1    
     8   12    5 1    
     9   10    9 ar   
    10   11    9 ar   
    11   12    9 1    
    12   13    9 1    
    13   14   13 1    
    14   15   14 1    
    15   32   14 1    
    16   33   14 1    
    17   16   15 1    
    18   17   15 1    
    19   34   15 1    
    20   21   16 1    
    21   18   17 1    
    22   19   17 1    
    23   35   17 1    
    24   42   18 1    
    25   20   19 1    
    26   21   19 1    
    27   36   19 1    
    28   43   20 1    
    29   22   21 1    
    30   37   21 1    
    31   23   22 1    
    32   31   22 1    
    33   24   23 2    
    34   38   23 1    
    35   25   24 1    
    36   26   25 ar   
    37   31   25 ar   
    38   27   26 1    
    39   28   26 ar   
    40   39   27 1    
    41   40   27 1    
    42   29   28 ar   
    43   30   29 ar   
    44   41   29 1    
    45   31   30 ar   
@<TRIPOS>SUBSTRUCTURE
     1 AGS1161     1 GROUP   
@<TRIPOS>SET

