#    Name: 3lu7_IPX_2_INTS_M
#    Modification time : Mon Mar 24 22:19:59 2014

@<TRIPOS>MOLECULE
3lu7_IPX_2_INTS_M
   75     0     9     0     0
SMALL
NO_CHARGES


@<TRIPOS>ATOM
      1 CA         -4.8200  -12.9655  -43.9235 C.3       3 GLC5        0.0000 
      2 CA         -2.8410  -12.4100  -43.6380 C.3       9 GLL5        0.0000 
      3 CA         -6.7990  -13.5210  -44.2090 C.3       6 GLP5        0.0000 
      4 CA         -1.0630  -15.4065  -43.7090 C.3       3 GLC5        0.0000 
      5 CA         -2.0280  -13.5020  -43.3810 C.3       9 GLL5        0.0000 
      6 CA         -0.0980  -17.3110  -44.0370 C.3       6 GLP5        0.0000 
      7 CA         -1.1950  -15.8230  -42.3855 C.3       3 GLC5        0.0000 
      8 CA         -1.7370  -13.8260  -42.0480 C.3       9 GLL5        0.0000 
      9 CA         -0.6530  -17.8200  -42.7230 C.3       6 GLP5        0.0000 
     10 CA         -3.0140   -9.4005  -45.8005 C.3       3 GLC5        0.0000 
     11 CA         -4.0500  -10.7960  -44.5110 C.3       9 GLL5        0.0000 
     12 CA         -1.9780   -8.0050  -47.0900 C.3       6 GLP5        0.0000 
     13 CA         -3.4345   -8.7840  -42.3915 C.3       3 GLC5        0.0000 
     14 CA         -4.0910  -10.6810  -43.1530 C.3       9 GLL5        0.0000 
     15 CA         -2.7780   -6.8870  -41.6300 C.3       6 GLP5        0.0000 
     16 CA         -3.4905  -12.7250  -39.0595 C.3       3 GLC5        0.0000 
     17 CA         -1.9980  -13.3330  -39.7040 C.3       9 GLL5        0.0000 
     18 CA         -4.9830  -12.1170  -38.4150 C.3       6 GLP5        0.0000 
     19 CA         -7.6310   -8.3215  -44.7655 C.3       3 GLC5        0.0000 
     20 CA         -7.5210   -9.0780  -46.8100 C.3       9 GLL5        0.0000 
     21 CA         -7.7410   -7.5650  -42.7210 C.3       6 GLP5        0.0000 
     22 CA        -10.5315   -5.0400  -49.3615 C.3       3 GLC5        0.0000 
     23 CA         -9.0100   -5.8270  -48.2120 C.3       9 GLL5        0.0000 
     24 CA        -12.0530   -4.2530  -50.5110 C.3       6 GLP5        0.0000 
     25 CA         -9.6080  -10.0920  -48.6415 C.3       3 GLC5        0.0000 
     26 CA         -8.5810  -10.1810  -47.0520 C.3       9 GLL5        0.0000 
     27 CA        -10.6350  -10.0030  -50.2310 C.3       6 GLP5        0.0000 
     28 CA         -9.6845   -9.3740  -44.3380 C.3       3 GLC5        0.0000 
     29 CA         -9.1590  -10.8240  -45.7910 C.3       9 GLL5        0.0000 
     30 CA        -10.2100   -7.9240  -42.8850 C.3       6 GLP5        0.0000 
     31 CA         -9.3810  -11.2245  -43.6985 C.3       3 GLC5        0.0000 
     32 CA         -9.6030  -11.6250  -41.6060 C.3       6 GLP5        0.0000 
     33 CA        -11.6445  -12.8405  -45.6335 C.3       3 GLC5        0.0000 
     34 CA        -10.2990  -11.7550  -46.1550 C.3       9 GLL5        0.0000 
     35 CA        -12.9900  -13.9260  -45.1120 C.3       6 GLP5        0.0000 
     36 CA        -10.4670  -10.8790  -48.1930 C.3       3 GLC5        0.0000 
     37 N         -12.9995  -11.4020  -44.4715 N.am      1 SEC2        0.0000 
     38 N         -12.1180  -10.5560  -45.2640 N.am      7 SEL2        0.0000 
     39 N         -13.8810  -12.2480  -43.6790 N.am      4 SEP2        0.0000 
     40 NZ        -13.5280  -11.4940  -47.8425 N.4       2 LYC4        0.0000 
     41 NZ        -12.1590  -10.7470  -47.4700 N.4       8 LYL4        0.0000 
     42 NZ        -15.8550  -11.9640  -47.3430 N.4       5 LYP4        0.0000 
     43 N         -13.5280  -11.4940  -47.8425 N.am      1 SEC2        0.0000 
     44 N         -12.1590  -10.7470  -47.4700 N.am      7 SEL2        0.0000 
     45 N         -14.8970  -12.2410  -48.2150 N.am      4 SEP2        0.0000 
     46 CA         -3.9085   -8.4307  -47.3998 C.3       3 GLC5        0.0000 
     47 CA         -6.1750   -9.5160  -47.4770 C.3       9 GLL5        0.0000 
     48 CA         -4.9458  -12.8620  -42.3300 C.3       3 GLC5        0.0000 
     49 CA         -3.3410  -11.6710  -42.6010 C.3       9 GLL5        0.0000 
     50 CA         -6.6840  -13.9050  -42.7180 C.3       6 GLP5        0.0000 
     51 CA         -1.6253  -11.0685  -41.3625 C.3       3 GLC5        0.0000 
     52 CA         -0.0430  -10.3180  -40.7830 C.3       6 GLP5        0.0000 
     53 CA         -3.8637  -14.4100  -42.6048 C.3       3 GLC5        0.0000 
     54 CA         -5.8450  -15.1560  -42.4950 C.3       6 GLP5        0.0000 
     55 CA         -3.4968  -14.8145  -40.4057 C.3       3 GLC5        0.0000 
     56 CA         -2.2590  -13.0570  -40.9910 C.3       9 GLL5        0.0000 
     57 CA         -4.8650  -16.4340  -40.4640 C.3       6 GLP5        0.0000 
     58 CA         -1.9347  -14.4025  -38.9173 C.3       3 GLC5        0.0000 
     59 CA         -1.7410  -15.6100  -37.4870 C.3       6 GLP5        0.0000 
     60 CA         -5.4348  -12.1297  -44.0205 C.3       3 GLC5        0.0000 
     61 CA         -1.0205  -11.8526  -40.6974 C.3       3 GLC5        0.0000 
     62 CA         -6.7635   -5.8535  -46.8143 C.3       3 GLC5        0.0000 
     63 CA         -6.6590   -7.2710  -48.1120 C.3       9 GLL5        0.0000 
     64 CA         -6.3040   -4.1940  -45.8300 C.3       6 GLP5        0.0000 
     65 CA         -9.2275   -8.0380  -49.1142 C.3       3 GLC5        0.0000 
     66 CA         -7.7870   -7.7550  -47.4850 C.3       9 GLL5        0.0000 
     67 CA        -10.0730   -8.6790  -50.7260 C.3       6 GLP5        0.0000 
     68 CA         -6.7845   -4.9490  -47.3275 C.3       3 GLC5        0.0000 
     69 CA         -7.8610   -5.3410  -48.8480 C.3       9 GLL5        0.0000 
     70 CA         -6.0060   -4.6890  -50.0740 C.3       3 GLC5        0.0000 
     71 CA         -6.6690   -6.0670  -48.8020 C.3       9 GLL5        0.0000 
     72 CA         -4.7470   -3.6740  -51.3230 C.3       6 GLP5        0.0000 
     73 CA         -9.2542   -7.1315  -49.6280 C.3       3 GLC5        0.0000 
     74 CA         -7.6487   -5.3135  -46.8480 C.3       3 GLC5        0.0000 
     75 CA         -8.2640  -12.4053  -45.0910 C.3       3 GLC5        0.0000 
@<TRIPOS>BOND
@<TRIPOS>SUBSTRUCTURE
     1 SEC2       37 GROUP        1 X    SEC  0     ROOT SEC X 2
     2 LYC4       40 GROUP        1 X    LYC  0     **** LYC X 4
     3 GLC5        1 GROUP        1 X    GLC  0     **** GLC X 6
     4 SEP2       39 GROUP        1 Y    SEP  0     ROOT SEP Y 9
     5 LYP4       42 GROUP        1 Y    LYP  0     **** LYP Y 11
     6 GLP5        3 GROUP        1 Y    GLP  0     **** GLP Y 13
     7 SEL2       38 GROUP        1 Z    SEL  0     ROOT SEL Z 16
     8 LYL4       41 GROUP        1 Z    LYL  0     **** LYL Z 18
     9 GLL5        2 GROUP        1 Z    GLL  0     **** GLL Z 20
@<TRIPOS>SET

