#    Name: 3lu7_IPX_2_ligand
#    Modification time : Mon Mar 24 22:19:59 2014

@<TRIPOS>MOLECULE
3lu7_IPX_2_ligand
   48    51     1     0     0
SMALL
NO_CHARGES


@<TRIPOS>ATOM
      1 C1         -6.1750   -9.5160  -47.4770 C.3       1 IPX586      0.0000 
      2 C2         -3.3410  -11.6710  -42.6010 C.ar      1 IPX586      0.0000 
      3 C3         -2.8410  -12.4100  -43.6380 C.ar      1 IPX586      0.0000 
      4 C4         -3.0740  -11.9670  -41.2830 C.ar      1 IPX586      0.0000 
      5 C5         -2.0280  -13.5020  -43.3810 C.ar      1 IPX586      0.0000 
      6 C6         -2.2590  -13.0570  -40.9910 C.ar      1 IPX586      0.0000 
      7 C7         -1.7370  -13.8260  -42.0480 C.ar      1 IPX586      0.0000 
      8 N8         -3.2810  -11.8690  -44.7960 N.pl3     1 IPX586      0.0000 
      9 C9         -4.0500  -10.7960  -44.5110 C.2       1 IPX586      0.0000 
     10 C10        -4.0910  -10.6810  -43.1530 C.2       1 IPX586      0.0000 
     11 F11        -1.9980  -13.3330  -39.7040 F         1 IPX586      0.0000 
     12 C12        -4.7830   -9.9050  -45.4040 C.2       1 IPX586      0.0000 
     13 O13        -4.9100   -8.7510  -45.0590 O.2       1 IPX586      0.0000 
     14 N14        -5.3760  -10.3560  -46.5710 N.am      1 IPX586      0.0000 
     15 C15        -5.5030   -8.1970  -47.9420 C.3       1 IPX586      0.0000 
     16 C16        -6.6590   -7.2710  -48.1120 C.ar      1 IPX586      0.0000 
     17 C17        -7.7870   -7.7550  -47.4850 C.ar      1 IPX586      0.0000 
     18 C18        -7.5210   -9.0780  -46.8100 C.3       1 IPX586      0.0000 
     19 C19        -6.6690   -6.0670  -48.8020 C.ar      1 IPX586      0.0000 
     20 C20        -7.8610   -5.3410  -48.8480 C.ar      1 IPX586      0.0000 
     21 C21        -9.0100   -5.8270  -48.2120 C.ar      1 IPX586      0.0000 
     22 C22        -8.9770   -7.0390  -47.5200 C.ar      1 IPX586      0.0000 
     23 C23        -8.5810  -10.1810  -47.0520 C.3       1 IPX586      0.0000 
     24 C24        -9.1590  -10.8240  -45.7910 C.3       1 IPX586      0.0000 
     25 C25       -10.2990  -11.7550  -46.1550 C.3       1 IPX586      0.0000 
     26 C26       -11.5850  -10.9800  -46.2610 C.2       1 IPX586      0.0000 
     27 O27       -12.1180  -10.5560  -45.2640 O.co2     1 IPX586      0.0000 
     28 O28       -12.1590  -10.7470  -47.4700 O.co2     1 IPX586      0.0000 
     29 H          -6.4605  -10.0636  -48.3782 H         1 IPX586      0.0000 
     30 H          -3.4643  -11.4002  -40.5269 H         1 IPX586      0.0000 
     31 H          -1.6455  -14.0631  -44.1395 H         1 IPX586      0.0000 
     32 H          -1.1359  -14.6338  -41.8381 H         1 IPX586      0.0000 
     33 H          -3.0779  -12.1972  -45.6832 H         1 IPX586      0.0000 
     34 H          -4.5756  -10.0043  -42.6645 H         1 IPX586      0.0000 
     35 H          -5.2686  -11.3588  -46.8588 H         1 IPX586      0.0000 
     36 H          -5.0145   -8.3725  -48.8655 H         1 IPX586      0.0000 
     37 H          -4.8523   -7.8599  -47.1770 H         1 IPX586      0.0000 
     38 H          -7.3292   -8.9430  -45.7843 H         1 IPX586      0.0000 
     39 H          -5.8333   -5.7194  -49.2629 H         1 IPX586      0.0000 
     40 H          -7.8970   -4.4451  -49.3508 H         1 IPX586      0.0000 
     41 H          -9.8840   -5.2855  -48.2561 H         1 IPX586      0.0000 
     42 H          -9.8107   -7.3888  -47.0510 H         1 IPX586      0.0000 
     43 H          -8.1251  -10.9680  -47.6823 H         1 IPX586      0.0000 
     44 H          -9.4065   -9.7446  -47.6458 H         1 IPX586      0.0000 
     45 H          -9.5228  -10.0432  -45.1279 H         1 IPX586      0.0000 
     46 H          -8.3763  -11.3850  -45.2866 H         1 IPX586      0.0000 
     47 H         -10.3950  -12.5224  -45.3879 H         1 IPX586      0.0000 
     48 H         -10.0802  -12.2354  -47.1079 H         1 IPX586      0.0000 
@<TRIPOS>BOND
     1   14    1 1    
     2   15    1 1    
     3   18    1 1    
     4   29    1 1    
     5    3    2 ar   
     6    4    2 ar   
     7   10    2 1    
     8    5    3 ar   
     9    8    3 1    
    10    6    4 ar   
    11   30    4 1    
    12    7    5 ar   
    13   31    5 1    
    14    7    6 ar   
    15   11    6 1    
    16   32    7 1    
    17    9    8 1    
    18   33    8 1    
    19   10    9 2    
    20   12    9 1    
    21   34   10 1    
    22   13   12 2    
    23   14   12 am   
    24   35   14 1    
    25   16   15 1    
    26   36   15 1    
    27   37   15 1    
    28   17   16 ar   
    29   19   16 ar   
    30   18   17 1    
    31   22   17 ar   
    32   23   18 1    
    33   38   18 1    
    34   20   19 ar   
    35   39   19 1    
    36   21   20 ar   
    37   40   20 1    
    38   22   21 ar   
    39   41   21 1    
    40   42   22 1    
    41   24   23 1    
    42   43   23 1    
    43   44   23 1    
    44   25   24 1    
    45   45   24 1    
    46   46   24 1    
    47   26   25 1    
    48   47   25 1    
    49   48   25 1    
    50   27   26 ar   
    51   28   26 ar   
@<TRIPOS>SUBSTRUCTURE
     1 IPX586      1 GROUP   
@<TRIPOS>SET

