#    Name: 3qlx_QLR_1_INTS_M
#    Modification time : Tue Mar 25 09:55:27 2014

@<TRIPOS>MOLECULE
3qlx_QLR_1_INTS_M
   76     0     9     0     0
SMALL
NO_CHARGES


@<TRIPOS>ATOM
      1 N          10.4010   -5.0240    5.1290 N.am      2 SEC2        0.0000 
      2 N          10.9120   -5.2770    3.9270 N.am      8 SEL2        0.0000 
      3 N           9.8900   -4.7710    6.3310 N.am      5 SEP2        0.0000 
      4 CA          9.3560   -4.8950    1.0210 C.3       3 GLC5        0.0000 
      5 CA         10.4660   -4.7340    2.7880 C.3       9 GLL5        0.0000 
      6 CA          8.2460   -5.0560   -0.7460 C.3       6 GLP5        0.0000 
      7 CA         10.9175   -3.2690    1.5225 C.3       3 GLC5        0.0000 
      8 CA         11.3690   -1.8040    0.2570 C.3       6 GLP5        0.0000 
      9 CA         10.9085   -3.2160    3.9090 C.3       3 GLC5        0.0000 
     10 CA         11.3510   -1.6980    5.0300 C.3       6 GLP5        0.0000 
     11 CA          9.7435   -6.5190    3.0615 C.3       3 GLC5        0.0000 
     12 CA          9.0210   -8.3040    3.3350 C.3       6 GLP5        0.0000 
     13 CA         11.8450   -3.6855    0.9235 C.3       3 GLC5        0.0000 
     14 CA         12.3210   -5.5670    1.5900 C.3       9 GLL5        0.0000 
     15 CA         11.7160   -3.8260    4.4965 C.3       3 GLC5        0.0000 
     16 CA         12.0810   -5.9540    3.9630 C.3       9 GLL5        0.0000 
     17 CA         14.2005   -9.8630    0.8995 C.3       3 GLC5        0.0000 
     18 CA         16.4190   -9.7280    1.0960 C.3       9 GLL5        0.0000 
     19 CA         11.9820   -9.9980    0.7030 C.3       6 GLP5        0.0000 
     20 CA         17.6305  -11.2250    1.0450 C.3       3 GLC5        0.0000 
     21 CA         18.8420  -12.7220    0.9940 C.3       6 GLP5        0.0000 
     22 CA         15.6535  -10.0465   -0.4730 C.3       3 GLC5        0.0000 
     23 CA         14.8880  -10.3650   -2.0420 C.3       6 GLP5        0.0000 
     24 CA         16.3930   -9.6095    7.4735 C.3       3 GLC5        0.0000 
     25 CA         18.6050   -9.7210    7.7980 C.3       9 GLL5        0.0000 
     26 CA         14.1810   -9.4980    7.1490 C.3       6 GLP5        0.0000 
     27 CA         19.2720  -11.6730    7.4310 C.3       3 GLC5        0.0000 
     28 CA         19.9390  -13.6250    7.0640 C.3       6 GLP5        0.0000 
     29 CA         12.8255  -11.0960    6.0210 C.3       3 GLC5        0.0000 
     30 CA         13.1020  -11.9860    5.1150 C.3       9 GLL5        0.0000 
     31 CA         12.5490  -10.2060    6.9270 C.3       6 GLP5        0.0000 
     32 CA         12.3800  -11.3160    3.4995 C.3       3 GLC5        0.0000 
     33 CA         11.6580  -10.6460    1.8840 C.3       6 GLP5        0.0000 
     34 CA         15.0125  -10.9965    7.5475 C.3       3 GLC5        0.0000 
     35 CA         15.8440  -12.4950    7.9460 C.3       9 GLL5        0.0000 
     36 CA         17.8915  -13.0600    7.5050 C.3       3 GLC5        0.0000 
     37 CA         14.3145   -6.2845    6.3040 C.3       3 GLC5        0.0000 
     38 CA         12.5780   -6.5860    5.2900 C.3       9 GLL5        0.0000 
     39 CA         16.0510   -5.9830    7.3180 C.3       6 GLP5        0.0000 
     40 CA         13.3795   -8.0420    6.2195 C.3       3 GLC5        0.0000 
     41 O           8.7160   -3.9990    4.0460 O.2       1 ALC1        0.0000 
     42 O           9.3000   -4.0780    2.8040 O.2       7 ALL1        0.0000 
     43 O           8.1320   -3.9200    5.2880 O.2       4 ALP1        0.0000 
     44 O          12.3285   -4.7715   -0.5705 O.2       1 ALC1        0.0000 
     45 O          12.9990   -5.6830    0.4340 O.2       7 ALL1        0.0000 
     46 O          11.6580   -3.8600   -1.5750 O.2       4 ALP1        0.0000 
     47 O          13.6590   -4.4660   -0.4485 O.2       1 ALC1        0.0000 
     48 O          14.3190   -3.2490   -1.3310 O.2       4 ALP1        0.0000 
     49 CA         12.6945   -7.8325    1.6160 C.3       3 GLC5        0.0000 
     50 CA         14.0320   -6.8640    2.8560 C.3       9 GLL5        0.0000 
     51 CA         11.3570   -8.8010    0.3760 C.3       6 GLP5        0.0000 
     52 CA         16.7360   -7.7560    6.1750 C.3       3 GLC5        0.0000 
     53 CA         17.4210   -9.5290    5.0320 C.3       9 GLL5        0.0000 
     54 CA         18.1200  -10.3950    2.1120 C.3       3 GLC5        0.0000 
     55 CA         17.0060   -8.5140    1.8080 C.3       9 GLL5        0.0000 
     56 CA         19.2340  -12.2760    2.4160 C.3       6 GLP5        0.0000 
     57 CA         17.6645  -12.9425    4.8780 C.3       3 GLC5        0.0000 
     58 CA         16.4850  -11.5960    5.8650 C.3       9 GLL5        0.0000 
     59 CA         18.8440  -14.2890    3.8910 C.3       6 GLP5        0.0000 
     60 CA         18.1013   -8.5110    0.6620 C.3       3 GLC5        0.0000 
     61 CA         19.4900   -7.9010   -0.1280 C.3       6 GLP5        0.0000 
     62 CA         10.7677   -7.3063    3.8344 C.3       3 GLC5        0.0000 
     63 CA         12.8210   -6.1080    2.7920 C.3       9 GLL5        0.0000 
     64 CA         15.3618   -5.7287    2.1407 C.3       3 GLC5        0.0000 
     65 CA         16.1720   -4.2760    1.3630 C.3       6 GLP5        0.0000 
     66 CA         15.5345   -9.4812    5.8665 C.3       3 GLC5        0.0000 
     67 CA         16.3550   -9.4000    4.1360 C.3       9 GLL5        0.0000 
     68 CA         14.7857  -10.2095    5.8380 C.3       3 GLC5        0.0000 
     69 CA         15.3660  -10.3760    4.0880 C.3       9 GLL5        0.0000 
     70 CA         16.9955   -6.5877    1.6265 C.3       3 GLC5        0.0000 
     71 CA         16.3560   -8.2010    3.1660 C.3       9 GLL5        0.0000 
     72 CA         17.3100   -4.8180    0.7660 C.3       6 GLP5        0.0000 
     73 CA         15.5830  -10.3025    6.5195 C.3       3 GLC5        0.0000 
     74 CA         17.4850  -10.6180    5.9150 C.3       9 GLL5        0.0000 
     75 CA         18.2103  -11.1586    3.8327 C.3       3 GLC5        0.0000 
     76 CA         18.4620  -12.3660    6.4770 C.3       3 GLC5        0.0000 
@<TRIPOS>BOND
@<TRIPOS>SUBSTRUCTURE
     1 ALC1       41 GROUP        1 X    ALC  0     ROOT ALC X 1
     2 SEC2        1 GROUP        1 X    SEC  0     **** SEC X 2
     3 GLC5        4 GROUP        1 X    GLC  0     **** GLC X 6
     4 ALP1       43 GROUP        1 Y    ALP  0     ROOT ALP Y 8
     5 SEP2        3 GROUP        1 Y    SEP  0     **** SEP Y 9
     6 GLP5        6 GROUP        1 Y    GLP  0     **** GLP Y 13
     7 ALL1       42 GROUP        1 Z    ALL  0     ROOT ALL Z 15
     8 SEL2        2 GROUP        1 Z    SEL  0     **** SEL Z 16
     9 GLL5        5 GROUP        1 Z    GLL  0     **** GLL Z 20
@<TRIPOS>SET

