#    Name: 3qlx_QLR_1_ligand
#    Modification time : Tue Mar 25 09:55:27 2014

@<TRIPOS>MOLECULE
3qlx_QLR_1_ligand
   50    51     1     0     0
SMALL
NO_CHARGES


@<TRIPOS>ATOM
      1 N1         10.9120   -5.2770    3.9270 N.ar      1 QLR229      0.0000 
      2 C2         10.4660   -4.7340    2.7880 C.ar      1 QLR229      0.0000 
      3 N3         11.1740   -4.8540    1.6360 N.ar      1 QLR229      0.0000 
      4 C4         12.3210   -5.5670    1.5900 C.ar      1 QLR229      0.0000 
      5 C5         12.8210   -6.1080    2.7920 C.ar      1 QLR229      0.0000 
      6 C6         12.0810   -5.9540    3.9630 C.ar      1 QLR229      0.0000 
      7 CAA        16.4190   -9.7280    1.0960 C.3       1 QLR229      0.0000 
      8 CAB        18.6050   -9.7210    7.7980 C.3       1 QLR229      0.0000 
      9 CAC        13.1020  -11.9860    5.1150 C.3       1 QLR229      0.0000 
     10 CAD        15.8440  -12.4950    7.9460 C.3       1 QLR229      0.0000 
     11 CAE        12.5780   -6.5860    5.2900 C.3       1 QLR229      0.0000 
     12 NAF         9.3000   -4.0780    2.8040 N.pl3     1 QLR229      0.0000 
     13 NAG        12.9990   -5.6830    0.4340 N.pl3     1 QLR229      0.0000 
     14 CAH        14.0320   -6.8640    2.8560 C.1       1 QLR229      0.0000 
     15 CAI        15.0710   -7.4990    2.9810 C.1       1 QLR229      0.0000 
     16 CAJ        17.4210   -9.5290    5.0320 C.ar      1 QLR229      0.0000 
     17 CAK        15.3660  -10.3760    4.0880 C.ar      1 QLR229      0.0000 
     18 CAL        17.0060   -8.5140    1.8080 C.3       1 QLR229      0.0000 
     19 OAO        18.5500  -10.7470    6.7900 O.3       1 QLR229      0.0000 
     20 OAP        14.4550  -12.4600    4.9090 O.3       1 QLR229      0.0000 
     21 OAQ        16.5400  -12.6970    6.6810 O.3       1 QLR229      0.0000 
     22 CAU        16.3550   -9.4000    4.1360 C.ar      1 QLR229      0.0000 
     23 CAW        17.4850  -10.6180    5.9150 C.ar      1 QLR229      0.0000 
     24 CAX        15.4150  -11.4660    4.9660 C.ar      1 QLR229      0.0000 
     25 CAY        16.4850  -11.5960    5.8650 C.ar      1 QLR229      0.0000 
     26 CAZ        16.3560   -8.2010    3.1660 C.3       1 QLR229      0.0000 
     27 H           8.9787   -3.7302    1.9232 H         1 QLR229      0.0000 
     28 H           8.8544   -3.9943    3.6953 H         1 QLR229      0.0000 
     29 H          13.4997   -6.5384    0.3015 H         1 QLR229      0.0000 
     30 H          12.9418   -4.9035   -0.1898 H         1 QLR229      0.0000 
     31 H          18.1667   -8.8198    5.0457 H         1 QLR229      0.0000 
     32 H          14.5981  -10.3018    3.4107 H         1 QLR229      0.0000 
     33 H          16.9041   -7.6293    1.1569 H         1 QLR229      0.0000 
     34 H          18.0863   -8.6741    1.9636 H         1 QLR229      0.0000 
     35 H          17.0738   -7.4337    3.6414 H         1 QLR229      0.0000 
     36 H          16.8664   -9.8956    0.2175 H         1 QLR229      0.0000 
     37 H          16.5188  -10.5615    1.6395 H         1 QLR229      0.0000 
     38 H          15.4429   -9.6139    0.9108 H         1 QLR229      0.0000 
     39 H          19.3845   -9.8450    8.4120 H         1 QLR229      0.0000 
     40 H          18.6907   -8.8095    7.3958 H         1 QLR229      0.0000 
     41 H          17.7823   -9.7144    8.3665 H         1 QLR229      0.0000 
     42 H          12.9927  -11.5517    6.0091 H         1 QLR229      0.0000 
     43 H          12.8361  -11.3110    4.4268 H         1 QLR229      0.0000 
     44 H          12.4363  -12.7307    5.0676 H         1 QLR229      0.0000 
     45 H          15.8922  -13.3054    8.5299 H         1 QLR229      0.0000 
     46 H          16.2330  -11.7350    8.4667 H         1 QLR229      0.0000 
     47 H          14.8749  -12.2902    7.8082 H         1 QLR229      0.0000 
     48 H          13.4555   -7.0513    5.1740 H         1 QLR229      0.0000 
     49 H          12.7033   -5.8981    6.0049 H         1 QLR229      0.0000 
     50 H          11.9321   -7.2624    5.6440 H         1 QLR229      0.0000 
@<TRIPOS>BOND
     1    2    1 ar   
     2    6    1 ar   
     3    3    2 ar   
     4   12    2 1    
     5    4    3 ar   
     6    5    4 ar   
     7   13    4 1    
     8    6    5 ar   
     9   14    5 1    
    10   11    6 1    
    11   18    7 1    
    12   36    7 1    
    13   37    7 1    
    14   38    7 1    
    15   19    8 1    
    16   39    8 1    
    17   40    8 1    
    18   41    8 1    
    19   20    9 1    
    20   42    9 1    
    21   43    9 1    
    22   44    9 1    
    23   21   10 1    
    24   45   10 1    
    25   46   10 1    
    26   47   10 1    
    27   48   11 1    
    28   49   11 1    
    29   50   11 1    
    30   27   12 1    
    31   28   12 1    
    32   29   13 1    
    33   30   13 1    
    34   15   14 3    
    35   26   15 1    
    36   22   16 ar   
    37   23   16 ar   
    38   31   16 1    
    39   22   17 ar   
    40   24   17 ar   
    41   32   17 1    
    42   26   18 1    
    43   33   18 1    
    44   34   18 1    
    45   23   19 1    
    46   24   20 1    
    47   25   21 1    
    48   26   22 1    
    49   25   23 ar   
    50   25   24 ar   
    51   35   26 1    
@<TRIPOS>SUBSTRUCTURE
     1 QLR229      1 GROUP   
@<TRIPOS>SET

