#    Name: 3rak_03Z_1_INTS_M
#    Modification time : Tue Mar 25 11:19:27 2014

@<TRIPOS>MOLECULE
3rak_03Z_1_INTS_M
   59     0     9     0     0
SMALL
NO_CHARGES


@<TRIPOS>ATOM
      1 N          91.2105   82.4320  -51.8995 N.am      2 SEC2        0.0000 
      2 N          92.2740   81.7580  -50.8000 N.am      8 SEL2        0.0000 
      3 N          90.1470   83.1060  -52.9990 N.am      5 SEP2        0.0000 
      4 N          86.2980   79.6335  -46.1100 N.am      2 SEC2        0.0000 
      5 N          86.2390   80.4640  -44.9080 N.am      8 SEL2        0.0000 
      6 N          86.3570   78.8030  -47.3120 N.am      5 SEP2        0.0000 
      7 CA         93.2605   82.1345  -47.7345 C.3       3 GLC5        0.0000 
      8 CA         92.9750   80.4930  -48.6640 C.3       9 GLL5        0.0000 
      9 CA         93.5460   83.7760  -46.8050 C.3       6 GLP5        0.0000 
     10 CA         94.8975   81.2460  -47.8510 C.3       3 GLC5        0.0000 
     11 CA         96.8200   81.9990  -47.0380 C.3       6 GLP5        0.0000 
     12 CA         97.3235   79.5090  -46.6540 C.3       3 GLC5        0.0000 
     13 CA         97.1760   77.6060  -47.5250 C.3       9 GLL5        0.0000 
     14 CA         97.4710   81.4120  -45.7830 C.3       6 GLP5        0.0000 
     15 CA         99.2960   77.8485  -47.7240 C.3       3 GLC5        0.0000 
     16 CA        101.4160   78.0910  -47.9230 C.3       6 GLP5        0.0000 
     17 O          93.7055   81.7170  -53.5220 O.2       1 ALC1        0.0000 
     18 O          93.8050   80.9550  -52.3990 O.2       7 ALL1        0.0000 
     19 O          93.6060   82.4790  -54.6450 O.2       4 ALP1        0.0000 
     20 N          85.4815   83.2345  -43.2715 N.am      2 SEC2        0.0000 
     21 N          86.8720   82.8280  -43.8860 N.am      8 SEL2        0.0000 
     22 N          84.0910   83.6410  -42.6570 N.am      5 SEP2        0.0000 
     23 N          85.5250   83.1980  -44.8435 N.am      2 SEC2        0.0000 
     24 N          84.1780   83.5680  -45.8010 N.am      5 SEP2        0.0000 
     25 CA         92.8875   78.0295  -49.9330 C.3       3 GLC5        0.0000 
     26 CA         94.3860   77.6580  -48.2990 C.3       9 GLL5        0.0000 
     27 CA         91.3890   78.4010  -51.5670 C.3       6 GLP5        0.0000 
     28 O          88.4445   79.2630  -43.8350 O.2       1 ALC1        0.0000 
     29 O          88.1810   80.6700  -43.2350 O.2       7 ALL1        0.0000 
     30 O          88.7080   77.8560  -44.4350 O.2       4 ALP1        0.0000 
     31 CA         94.0970   74.9375  -47.7395 C.3       3 GLC5        0.0000 
     32 CA         94.7780   76.8600  -47.1730 C.3       9 GLL5        0.0000 
     33 CA         93.4160   73.0150  -48.3060 C.3       6 GLP5        0.0000 
     34 CA         90.1800   79.2240  -48.3050 C.3       3 GLC5        0.0000 
     35 CA         90.2920   80.8920  -47.0290 C.3       9 GLL5        0.0000 
     36 CA         90.0680   77.5560  -49.5810 C.3       6 GLP5        0.0000 
     37 CA         96.4495   80.2113  -47.9438 C.3       3 GLC5        0.0000 
     38 CA         95.3800   78.4450  -49.0520 C.3       9 GLL5        0.0000 
     39 CA         96.9042   76.0281  -48.4937 C.3       3 GLC5        0.0000 
     40 CA         96.7780   78.4020  -48.6470 C.3       9 GLL5        0.0000 
     41 CA         97.0760   74.2460  -49.0890 C.3       6 GLP5        0.0000 
     42 CA         94.2935   76.8503  -50.2383 C.3       3 GLC5        0.0000 
     43 CA         93.7040   75.6490  -51.8010 C.3       6 GLP5        0.0000 
     44 CA         95.8290   75.7525  -48.4125 C.3       3 GLC5        0.0000 
     45 CA         94.4142   82.0461  -50.5446 C.3       3 GLC5        0.0000 
     46 CA         93.8150   80.2220  -50.1130 C.3       9 GLL5        0.0000 
     47 CA         95.4710   83.4240  -50.8240 C.3       6 GLP5        0.0000 
     48 CA         92.3732   79.5346  -50.9161 C.3       3 GLC5        0.0000 
     49 CA         93.3200   80.9790  -51.1420 C.3       9 GLL5        0.0000 
     50 CA         91.8795   82.6310  -47.1340 C.3       3 GLC5        0.0000 
     51 CA         90.1340   82.0800  -47.8970 C.3       9 GLL5        0.0000 
     52 CA         88.9507   78.9348  -46.5328 C.3       3 GLC5        0.0000 
     53 CA         88.0320   77.0860  -46.5910 C.3       6 GLP5        0.0000 
     54 CA         87.4855   83.4213  -48.7002 C.3       3 GLC5        0.0000 
     55 CA         88.2420   82.8120  -46.4680 C.3       9 GLL5        0.0000 
     56 CA         86.3090   83.9190  -50.3770 C.3       6 GLP5        0.0000 
     57 CA         87.1305   81.7664  -47.5297 C.3       3 GLC5        0.0000 
     58 CA         89.0820   83.0350  -47.5790 C.3       9 GLL5        0.0000 
     59 CA         85.5570   80.9040  -48.2460 C.3       6 GLP5        0.0000 
@<TRIPOS>BOND
@<TRIPOS>SUBSTRUCTURE
     1 ALC1       17 GROUP        1 X    ALC  0     ROOT ALC X 1
     2 SEC2        1 GROUP        1 X    SEC  0     **** SEC X 2
     3 GLC5        7 GROUP        1 X    GLC  0     **** GLC X 6
     4 ALP1       19 GROUP        1 Y    ALP  0     ROOT ALP Y 8
     5 SEP2        3 GROUP        1 Y    SEP  0     **** SEP Y 9
     6 GLP5        9 GROUP        1 Y    GLP  0     **** GLP Y 13
     7 ALL1       18 GROUP        1 Z    ALL  0     ROOT ALL Z 15
     8 SEL2        2 GROUP        1 Z    SEL  0     **** SEL Z 16
     9 GLL5        8 GROUP        1 Z    GLL  0     **** GLL Z 20
@<TRIPOS>SET

