#    Name: 3rak_03Z_1_ligand
#    Modification time : Tue Mar 25 11:19:27 2014

@<TRIPOS>MOLECULE
3rak_03Z_1_ligand
   39    41     1     0     0
SMALL
NO_CHARGES


@<TRIPOS>ATOM
      1 C1         96.1980   76.8310  -46.7750 C.ar      1 03Z497      0.0000 
      2 N1         92.2740   81.7580  -50.8000 N.2       1 03Z497      0.0000 
      3 O1         86.2390   80.4640  -44.9080 O.2       1 03Z497      0.0000 
      4 S1         92.9750   80.4930  -48.6640 S.3       1 03Z497      0.0000 
      5 C2         97.1760   77.6060  -47.5250 C.ar      1 03Z497      0.0000 
      6 N2         93.8050   80.9550  -52.3990 N.pl3     1 03Z497      0.0000 
      7 O2         86.8720   82.8280  -43.8860 O.2       1 03Z497      0.0000 
      8 S2         87.4250   81.4030  -44.3890 S.o2      1 03Z497      0.0000 
      9 C3         96.7780   78.4020  -48.6470 C.ar      1 03Z497      0.0000 
     10 N3         90.9190   82.3440  -48.9990 N.pl3     1 03Z497      0.0000 
     11 O3         95.5740   79.1170  -51.3980 O.2       1 03Z497      0.0000 
     12 C4         94.3860   77.6580  -48.2990 C.ar      1 03Z497      0.0000 
     13 N4         88.1810   80.6700  -43.2350 N.pl3     1 03Z497      0.0000 
     14 C5         94.7780   76.8600  -47.1730 C.ar      1 03Z497      0.0000 
     15 C10        95.3800   78.4450  -49.0520 C.ar      1 03Z497      0.0000 
     16 C11        94.9520   79.2580  -50.2160 C.2       1 03Z497      0.0000 
     17 C12        93.8150   80.2220  -50.1130 C.2       1 03Z497      0.0000 
     18 C13        93.3200   80.9790  -51.1420 C.2       1 03Z497      0.0000 
     19 C14        91.9660   81.6150  -49.5100 C.2       1 03Z497      0.0000 
     20 C15        90.1340   82.0800  -47.8970 C.ar      1 03Z497      0.0000 
     21 C16        90.2920   80.8920  -47.0290 C.ar      1 03Z497      0.0000 
     22 C17        89.4470   80.6750  -45.9200 C.ar      1 03Z497      0.0000 
     23 C18        88.4100   81.6330  -45.6280 C.ar      1 03Z497      0.0000 
     24 C19        88.2420   82.8120  -46.4680 C.ar      1 03Z497      0.0000 
     25 C20        89.0820   83.0350  -47.5790 C.ar      1 03Z497      0.0000 
     26 H          96.4803   76.2768  -45.9894 H         1 03Z497      0.0000 
     27 H          98.1516   77.5749  -47.2404 H         1 03Z497      0.0000 
     28 H          93.3723   81.5791  -53.0496 H         1 03Z497      0.0000 
     29 H          94.5545   80.3153  -52.5693 H         1 03Z497      0.0000 
     30 H          97.4604   78.9385  -49.1654 H         1 03Z497      0.0000 
     31 H          90.6725   83.2642  -49.5426 H         1 03Z497      0.0000 
     32 H          93.4170   77.6927  -48.5945 H         1 03Z497      0.0000 
     33 H          88.1888   81.1345  -42.3495 H         1 03Z497      0.0000 
     34 H          88.5990   79.7926  -43.4705 H         1 03Z497      0.0000 
     35 H          94.1117   76.3246  -46.6536 H         1 03Z497      0.0000 
     36 H          91.0359   80.2334  -47.2617 H         1 03Z497      0.0000 
     37 H          89.5562   79.8623  -45.3292 H         1 03Z497      0.0000 
     38 H          87.5011   83.4729  -46.2325 H         1 03Z497      0.0000 
     39 H          88.9697   83.8526  -48.1674 H         1 03Z497      0.0000 
@<TRIPOS>BOND
     1    5    1 ar   
     2   14    1 ar   
     3   26    1 1    
     4   18    2 1    
     5   19    2 2    
     6    8    3 2    
     7   17    4 1    
     8   19    4 1    
     9    9    5 ar   
    10   27    5 1    
    11   18    6 1    
    12   28    6 1    
    13   29    6 1    
    14    8    7 2    
    15   13    8 1    
    16   23    8 1    
    17   15    9 ar   
    18   30    9 1    
    19   19   10 1    
    20   20   10 1    
    21   31   10 1    
    22   16   11 2    
    23   14   12 ar   
    24   15   12 ar   
    25   32   12 1    
    26   33   13 1    
    27   34   13 1    
    28   35   14 1    
    29   16   15 1    
    30   17   16 1    
    31   18   17 2    
    32   21   20 ar   
    33   25   20 ar   
    34   22   21 ar   
    35   36   21 1    
    36   23   22 ar   
    37   37   22 1    
    38   24   23 ar   
    39   25   24 ar   
    40   38   24 1    
    41   39   25 1    
@<TRIPOS>SUBSTRUCTURE
     1 03Z497      1 GROUP   
@<TRIPOS>SET

