#    Name: 3TR0_1_CAVITY_N1_6.mol2
#    Modification time : Tue Mar 11 04:39:03 2014

@<TRIPOS>MOLECULE
3TR0_1_CAVITY_N1_6.mol2
  182     0     7     0     0
SMALL
NO_CHARGES


@<TRIPOS>ATOM
      1 CZ        -20.1668   22.3610   -9.9582 C.ar      5 PHE5        0.0000 
      2 CZ        -21.5984   22.4239  -11.5223 C.ar      5 PHE5        0.0000 
      3 CZ        -21.0697   21.3565  -10.6107 C.ar      5 PHE5        0.0000 
      4 O         -20.5411   20.2891   -9.6990 O.2       2 ALA2        0.0000 
      5 O         -21.9727   20.3520  -11.2631 O.2       2 ALA2        0.0000 
      6 O         -21.4440   19.2846  -10.3515 O.2       2 ALA2        0.0000 
      7 CA        -19.6207   23.1096  -11.8665 C.3       6 GLY6        0.0000 
      8 OG        -19.0920   22.0422  -10.9548 O.2       1 SER1        0.0000 
      9 CA        -21.0523   23.1725  -13.4306 C.3       6 GLY6        0.0000 
     10 CA        -20.5237   22.1051  -12.5189 C.3       6 GLY6        0.0000 
     11 DU        -19.9950   21.0377  -11.6073 H         7 CUB7        0.0000 
     12 OG        -19.4663   19.9703  -10.6956 O.2       1 SER1        0.0000 
     13 O         -18.9376   18.9029   -9.7839 O.2       2 ALA2        0.0000 
     14 CA        -21.9553   22.1680  -14.0830 C.3       6 GLY6        0.0000 
     15 O         -21.4266   21.1006  -13.1714 O.2       2 ALA2        0.0000 
     16 O         -20.8979   20.0332  -12.2597 O.2       2 ALA2        0.0000 
     17 O         -20.3692   18.9658  -11.3480 O.2       2 ALA2        0.0000 
     18 O         -19.8405   17.8984  -10.4364 O.2       2 ALA2        0.0000 
     19 NZ        -19.3119   16.8310   -9.5247 N.2       4 LYS4        0.0000 
     20 NZ        -20.7435   16.8939  -11.0888 N.2       4 LYS4        0.0000 
     21 CA        -18.5459   22.7907  -12.8631 C.3       6 GLY6        0.0000 
     22 OG        -18.0172   21.7233  -11.9514 O.2       1 SER1        0.0000 
     23 CA        -20.5062   23.9211  -15.3388 C.3       6 GLY6        0.0000 
     24 OG        -19.9776   22.8537  -14.4272 O.2       1 SER1        0.0000 
     25 OG        -19.4489   21.7863  -13.5155 O.2       1 SER1        0.0000 
     26 OG        -18.9202   20.7188  -12.6038 O.2       1 SER1        0.0000 
     27 OG        -18.3915   19.6514  -11.6922 O.2       1 SER1        0.0000 
     28 O         -17.8628   18.5840  -10.7805 O.2       2 ALA2        0.0000 
     29 OG        -20.8805   21.8492  -15.0796 O.2       1 SER1        0.0000 
     30 OG        -20.3518   20.7818  -14.1680 O.2       1 SER1        0.0000 
     31 O         -19.8231   19.7144  -13.2563 O.2       2 ALA2        0.0000 
     32 O         -19.2944   18.6470  -12.3446 O.2       2 ALA2        0.0000 
     33 O         -18.7658   17.5795  -11.4330 O.2       2 ALA2        0.0000 
     34 O         -18.2371   16.5121  -10.5213 O.2       2 ALA2        0.0000 
     35 O         -17.7084   15.4447   -9.6096 O.2       2 ALA2        0.0000 
     36 OG        -21.7835   20.8447  -15.7321 O.2       1 SER1        0.0000 
     37 O         -19.6687   16.5751  -12.0854 O.2       2 ALA2        0.0000 
     38 NZ        -19.1400   15.5077  -11.1738 N.2       4 LYS4        0.0000 
     39 NZ        -18.6113   14.4402  -10.2621 N.2       4 LYS4        0.0000 
     40 CA        -18.1542   26.6786  -15.9422 C.3       6 GLY6        0.0000 
     41 CA        -16.5682   23.4764  -13.2072 C.3       6 GLY6        0.0000 
     42 CZ        -16.0395   22.4090  -12.2955 C.ar      5 PHE5        0.0000 
     43 CA        -19.0572   25.6741  -16.5946 C.3       6 GLY6        0.0000 
     44 CA        -18.5285   24.6067  -15.6830 C.3       6 GLY6        0.0000 
     45 CA        -17.9998   23.5393  -14.7713 C.3       6 GLY6        0.0000 
     46 CA        -17.4711   22.4719  -13.8596 C.3       6 GLY6        0.0000 
     47 OG        -16.9424   21.4045  -12.9480 O.2       1 SER1        0.0000 
     48 OG        -16.4138   20.3371  -12.0363 O.2       1 SER1        0.0000 
     49 O         -15.8851   19.2697  -11.1247 O.2       2 ALA2        0.0000 
     50 CA        -19.9601   24.6697  -17.2471 C.3       6 GLY6        0.0000 
     51 OG        -19.4315   23.6022  -16.3354 O.2       1 SER1        0.0000 
     52 OG        -18.9028   22.5348  -15.4237 O.2       1 SER1        0.0000 
     53 OG        -18.3741   21.4674  -14.5121 O.2       1 SER1        0.0000 
     54 OG        -17.8454   20.4000  -13.6004 O.2       1 SER1        0.0000 
     55 DU        -17.3167   19.3326  -12.6888 H         7 CUB7        0.0000 
     56 O         -16.7880   18.2652  -11.7771 O.2       2 ALA2        0.0000 
     57 OG        -20.3344   22.5978  -16.9879 O.2       1 SER1        0.0000 
     58 O         -18.2197   18.3281  -13.3412 O.2       2 ALA2        0.0000 
     59 O         -17.6910   17.2607  -12.4296 O.2       2 ALA2        0.0000 
     60 O         -17.1623   16.1933  -11.5179 O.2       2 ALA2        0.0000 
     61 O         -16.6336   15.1259  -10.6062 O.2       2 ALA2        0.0000 
     62 NZ        -16.1049   14.0585   -9.6946 N.2       4 LYS4        0.0000 
     63 O         -18.5939   16.2562  -13.0820 O.2       2 ALA2        0.0000 
     64 O         -18.0652   15.1888  -12.1703 O.2       2 ALA2        0.0000 
     65 O         -17.5366   14.1214  -11.2587 O.2       2 ALA2        0.0000 
     66 NZ        -18.9682   14.1843  -12.8228 N.2       4 LYS4        0.0000 
     67 CZ        -14.0617   23.0946  -12.6397 C.ar      5 PHE5        0.0000 
     68 CA        -16.5508   25.2924  -16.0271 C.3       6 GLY6        0.0000 
     69 CA        -16.0221   24.2250  -15.1154 C.3       6 GLY6        0.0000 
     70 CA        -15.4934   23.1576  -14.2038 C.3       6 GLY6        0.0000 
     71 CZ        -14.9647   22.0901  -13.2921 C.ar      5 PHE5        0.0000 
     72 OG        -14.4360   21.0227  -12.3805 O.2       1 SER1        0.0000 
     73 CA        -17.4537   24.2879  -16.6795 C.3       6 GLY6        0.0000 
     74 CA        -16.9250   23.2205  -15.7679 C.3       6 GLY6        0.0000 
     75 OG        -16.3963   22.1531  -14.8562 O.2       1 SER1        0.0000 
     76 DU        -15.8677   21.0857  -13.9446 H         7 CUB7        0.0000 
     77 OG        -15.3390   20.0183  -13.0329 O.2       1 SER1        0.0000 
     78 NZ        -18.8854   24.3508  -18.2437 N.2       4 LYS4        0.0000 
     79 OG        -18.3567   23.2834  -17.3320 O.2       1 SER1        0.0000 
     80 OG        -17.8280   22.2160  -16.4203 O.2       1 SER1        0.0000 
     81 OG        -16.7706   20.0812  -14.5970 O.2       1 SER1        0.0000 
     82 DU        -16.2419   19.0138  -13.6854 H         7 CUB7        0.0000 
     83 OG        -15.7132   17.9464  -12.7737 O.2       1 SER1        0.0000 
     84 O         -15.1846   16.8790  -11.8620 O.2       2 ALA2        0.0000 
     85 O         -14.1272   14.7441  -10.0387 O.2       2 ALA2        0.0000 
     86 N         -19.7883   23.3463  -18.8961 N.2       2 ALA2        0.0000 
     87 OG        -19.2596   22.2789  -17.9844 O.2       1 SER1        0.0000 
     88 OG        -17.1449   18.0093  -14.3378 O.2       1 SER1        0.0000 
     89 DU        -16.6162   16.9419  -13.4261 H         7 CUB7        0.0000 
     90 O         -16.0875   15.8745  -12.5145 O.2       2 ALA2        0.0000 
     91 O         -15.5588   14.8071  -11.6028 O.2       2 ALA2        0.0000 
     92 NZ        -15.0301   13.7397  -10.6912 N.2       4 LYS4        0.0000 
     93 O         -18.0478   17.0048  -14.9903 O.2       2 ALA2        0.0000 
     94 O         -17.5192   15.9374  -14.0786 O.2       2 ALA2        0.0000 
     95 O         -16.9905   14.8700  -13.1669 O.2       2 ALA2        0.0000 
     96 O         -16.4618   13.8026  -12.2553 O.2       2 ALA2        0.0000 
     97 O         -15.9331   12.7352  -11.3436 O.2       2 ALA2        0.0000 
     98 O         -17.3647   12.7981  -12.9077 O.2       2 ALA2        0.0000 
     99 CA        -12.6127   24.8477  -13.8955 C.3       6 GLY6        0.0000 
    100 CZ        -12.0840   23.7803  -12.9838 C.ar      5 PHE5        0.0000 
    101 CZ        -11.5553   22.7129  -12.0721 C.ar      5 PHE5        0.0000 
    102 CA        -13.5156   23.8432  -14.5479 C.3       6 GLY6        0.0000 
    103 CZ        -12.9870   22.7758  -13.6363 C.ar      5 PHE5        0.0000 
    104 OG        -12.4583   21.7084  -12.7246 O.2       1 SER1        0.0000 
    105 CA        -14.9473   23.9061  -16.1120 C.3       6 GLY6        0.0000 
    106 CA        -14.4186   22.8387  -15.2004 C.3       6 GLY6        0.0000 
    107 OG        -13.8899   21.7713  -14.2887 O.2       1 SER1        0.0000 
    108 NZ        -16.3789   23.9691  -17.6761 N.2       4 LYS4        0.0000 
    109 DU        -15.8502   22.9017  -16.7645 H         7 CUB7        0.0000 
    110 DU        -15.3216   21.8342  -15.8528 H         7 CUB7        0.0000 
    111 OD1       -14.7929   20.7668  -14.9411 O.3       3 ASP3        0.0000 
    112 OG        -14.2642   19.6994  -14.0295 O.2       1 SER1        0.0000 
    113 N         -17.2819   22.9646  -18.3286 N.2       2 ALA2        0.0000 
    114 OG        -16.7532   21.8972  -17.4169 O.2       1 SER1        0.0000 
    115 OG        -16.2245   20.8298  -16.5053 O.2       1 SER1        0.0000 
    116 OG        -15.6958   19.7624  -15.5936 O.2       1 SER1        0.0000 
    117 DU        -15.1671   18.6949  -14.6819 H         7 CUB7        0.0000 
    118 OG        -14.6385   17.6275  -13.7703 O.2       1 SER1        0.0000 
    119 OG        -14.1098   16.5601  -12.8586 O.2       1 SER1        0.0000 
    120 CZ        -13.5811   15.4927  -11.9470 C.ar      5 PHE5        0.0000 
    121 NZ        -13.0524   14.4253  -11.0353 N.2       4 LYS4        0.0000 
    122 OG        -16.5988   18.7579  -16.2460 O.2       1 SER1        0.0000 
    123 DU        -16.0701   17.6905  -15.3344 H         7 CUB7        0.0000 
    124 DU        -15.5414   16.6230  -14.4227 H         7 CUB7        0.0000 
    125 OG        -15.0127   15.5556  -13.5111 O.2       1 SER1        0.0000 
    126 DU        -14.4840   14.4882  -12.5994 H         7 CUB7        0.0000 
    127 NZ        -13.9554   13.4208  -11.6877 N.2       4 LYS4        0.0000 
    128 CA        -17.5017   17.7534  -16.8985 C.3       6 GLY6        0.0000 
    129 O         -16.9731   16.6860  -15.9868 O.2       2 ALA2        0.0000 
    130 O         -16.4444   15.6186  -15.0752 O.2       2 ALA2        0.0000 
    131 O         -15.9157   14.5512  -14.1635 O.2       2 ALA2        0.0000 
    132 DU        -15.3870   13.4837  -13.2519 H         7 CUB7        0.0000 
    133 O         -14.8583   12.4163  -12.3402 O.2       2 ALA2        0.0000 
    134 N         -11.0092   23.4614  -13.9804 N.2       2 ALA2        0.0000 
    135 N         -10.4805   22.3940  -13.0687 N.2       2 ALA2        0.0000 
    136 O         -12.4409   23.5244  -15.5445 O.2       2 ALA2        0.0000 
    137 N         -11.9122   22.4570  -14.6328 N.2       2 ALA2        0.0000 
    138 OG        -11.3835   21.3895  -13.7212 O.2       1 SER1        0.0000 
    139 CA        -13.8725   23.5873  -17.1086 C.3       6 GLY6        0.0000 
    140 OD1       -13.3438   22.5199  -16.1969 O.3       3 ASP3        0.0000 
    141 OD1       -12.8151   21.4525  -15.2853 O.3       3 ASP3        0.0000 
    142 OG        -12.2864   20.3851  -14.3736 O.2       1 SER1        0.0000 
    143 NZ        -15.3041   23.6502  -18.6727 N.2       4 LYS4        0.0000 
    144 N         -14.7755   22.5828  -17.7611 N.2       2 ALA2        0.0000 
    145 OD1       -14.2468   21.5154  -16.8494 O.3       3 ASP3        0.0000 
    146 OD1       -13.1894   19.3806  -15.0261 O.3       3 ASP3        0.0000 
    147 OG        -12.6607   18.3132  -14.1144 O.2       1 SER1        0.0000 
    148 OG        -12.1320   17.2458  -13.2028 O.2       1 SER1        0.0000 
    149 CZ        -11.6033   16.1784  -12.2911 C.ar      5 PHE5        0.0000 
    150 N         -11.0747   15.1109  -11.3794 N.2       2 ALA2        0.0000 
    151 OD1       -15.1497   20.5109  -17.5018 O.3       3 ASP3        0.0000 
    152 OD1       -14.0924   18.3761  -15.6785 O.3       3 ASP3        0.0000 
    153 OG        -13.5637   17.3087  -14.7669 O.2       1 SER1        0.0000 
    154 OG        -13.0350   16.2413  -13.8552 O.2       1 SER1        0.0000 
    155 OG        -12.5063   15.1739  -12.9435 O.2       1 SER1        0.0000 
    156 NZ        -11.9776   14.1065  -12.0319 N.2       4 LYS4        0.0000 
    157 N         -16.0527   19.5064  -18.1543 N.2       2 ALA2        0.0000 
    158 OD1       -15.5240   18.4390  -17.2426 O.3       3 ASP3        0.0000 
    159 OD1       -14.9953   17.3716  -16.3310 O.3       3 ASP3        0.0000 
    160 OG        -14.4666   16.3042  -15.4193 O.2       1 SER1        0.0000 
    161 OG        -13.4093   14.1694  -13.5960 O.2       1 SER1        0.0000 
    162 NZ        -12.8806   13.1020  -12.6843 N.2       4 LYS4        0.0000 
    163 CA        -16.4270   17.4346  -17.8951 C.3       6 GLY6        0.0000 
    164 O         -15.8983   16.3671  -16.9834 O.2       2 ALA2        0.0000 
    165 OG        -15.3696   15.2997  -16.0718 O.2       1 SER1        0.0000 
    166 OG        -14.8409   14.2323  -15.1601 O.2       1 SER1        0.0000 
    167 OG        -14.3122   13.1649  -14.2484 O.2       1 SER1        0.0000 
    168 O         -16.8012   15.3627  -17.6359 O.2       2 ALA2        0.0000 
    169 N          -9.7800   20.0033  -13.8061 N.2       2 ALA2        0.0000 
    170 CZ         -9.2513   18.9359  -12.8944 C.ar      5 PHE5        0.0000 
    171 N          -8.7226   17.8685  -11.9828 N.2       2 ALA2        0.0000 
    172 OD1       -12.2690   22.2011  -17.1935 O.3       3 ASP3        0.0000 
    173 N         -11.2117   20.0662  -15.3702 N.2       2 ALA2        0.0000 
    174 OG        -10.6830   18.9988  -14.4585 O.2       1 SER1        0.0000 
    175 OG        -10.1543   17.9314  -13.5469 O.2       1 SER1        0.0000 
    176 N          -9.6256   16.8640  -12.6352 N.2       2 ALA2        0.0000 
    177 N         -13.7007   22.2640  -18.7576 N.2       2 ALA2        0.0000 
    178 OD1       -11.5859   17.9943  -15.1110 O.3       3 ASP3        0.0000 
    179 OG        -11.0572   16.9269  -14.1993 O.2       1 SER1        0.0000 
    180 OG        -10.5286   15.8595  -13.2877 O.2       1 SER1        0.0000 
    181 CA        -15.3522   17.1157  -18.8917 C.3       6 GLY6        0.0000 
    182 OG        -14.8235   16.0483  -17.9800 O.2       1 SER1        0.0000 
@<TRIPOS>BOND
@<TRIPOS>SUBSTRUCTURE
     1 SER1        8 GROUP   
     2 ALA2        4 GROUP   
     3 ASP3      111 GROUP   
     4 LYS4       19 GROUP   
     5 PHE5        1 GROUP   
     6 GLY6        7 GROUP   
     7 CUB7       11 GROUP   
@<TRIPOS>SET

