#    Name: 3tr0_5GP_1_INTS_M
#    Modification time : Mon Mar 24 20:49:56 2014

@<TRIPOS>MOLECULE
3tr0_5GP_1_INTS_M
   62     0    12     0     0
SMALL
NO_CHARGES


@<TRIPOS>ATOM
      1 NZ        -15.1150   17.5770  -10.3575 N.4       3 LYC4        0.0000 
      2 NZ        -14.9870   18.1560  -11.6610 N.4      11 LYL4        0.0000 
      3 NZ        -15.9570   17.3960   -8.0110 N.4       7 LYP4        0.0000 
      4 N         -15.1150   17.5770  -10.3575 N.am      2 SEC2        0.0000 
      5 N         -14.9870   18.1560  -11.6610 N.am     10 SEL2        0.0000 
      6 N         -15.2430   16.9980   -9.0540 N.am      6 SEP2        0.0000 
      7 N         -13.7525   18.7780  -11.6680 N.am      2 SEC2        0.0000 
      8 N         -12.5180   19.4000  -11.6750 N.am      6 SEP2        0.0000 
      9 NZ        -16.6575   19.2295   -9.4475 N.4       3 LYC4        0.0000 
     10 NZ        -16.6990   19.9110  -10.8370 N.4      11 LYL4        0.0000 
     11 N         -16.6575   19.2295   -9.4475 N.am      2 SEC2        0.0000 
     12 N         -16.6990   19.9110  -10.8370 N.am     10 SEL2        0.0000 
     13 N         -16.6160   18.5480   -8.0580 N.am      6 SEP2        0.0000 
     14 N         -16.6605   21.0930  -10.3090 N.am      2 SEC2        0.0000 
     15 N         -16.6220   22.2750   -9.7810 N.am      6 SEP2        0.0000 
     16 CA        -15.7795   22.2455  -11.5825 C.3       4 GLC5        0.0000 
     17 CA        -16.0920   21.4790  -13.2650 C.3      12 GLL5        0.0000 
     18 CA        -15.4670   23.0120   -9.9000 C.3       8 GLP5        0.0000 
     19 CA        -15.1575   24.2960  -14.0350 C.3       4 GLC5        0.0000 
     20 CA        -15.3840   22.2630  -14.3370 C.3      12 GLL5        0.0000 
     21 CA        -14.9310   26.3290  -13.7330 C.3       8 GLP5        0.0000 
     22 CA        -14.8200   22.3140  -12.1790 C.3       4 GLC5        0.0000 
     23 CA        -14.2560   22.3650  -10.0210 C.3       8 GLP5        0.0000 
     24 N         -15.2040   19.8585  -17.6065 N.am      2 SEC2        0.0000 
     25 N         -15.2030   20.8000  -16.2920 N.am     10 SEL2        0.0000 
     26 N         -15.2050   18.9170  -18.9210 N.am      6 SEP2        0.0000 
     27 CA        -11.5870   23.3680  -16.4130 C.3       4 GLC5        0.0000 
     28 CA        -13.4920   22.4890  -15.7720 C.3      12 GLL5        0.0000 
     29 CA         -9.6820   24.2470  -17.0540 C.3       8 GLP5        0.0000 
     30 CA        -14.1710   24.9010  -14.1660 C.3       4 GLC5        0.0000 
     31 CA        -13.4110   23.4730  -14.5990 C.3      12 GLL5        0.0000 
     32 CA        -13.2545   23.2895  -12.3695 C.3       4 GLC5        0.0000 
     33 CA        -13.0980   23.1060  -10.1400 C.3       8 GLP5        0.0000 
     34 N          -8.8425   22.4380  -12.1690 N.am      2 SEC2        0.0000 
     35 N         -10.4650   22.6760  -12.6270 N.am     10 SEL2        0.0000 
     36 N          -7.2200   22.2000  -11.7110 N.am      6 SEP2        0.0000 
     37 CA         -8.9255   22.9860  -11.6560 C.3       4 GLC5        0.0000 
     38 CA        -10.2440   23.9710  -12.9560 C.3      12 GLL5        0.0000 
     39 CA         -7.6070   22.0010  -10.3560 C.3       8 GLP5        0.0000 
     40 CA         -8.9310   24.4295  -14.3565 C.3       4 GLC5        0.0000 
     41 CA         -7.6180   24.8880  -15.7570 C.3       8 GLP5        0.0000 
     42 N          -7.7255   23.3875  -11.8610 N.am      2 SEC2        0.0000 
     43 N          -8.2310   24.5750  -12.0110 N.am     10 SEL2        0.0000 
     44 O          -8.2540   26.9350  -13.3620 O.2       1 ALC1        0.0000 
     45 O          -9.3410   26.1310  -13.1890 O.2       9 ALL1        0.0000 
     46 O          -7.1670   27.7390  -13.5350 O.2       5 ALP1        0.0000 
     47 O          -9.0600   27.6765  -13.4665 O.2       1 ALC1        0.0000 
     48 O          -8.7790   29.2220  -13.7440 O.2       5 ALP1        0.0000 
     49 O          -9.6345   28.4915  -14.0835 O.2       1 ALC1        0.0000 
     50 O         -10.4900   27.7610  -14.4230 O.2       9 ALL1        0.0000 
     51 O         -11.5870   28.0300  -15.3790 O.2       1 ALC1        0.0000 
     52 O         -12.6840   28.2990  -16.3350 O.2       5 ALP1        0.0000 
     53 N         -11.5230   25.6305  -15.7965 N.am      2 SEC2        0.0000 
     54 N         -11.3850   25.6350  -14.1990 N.am     10 SEL2        0.0000 
     55 N         -11.6610   25.6260  -17.3940 N.am      6 SEP2        0.0000 
     56 CA        -13.1255   25.3535  -13.7240 C.3       4 GLC5        0.0000 
     57 CA        -11.3200   24.3780  -13.7150 C.3      12 GLL5        0.0000 
     58 CA        -10.5010   24.3125  -15.3845 C.3       4 GLC5        0.0000 
     59 CA        -13.7112   24.7500  -16.2157 C.3       4 GLC5        0.0000 
     60 CA        -13.9710   26.5190  -17.2460 C.3       8 GLP5        0.0000 
     61 CA        -11.3190   24.7353  -11.8098 C.3       4 GLC5        0.0000 
     62 CA        -11.8560   25.2960  -10.2840 C.3       8 GLP5        0.0000 
@<TRIPOS>BOND
@<TRIPOS>SUBSTRUCTURE
     1 ALC1       44 GROUP        1 X    ALC  0     ROOT ALC X 1
     2 SEC2        4 GROUP        1 X    SEC  0     **** SEC X 2
     3 LYC4        1 GROUP        1 X    LYC  0     **** LYC X 4
     4 GLC5       16 GROUP        1 X    GLC  0     **** GLC X 6
     5 ALP1       46 GROUP        1 Y    ALP  0     ROOT ALP Y 8
     6 SEP2        6 GROUP        1 Y    SEP  0     **** SEP Y 9
     7 LYP4        3 GROUP        1 Y    LYP  0     **** LYP Y 11
     8 GLP5       18 GROUP        1 Y    GLP  0     **** GLP Y 13
     9 ALL1       45 GROUP        1 Z    ALL  0     ROOT ALL Z 15
    10 SEL2        5 GROUP        1 Z    SEL  0     **** SEL Z 16
    11 LYL4        2 GROUP        1 Z    LYL  0     **** LYL Z 18
    12 GLL5       17 GROUP        1 Z    GLL  0     **** GLL Z 20
@<TRIPOS>SET

