#    Name: 3tr0_5GP_1_ligand
#    Modification time : Mon Mar 24 20:49:56 2014

@<TRIPOS>MOLECULE
3tr0_5GP_1_ligand
   36    38     1     0     0
SMALL
NO_CHARGES


@<TRIPOS>ATOM
      1 P         -16.0320   19.1960  -11.9820 P.3       1 5GP205      0.0000 
      2 O1P       -14.9870   18.1560  -11.6610 O.co2     1 5GP205      0.0000 
      3 O2P       -16.6990   19.9110  -10.8370 O.co2     1 5GP205      0.0000 
      4 O3P       -17.0720   18.5670  -12.8800 O.co2     1 5GP205      0.0000 
      5 O5'       -15.4190   20.2620  -12.9910 O.3       1 5GP205      0.0000 
      6 C5'       -16.0920   21.4790  -13.2650 C.3       1 5GP205      0.0000 
      7 C4'       -15.3840   22.2630  -14.3370 C.3       1 5GP205      0.0000 
      8 O4'       -14.4810   23.2070  -13.7270 O.3       1 5GP205      0.0000 
      9 C3'       -14.4870   21.4540  -15.2590 C.3       1 5GP205      0.0000 
     10 O3'       -15.2030   20.8000  -16.2920 O.3       1 5GP205      0.0000 
     11 C2'       -13.4920   22.4890  -15.7720 C.3       1 5GP205      0.0000 
     12 O2'       -14.0280   23.1790  -16.8910 O.3       1 5GP205      0.0000 
     13 C1'       -13.4110   23.4730  -14.5990 C.3       1 5GP205      0.0000 
     14 N9        -12.1490   23.3550  -13.8480 N.pl3     1 5GP205      0.0000 
     15 C8        -11.6460   22.3060  -13.1840 C.2       1 5GP205      0.0000 
     16 N7        -10.4650   22.6760  -12.6270 N.2       1 5GP205      0.0000 
     17 C5        -10.2440   23.9710  -12.9560 C.2       1 5GP205      0.0000 
     18 C6         -9.2340   24.8910  -12.6960 C.2       1 5GP205      0.0000 
     19 O6         -8.2310   24.5750  -12.0110 O.2       1 5GP205      0.0000 
     20 N1         -9.3410   26.1310  -13.1890 N.am      1 5GP205      0.0000 
     21 C2        -10.3950   26.5040  -13.9290 C.2       1 5GP205      0.0000 
     22 N2        -10.4900   27.7610  -14.4230 N.pl3     1 5GP205      0.0000 
     23 N3        -11.3850   25.6350  -14.1990 N.2       1 5GP205      0.0000 
     24 C4        -11.3200   24.3780  -13.7150 C.2       1 5GP205      0.0000 
     25 H         -16.1591   22.1165  -12.3640 H         1 5GP205      0.0000 
     26 H         -17.1301   21.3009  -13.6018 H         1 5GP205      0.0000 
     27 H         -16.0967   22.7984  -14.9430 H         1 5GP205      0.0000 
     28 H         -13.9282   20.7684  -14.6297 H         1 5GP205      0.0000 
     29 H         -12.5675   22.0527  -15.9136 H         1 5GP205      0.0000 
     30 H         -13.4958   24.4752  -15.0085 H         1 5GP205      0.0000 
     31 H         -12.0478   21.4303  -13.1083 H         1 5GP205      0.0000 
     32 H          -8.5774   26.8329  -12.9908 H         1 5GP205      0.0000 
     33 H         -11.0154   27.8633  -15.2677 H         1 5GP205      0.0000 
     34 H         -10.0264   28.4757  -13.8994 H         1 5GP205      0.0000 
     35 H         -15.8591   20.2116  -15.8195 H         1 5GP205      0.0000 
     36 H         -14.7217   22.5641  -17.2661 H         1 5GP205      0.0000 
@<TRIPOS>BOND
     1    2    1 ar   
     2    3    1 ar   
     3    4    1 ar   
     4    5    1 1    
     5    6    5 1    
     6    7    6 1    
     7   25    6 1    
     8   26    6 1    
     9    8    7 1    
    10    9    7 1    
    11   27    7 1    
    12   13    8 1    
    13   10    9 1    
    14   11    9 1    
    15   28    9 1    
    16   35   10 1    
    17   12   11 1    
    18   13   11 1    
    19   29   11 1    
    20   36   12 1    
    21   14   13 1    
    22   30   13 1    
    23   15   14 1    
    24   24   14 1    
    25   16   15 2    
    26   31   15 1    
    27   17   16 1    
    28   18   17 1    
    29   24   17 2    
    30   19   18 2    
    31   20   18 am   
    32   21   20 1    
    33   32   20 1    
    34   22   21 1    
    35   23   21 2    
    36   33   22 1    
    37   34   22 1    
    38   24   23 1    
@<TRIPOS>SUBSTRUCTURE
     1 5GP205      1 GROUP   
@<TRIPOS>SET

