#    Name: 2j09_FAD_1_INTS_M
#    Modification time : Tue Mar 25 19:03:33 2014

@<TRIPOS>MOLECULE
2j09_FAD_1_INTS_M
  101     0     9     0     0
SMALL
NO_CHARGES


@<TRIPOS>ATOM
      1 N          23.3485   14.9515   37.3720 N.am      2 SEC2        0.0000 
      2 N          24.1200   16.1420   37.4830 N.am      8 SEL2        0.0000 
      3 N          22.5770   13.7610   37.2610 N.am      5 SEP2        0.0000 
      4 N          24.3625   15.3300   36.4160 N.am      2 SEC2        0.0000 
      5 N          24.6050   14.5180   35.3490 N.am      5 SEP2        0.0000 
      6 N          23.4945   17.0190   36.5405 N.am      2 SEC2        0.0000 
      7 N          22.8690   17.8960   35.5980 N.am      5 SEP2        0.0000 
      8 N          23.5800   18.5005   39.9060 N.am      2 SEC2        0.0000 
      9 N          24.2360   17.3050   39.6970 N.am      8 SEL2        0.0000 
     10 N          22.9240   19.6960   40.1150 N.am      5 SEP2        0.0000 
     11 CA         24.7045   18.0790   35.3490 C.3       3 GLC5        0.0000 
     12 CA         26.1830   18.0230   36.4070 C.3       9 GLL5        0.0000 
     13 CA         23.2260   18.1350   34.2910 C.3       6 GLP5        0.0000 
     14 CA         28.1100   17.2930   34.6005 C.3       3 GLC5        0.0000 
     15 CA         27.7120   18.1980   36.3430 C.3       9 GLL5        0.0000 
     16 CA         28.5080   16.3880   32.8580 C.3       6 GLP5        0.0000 
     17 N          31.9505   17.5945   36.5890 N.am      2 SEC2        0.0000 
     18 N          30.6350   17.8720   36.1850 N.am      8 SEL2        0.0000 
     19 N          33.2660   17.3170   36.9930 N.am      5 SEP2        0.0000 
     20 CA         28.8470   20.9460   36.2865 C.3       3 GLC5        0.0000 
     21 CA         29.3570   19.3020   37.5820 C.3       9 GLL5        0.0000 
     22 CA         28.3370   22.5900   34.9910 C.3       6 GLP5        0.0000 
     23 CA         31.0540   20.4790   36.8925 C.3       3 GLC5        0.0000 
     24 CA         32.7510   21.6560   36.2030 C.3       6 GLP5        0.0000 
     25 N          32.6585   22.2070   42.4210 N.am      2 SEC2        0.0000 
     26 N          31.4770   21.4260   41.7330 N.am      8 SEL2        0.0000 
     27 N          33.8400   22.9880   43.1090 N.am      5 SEP2        0.0000 
     28 CA         31.0435   22.8925   40.3395 C.3       3 GLC5        0.0000 
     29 CA         31.9730   21.2840   40.4620 C.3       9 GLL5        0.0000 
     30 CA         30.1140   24.5010   40.2170 C.3       6 GLP5        0.0000 
     31 CA         32.5605   22.0295   38.8325 C.3       3 GLC5        0.0000 
     32 CA         33.1480   22.7750   37.2030 C.3       6 GLP5        0.0000 
     33 CA         33.4240   20.2925   40.6475 C.3       3 GLC5        0.0000 
     34 CA         34.8750   19.3010   40.8330 C.3       6 GLP5        0.0000 
     35 N          33.4830   16.4505   38.0495 N.am      2 SEC2        0.0000 
     36 N          33.7000   15.5840   39.1060 N.am      8 SEL2        0.0000 
     37 N          34.5480   16.0665   37.7530 N.am      2 SEC2        0.0000 
     38 N          35.3960   16.5490   36.4000 N.am      5 SEP2        0.0000 
     39 O          35.8840   14.3450   39.7660 O.2       1 ALC1        0.0000 
     40 O          35.3900   15.3000   40.5900 O.2       7 ALL1        0.0000 
     41 O          36.3780   13.3900   38.9420 O.2       4 ALP1        0.0000 
     42 N          37.9560   14.7510   41.1430 N.am      2 SEC2        0.0000 
     43 N          36.8930   14.9770   42.1770 N.am      8 SEL2        0.0000 
     44 N          39.0190   14.5250   40.1090 N.am      5 SEP2        0.0000 
     45 N          36.5150   15.7810   45.1190 N.am      2 SEC2        0.0000 
     46 N          35.2680   16.0970   44.1650 N.am      8 SEL2        0.0000 
     47 N          37.7620   15.4650   46.0730 N.am      5 SEP2        0.0000 
     48 CA         34.5260   17.2815   50.5170 C.3       3 GLC5        0.0000 
     49 CA         34.4180   17.6490   48.7730 C.3       9 GLL5        0.0000 
     50 CA         34.6340   16.9140   52.2610 C.3       6 GLP5        0.0000 
     51 CA         34.7700   15.5305   48.4930 C.3       3 GLC5        0.0000 
     52 CA         35.1220   13.4120   48.2130 C.3       6 GLP5        0.0000 
     53 CA         36.2800   17.4740   48.8350 C.3       3 GLC5        0.0000 
     54 CA         38.1420   17.2990   48.8970 C.3       6 GLP5        0.0000 
     55 CA         30.9635   18.3710   49.5700 C.3       3 GLC5        0.0000 
     56 CA         31.7330   18.7690   47.7900 C.3       9 GLL5        0.0000 
     57 CA         30.1940   17.9730   51.3500 C.3       6 GLP5        0.0000 
     58 CA         33.2655   18.6415   41.7805 C.3       3 GLC5        0.0000 
     59 CA         31.6560   17.9820   42.7280 C.3       9 GLL5        0.0000 
     60 CA         28.5035   17.3050   44.0090 C.3       3 GLC5        0.0000 
     61 CA         30.3000   17.2510   42.6570 C.3       9 GLL5        0.0000 
     62 CA         26.7070   17.3590   45.3610 C.3       6 GLP5        0.0000 
     63 N          29.2840   17.7030   44.6985 N.am      2 SEC2        0.0000 
     64 N          29.8890   16.6770   43.9040 N.am      8 SEL2        0.0000 
     65 N          28.6790   18.7290   45.4930 N.am      5 SEP2        0.0000 
     66 CA         29.7340   14.1685   39.0950 C.3       3 GLC5        0.0000 
     67 CA         28.6370   14.7390   40.3540 C.3       9 GLL5        0.0000 
     68 CA         30.8310   13.5980   37.8360 C.3       6 GLP5        0.0000 
     69 CA         28.4795   12.6750   40.6320 C.3       3 GLC5        0.0000 
     70 CA         28.3220   10.6110   40.9100 C.3       6 GLP5        0.0000 
     71 N          27.0200   12.9585   36.6650 N.am      2 SEC2        0.0000 
     72 N          27.2380   13.8910   37.8000 N.am      8 SEL2        0.0000 
     73 N          26.8020   12.0260   35.5300 N.am      5 SEP2        0.0000 
     74 N          28.3020   13.3670   36.8870 N.am      2 SEC2        0.0000 
     75 N          29.3660   12.8430   35.9740 N.am      5 SEP2        0.0000 
     76 N          24.8695   12.7085   38.2435 N.am      2 SEC2        0.0000 
     77 N          25.1670   13.5400   39.2590 N.am      8 SEL2        0.0000 
     78 N          24.5720   11.8770   37.2280 N.am      5 SEP2        0.0000 
     79 CA         27.0823   19.0733   34.8075 C.3       3 GLC5        0.0000 
     80 CA         27.2170   20.0360   33.2400 C.3       6 GLP5        0.0000 
     81 CA         30.0143   15.5580   37.5635 C.3       3 GLC5        0.0000 
     82 CA         28.5200   17.1780   37.1850 C.3       9 GLL5        0.0000 
     83 CA         29.4892   16.7720   35.3390 C.3       3 GLC5        0.0000 
     84 CA         29.7810   16.0260   33.3870 C.3       6 GLP5        0.0000 
     85 CA         30.0201   22.4819   40.4421 C.3       3 GLC5        0.0000 
     86 CA         29.4760   20.3450   41.0610 C.3       9 GLL5        0.0000 
     87 CA         33.1275   15.5660   45.7940 C.3       3 GLC5        0.0000 
     88 CA         34.3960   16.7370   45.0520 C.3       9 GLL5        0.0000 
     89 CA         31.6670   14.3250   45.8580 C.3       6 GLP5        0.0000 
     90 CA         36.3155   17.4155   44.9995 C.3       3 GLC5        0.0000 
     91 CA         38.0430   18.0240   44.2690 C.3       6 GLP5        0.0000 
     92 CA         32.5465   16.3038   48.1270 C.3       3 GLC5        0.0000 
     93 CA         33.9620   17.5520   47.3170 C.3       9 GLL5        0.0000 
     94 CA         30.9030   15.0070   48.2090 C.3       6 GLP5        0.0000 
     95 CA         34.6482   19.2674   47.3024 C.3       3 GLC5        0.0000 
     96 CA         34.9020   21.1030   46.7870 C.3       6 GLP5        0.0000 
     97 CA         31.5615   16.7045   47.7725 C.3       3 GLC5        0.0000 
     98 CA         32.7070   18.0350   46.8820 C.3       9 GLL5        0.0000 
     99 CA         32.2065   15.9682   45.4627 C.3       3 GLC5        0.0000 
    100 CA         32.3250   17.9300   45.5280 C.3       9 GLL5        0.0000 
    101 CA         33.5873   19.6345   46.6095 C.3       3 GLC5        0.0000 
@<TRIPOS>BOND
@<TRIPOS>SUBSTRUCTURE
     1 ALC1       39 GROUP        1 X    ALC  0     ROOT ALC X 1
     2 SEC2        1 GROUP        1 X    SEC  0     **** SEC X 2
     3 GLC5       11 GROUP        1 X    GLC  0     **** GLC X 6
     4 ALP1       41 GROUP        1 Y    ALP  0     ROOT ALP Y 8
     5 SEP2        3 GROUP        1 Y    SEP  0     **** SEP Y 9
     6 GLP5       13 GROUP        1 Y    GLP  0     **** GLP Y 13
     7 ALL1       40 GROUP        1 Z    ALL  0     ROOT ALL Z 15
     8 SEL2        2 GROUP        1 Z    SEL  0     **** SEL Z 16
     9 GLL5       12 GROUP        1 Z    GLL  0     **** GLL Z 20
@<TRIPOS>SET

