#    Name: 2j09_FAD_1_ligand
#    Modification time : Tue Mar 25 19:03:33 2014

@<TRIPOS>MOLECULE
2j09_FAD_1_ligand
   84    89     1     0     0
SMALL
NO_CHARGES


@<TRIPOS>ATOM
      1 PA         25.0120   16.8140   38.5000 P.3       1 FAD1421     0.0000 
      2 O1A        24.1200   16.1420   37.4830 O.co2     1 FAD1421     0.0000 
      3 O2A        24.2360   17.3050   39.6970 O.co2     1 FAD1421     0.0000 
      4 O5B        25.7710   18.0550   37.7830 O.3       1 FAD1421     0.0000 
      5 C5B        26.1830   18.0230   36.4070 C.3       1 FAD1421     0.0000 
      6 C4B        27.7120   18.1980   36.3430 C.3       1 FAD1421     0.0000 
      7 O4B        28.1080   19.4380   36.8950 O.3       1 FAD1421     0.0000 
      8 C3B        28.5200   17.1780   37.1850 C.3       1 FAD1421     0.0000 
      9 O3B        28.5810   15.9200   36.5620 O.3       1 FAD1421     0.0000 
     10 C2B        29.8750   17.8580   37.3970 C.3       1 FAD1421     0.0000 
     11 O2B        30.6350   17.8720   36.1850 O.3       1 FAD1421     0.0000 
     12 C1B        29.3570   19.3020   37.5820 C.3       1 FAD1421     0.0000 
     13 N9A        29.1000   19.6040   38.9920 N.pl3     1 FAD1421     0.0000 
     14 C8A        27.9900   19.2880   39.7550 C.2       1 FAD1421     0.0000 
     15 N7A        28.2410   19.7730   41.0030 N.2       1 FAD1421     0.0000 
     16 C5A        29.4760   20.3450   41.0610 C.ar      1 FAD1421     0.0000 
     17 C6A        30.2130   21.0180   42.0520 C.ar      1 FAD1421     0.0000 
     18 N6A        29.8760   21.0920   43.3620 N.pl3     1 FAD1421     0.0000 
     19 N1A        31.4770   21.4260   41.7330 N.ar      1 FAD1421     0.0000 
     20 C2A        31.9730   21.2840   40.4620 C.ar      1 FAD1421     0.0000 
     21 N3A        31.2390   20.6990   39.4640 N.ar      1 FAD1421     0.0000 
     22 C4A        30.0080   20.2440   39.7780 C.ar      1 FAD1421     0.0000 
     23 N1         33.2970   16.4040   41.0900 N.2       1 FAD1421     0.0000 
     24 C2         34.1150   15.7350   40.2320 C.2       1 FAD1421     0.0000 
     25 O2         33.7000   15.5840   39.1060 O.2       1 FAD1421     0.0000 
     26 N3         35.3900   15.3000   40.5900 N.am      1 FAD1421     0.0000 
     27 C4         35.8030   15.4590   41.8820 C.2       1 FAD1421     0.0000 
     28 O4         36.8930   14.9770   42.1770 O.2       1 FAD1421     0.0000 
     29 C4X        34.9030   15.9970   42.8400 C.2       1 FAD1421     0.0000 
     30 N5         35.2680   16.0970   44.1650 N.2       1 FAD1421     0.0000 
     31 C5X        34.3960   16.7370   45.0520 C.ar      1 FAD1421     0.0000 
     32 C6         34.7800   16.8770   46.4080 C.ar      1 FAD1421     0.0000 
     33 C7         33.9620   17.5520   47.3170 C.ar      1 FAD1421     0.0000 
     34 C7M        34.4180   17.6490   48.7730 C.3       1 FAD1421     0.0000 
     35 C8         32.7070   18.0350   46.8820 C.ar      1 FAD1421     0.0000 
     36 C8M        31.7330   18.7690   47.7900 C.3       1 FAD1421     0.0000 
     37 C9         32.3250   17.9300   45.5280 C.ar      1 FAD1421     0.0000 
     38 C9A        33.1670   17.2930   44.6070 C.ar      1 FAD1421     0.0000 
     39 N10        32.7460   17.1150   43.3040 N.pl3     1 FAD1421     0.0000 
     40 C10        33.6540   16.5100   42.4260 C.2       1 FAD1421     0.0000 
     41 C1'        31.6560   17.9820   42.7280 C.3       1 FAD1421     0.0000 
     42 C2'        30.3000   17.2510   42.6570 C.3       1 FAD1421     0.0000 
     43 O2'        29.8890   16.6770   43.9040 O.3       1 FAD1421     0.0000 
     44 C3'        30.2540   16.1280   41.6370 C.3       1 FAD1421     0.0000 
     45 O3'        30.6220   16.5730   40.3430 O.3       1 FAD1421     0.0000 
     46 C4'        28.8210   15.5690   41.6060 C.3       1 FAD1421     0.0000 
     47 O4'        28.4460   14.8470   42.7740 O.3       1 FAD1421     0.0000 
     48 C5'        28.6370   14.7390   40.3540 C.3       1 FAD1421     0.0000 
     49 O5'        27.3270   14.1830   40.3360 O.3       1 FAD1421     0.0000 
     50 P          26.4390   14.3200   39.0290 P.3       1 FAD1421     0.0000 
     51 O1P        27.2380   13.8910   37.8000 O.co2     1 FAD1421     0.0000 
     52 O2P        25.1670   13.5400   39.2590 O.co2     1 FAD1421     0.0000 
     53 O3P        26.2220   15.9130   39.0180 O.3       1 FAD1421     0.0000 
     54 H          25.7329   18.8303   35.8295 H         1 FAD1421     0.0000 
     55 H          25.9383   17.0732   35.9319 H         1 FAD1421     0.0000 
     56 H          28.0486   18.1124   35.3262 H         1 FAD1421     0.0000 
     57 H          28.0268   17.1492   38.1587 H         1 FAD1421     0.0000 
     58 H          30.3185   17.5476   38.2345 H         1 FAD1421     0.0000 
     59 H          30.0854   19.9753   37.1823 H         1 FAD1421     0.0000 
     60 H          27.2227   18.8300   39.4594 H         1 FAD1421     0.0000 
     61 H          29.0195   20.6461   43.6219 H         1 FAD1421     0.0000 
     62 H          30.5136   21.5860   43.9531 H         1 FAD1421     0.0000 
     63 H          32.9371   21.6317   40.2499 H         1 FAD1421     0.0000 
     64 H          35.9973   14.8698   39.8862 H         1 FAD1421     0.0000 
     65 H          35.6738   16.4737   46.7189 H         1 FAD1421     0.0000 
     66 H          31.4296   18.3216   45.2219 H         1 FAD1421     0.0000 
     67 H          31.9309   18.3013   41.7160 H         1 FAD1421     0.0000 
     68 H          31.5330   18.8815   43.3423 H         1 FAD1421     0.0000 
     69 H          29.5384   17.9919   42.3390 H         1 FAD1421     0.0000 
     70 H          30.8967   15.3290   41.9868 H         1 FAD1421     0.0000 
     71 H          28.1528   16.4580   41.4806 H         1 FAD1421     0.0000 
     72 H          29.4089   13.9583   40.3472 H         1 FAD1421     0.0000 
     73 H          28.8138   15.3884   39.4866 H         1 FAD1421     0.0000 
     74 H          34.5288   16.7461   49.1884 H         1 FAD1421     0.0000 
     75 H          35.2963   18.1198   48.8565 H         1 FAD1421     0.0000 
     76 H          33.7613   18.1517   49.3351 H         1 FAD1421     0.0000 
     77 H          32.1310   19.6083   48.1604 H         1 FAD1421     0.0000 
     78 H          30.8979   19.0296   47.3055 H         1 FAD1421     0.0000 
     79 H          31.4563   18.2070   48.5695 H         1 FAD1421     0.0000 
     80 H          28.0809   15.3049   37.1716 H         1 FAD1421     0.0000 
     81 H          30.5589   16.9436   35.8212 H         1 FAD1421     0.0000 
     82 H          30.5872   15.9935   44.1168 H         1 FAD1421     0.0000 
     83 H          31.6179   16.6591   40.3726 H         1 FAD1421     0.0000 
     84 H          28.8538   15.3539   43.5335 H         1 FAD1421     0.0000 
@<TRIPOS>BOND
     1    2    1 ar   
     2    3    1 ar   
     3    4    1 1    
     4   53    1 1    
     5    5    4 1    
     6    6    5 1    
     7   54    5 1    
     8   55    5 1    
     9    7    6 1    
    10    8    6 1    
    11   56    6 1    
    12   12    7 1    
    13    9    8 1    
    14   10    8 1    
    15   57    8 1    
    16   80    9 1    
    17   11   10 1    
    18   12   10 1    
    19   58   10 1    
    20   81   11 1    
    21   13   12 1    
    22   59   12 1    
    23   14   13 1    
    24   22   13 1    
    25   15   14 2    
    26   60   14 1    
    27   16   15 1    
    28   17   16 ar   
    29   22   16 ar   
    30   18   17 1    
    31   19   17 ar   
    32   61   18 1    
    33   62   18 1    
    34   20   19 ar   
    35   21   20 ar   
    36   63   20 1    
    37   22   21 ar   
    38   24   23 1    
    39   40   23 2    
    40   25   24 2    
    41   26   24 am   
    42   27   26 am   
    43   64   26 1    
    44   28   27 2    
    45   29   27 1    
    46   30   29 2    
    47   40   29 1    
    48   31   30 1    
    49   32   31 ar   
    50   38   31 ar   
    51   33   32 ar   
    52   65   32 1    
    53   34   33 1    
    54   35   33 ar   
    55   74   34 1    
    56   75   34 1    
    57   76   34 1    
    58   36   35 1    
    59   37   35 ar   
    60   77   36 1    
    61   78   36 1    
    62   79   36 1    
    63   38   37 ar   
    64   66   37 1    
    65   39   38 1    
    66   40   39 1    
    67   41   39 1    
    68   42   41 1    
    69   67   41 1    
    70   68   41 1    
    71   43   42 1    
    72   44   42 1    
    73   69   42 1    
    74   82   43 1    
    75   45   44 1    
    76   46   44 1    
    77   70   44 1    
    78   83   45 1    
    79   47   46 1    
    80   48   46 1    
    81   71   46 1    
    82   84   47 1    
    83   49   48 1    
    84   72   48 1    
    85   73   48 1    
    86   50   49 1    
    87   51   50 ar   
    88   52   50 ar   
    89   53   50 1    
@<TRIPOS>SUBSTRUCTURE
     1 FAD1421     1 GROUP   
@<TRIPOS>SET

