#    Name: 4hr2_ADP_2_INTS_M
#    Modification time : Tue Mar 25 01:36:35 2014

@<TRIPOS>MOLECULE
4hr2_ADP_2_INTS_M
   50     0    12     0     0
SMALL
NO_CHARGES


@<TRIPOS>ATOM
      1 NZ         20.3275   45.8530   -7.0910 N.4       3 LYC4        0.0000 
      2 NZ         19.5080   45.7860   -8.5070 N.4      11 LYL4        0.0000 
      3 NZ         21.1470   45.9200   -5.6750 N.4       7 LYP4        0.0000 
      4 N          20.3275   45.8530   -7.0910 N.am      2 SEC2        0.0000 
      5 N          19.5080   45.7860   -8.5070 N.am     10 SEL2        0.0000 
      6 N          21.1470   45.9200   -5.6750 N.am      6 SEP2        0.0000 
      7 N          20.6120   44.9345   -8.7310 N.am      2 SEC2        0.0000 
      8 N          21.7160   44.0830   -8.9550 N.am      6 SEP2        0.0000 
      9 N          18.8560   44.7460   -9.0890 N.am      2 SEC2        0.0000 
     10 N          18.2040   43.7060   -9.6710 N.am      6 SEP2        0.0000 
     11 N          16.8190   46.9090   -6.7065 N.am      2 SEC2        0.0000 
     12 N          17.0470   46.4390   -8.1900 N.am     10 SEL2        0.0000 
     13 N          16.5910   47.3790   -5.2230 N.am      6 SEP2        0.0000 
     14 N          16.1635   44.9530   -7.9555 N.am      2 SEC2        0.0000 
     15 N          15.2800   43.4670   -7.7210 N.am      6 SEP2        0.0000 
     16 NZ         20.0535   46.9620   -6.5565 N.4       3 LYC4        0.0000 
     17 NZ         18.9600   48.0040   -7.4380 N.4      11 LYL4        0.0000 
     18 N          20.0535   46.9620   -6.5565 N.am      2 SEC2        0.0000 
     19 N          18.9600   48.0040   -7.4380 N.am     10 SEL2        0.0000 
     20 CA         21.7780   46.6100  -10.2555 C.3       4 GLC5        0.0000 
     21 CA         21.5720   48.1520   -9.4250 C.3      12 GLL5        0.0000 
     22 CA         21.9840   45.0680  -11.0860 C.3       8 GLP5        0.0000 
     23 CA         22.0575   48.5075  -11.5240 C.3       4 GLC5        0.0000 
     24 CA         22.5430   48.8630  -13.6230 C.3       8 GLP5        0.0000 
     25 CA         23.4240   47.9640  -10.0705 C.3       4 GLC5        0.0000 
     26 CA         25.2760   47.7760  -10.7160 C.3       8 GLP5        0.0000 
     27 CA         23.9015   47.8845   -8.3415 C.3       4 GLC5        0.0000 
     28 CA         22.3930   48.7700   -8.3310 C.3      12 GLL5        0.0000 
     29 CA         25.4100   46.9990   -8.3520 C.3       8 GLP5        0.0000 
     30 N          20.2715   49.0280   -5.1370 N.am      2 SEC2        0.0000 
     31 N          21.0070   48.7050   -6.2660 N.am     10 SEL2        0.0000 
     32 N          19.5360   49.3510   -4.0080 N.am      6 SEP2        0.0000 
     33 CA         22.2785   52.0160   -5.6965 C.3       4 GLC5        0.0000 
     34 CA         22.6530   50.4520   -6.7750 C.3      12 GLL5        0.0000 
     35 CA         21.9040   53.5800   -4.6180 C.3       8 GLP5        0.0000 
     36 O          23.2805   50.3060   -4.7130 O.2       1 ALC1        0.0000 
     37 O          23.5250   49.7280   -5.9100 O.2       9 ALL1        0.0000 
     38 O          23.0360   50.8840   -3.5160 O.2       5 ALP1        0.0000 
     39 CA         24.0735   51.4355   -9.7630 C.3       4 GLC5        0.0000 
     40 CA         23.3890   50.8520   -8.0400 C.3      12 GLL5        0.0000 
     41 CA         24.7580   52.0190  -11.4860 C.3       8 GLP5        0.0000 
     42 CA         24.3995   48.9255   -8.1960 C.3       4 GLC5        0.0000 
     43 CA         26.0825   54.3615   -8.6300 C.3       4 GLC5        0.0000 
     44 CA         24.5320   55.0770   -7.6320 C.3      12 GLL5        0.0000 
     45 CA         27.6330   53.6460   -9.6280 C.3       8 GLP5        0.0000 
     46 CA         23.2180   54.3285   -6.1250 C.3       4 GLC5        0.0000 
     47 CA         22.5710   53.4355   -6.4995 C.3       4 GLC5        0.0000 
     48 CA         23.2380   53.2910   -8.3810 C.3      12 GLL5        0.0000 
     49 CA         20.3000   50.8382   -6.7062 C.3       4 GLC5        0.0000 
     50 CA         18.4830   51.6830   -6.3790 C.3       8 GLP5        0.0000 
@<TRIPOS>BOND
@<TRIPOS>SUBSTRUCTURE
     1 ALC1       36 GROUP        1 X    ALC  0     ROOT ALC X 1
     2 SEC2        4 GROUP        1 X    SEC  0     **** SEC X 2
     3 LYC4        1 GROUP        1 X    LYC  0     **** LYC X 4
     4 GLC5       20 GROUP        1 X    GLC  0     **** GLC X 6
     5 ALP1       38 GROUP        1 Y    ALP  0     ROOT ALP Y 8
     6 SEP2        6 GROUP        1 Y    SEP  0     **** SEP Y 9
     7 LYP4        3 GROUP        1 Y    LYP  0     **** LYP Y 11
     8 GLP5       22 GROUP        1 Y    GLP  0     **** GLP Y 13
     9 ALL1       37 GROUP        1 Z    ALL  0     ROOT ALL Z 15
    10 SEL2        5 GROUP        1 Z    SEL  0     **** SEL Z 16
    11 LYL4        2 GROUP        1 Z    LYL  0     **** LYL Z 18
    12 GLL5       21 GROUP        1 Z    GLL  0     **** GLL Z 20
@<TRIPOS>SET

