#    Name: 4hr2_ADP_2_ligand
#    Modification time : Tue Mar 25 01:36:35 2014

@<TRIPOS>MOLECULE
4hr2_ADP_2_ligand
   39    41     1     0     0
SMALL
NO_CHARGES


@<TRIPOS>ATOM
      1 PB         18.4970   46.9080   -8.3790 P.3       1 ADP601      0.0000 
      2 O1B        19.5080   45.7860   -8.5070 O.co2     1 ADP601      0.0000 
      3 O2B        17.0470   46.4390   -8.1900 O.co2     1 ADP601      0.0000 
      4 O3B        18.9600   48.0040   -7.4380 O.co2     1 ADP601      0.0000 
      5 PA         19.3300   48.7300  -10.5900 P.3       1 ADP601      0.0000 
      6 O1A        19.9800   48.0300  -11.7510 O.co2     1 ADP601      0.0000 
      7 O2A        18.5540   50.0110  -10.7930 O.co2     1 ADP601      0.0000 
      8 O3A        18.3980   47.6190   -9.8480 O.3       1 ADP601      0.0000 
      9 O5'        20.5160   49.0650   -9.6090 O.3       1 ADP601      0.0000 
     10 C5'        21.5720   48.1520   -9.4250 C.3       1 ADP601      0.0000 
     11 C4'        22.3930   48.7700   -8.3310 C.3       1 ADP601      0.0000 
     12 O4'        23.2600   49.7330   -8.9260 O.3       1 ADP601      0.0000 
     13 C3'        21.5810   49.5350   -7.2920 C.3       1 ADP601      0.0000 
     14 O3'        21.0070   48.7050   -6.2660 O.3       1 ADP601      0.0000 
     15 C2'        22.6530   50.4520   -6.7750 C.3       1 ADP601      0.0000 
     16 O2'        23.5250   49.7280   -5.9100 O.3       1 ADP601      0.0000 
     17 C1'        23.3890   50.8520   -8.0400 C.3       1 ADP601      0.0000 
     18 N9         22.7720   52.0780   -8.6170 N.pl3     1 ADP601      0.0000 
     19 C8         21.6960   52.1770   -9.4170 C.2       1 ADP601      0.0000 
     20 N7         21.4300   53.4730   -9.7290 N.2       1 ADP601      0.0000 
     21 C5         22.3630   54.2100   -9.1140 C.ar      1 ADP601      0.0000 
     22 C6         22.6920   55.6310   -9.0170 C.ar      1 ADP601      0.0000 
     23 N6         21.9250   56.5310   -9.6670 N.pl3     1 ADP601      0.0000 
     24 N1         23.7610   55.9770   -8.2680 N.ar      1 ADP601      0.0000 
     25 C2         24.5320   55.0770   -7.6320 C.ar      1 ADP601      0.0000 
     26 N3         24.2760   53.7620   -7.6710 N.ar      1 ADP601      0.0000 
     27 C4         23.2380   53.2910   -8.3810 C.ar      1 ADP601      0.0000 
     28 H          22.1884   48.0529  -10.3037 H         1 ADP601      0.0000 
     29 H          21.2278   47.1859   -9.0931 H         1 ADP601      0.0000 
     30 H          22.9681   48.0154   -7.8308 H         1 ADP601      0.0000 
     31 H          20.8711   50.1318   -7.8207 H         1 ADP601      0.0000 
     32 H          22.2170   51.2970   -6.3465 H         1 ADP601      0.0000 
     33 H          24.4106   51.0289   -7.7868 H         1 ADP601      0.0000 
     34 H          21.1645   51.4151   -9.7393 H         1 ADP601      0.0000 
     35 H          22.1785   57.4912   -9.5500 H         1 ADP601      0.0000 
     36 H          21.1713   56.1577  -10.2079 H         1 ADP601      0.0000 
     37 H          25.3696   55.4212   -7.0821 H         1 ADP601      0.0000 
     38 H          20.5109   47.9902   -6.7589 H         1 ADP601      0.0000 
     39 H          23.3450   50.0931   -4.9966 H         1 ADP601      0.0000 
@<TRIPOS>BOND
     1    2    1 ar   
     2    3    1 ar   
     3    4    1 ar   
     4    8    1 1    
     5    6    5 ar   
     6    7    5 ar   
     7    8    5 1    
     8    9    5 1    
     9   10    9 1    
    10   11   10 1    
    11   28   10 1    
    12   29   10 1    
    13   12   11 1    
    14   13   11 1    
    15   30   11 1    
    16   17   12 1    
    17   14   13 1    
    18   15   13 1    
    19   31   13 1    
    20   38   14 1    
    21   16   15 1    
    22   17   15 1    
    23   32   15 1    
    24   39   16 1    
    25   18   17 1    
    26   33   17 1    
    27   19   18 1    
    28   27   18 1    
    29   20   19 2    
    30   34   19 1    
    31   21   20 1    
    32   22   21 ar   
    33   27   21 ar   
    34   23   22 1    
    35   24   22 ar   
    36   35   23 1    
    37   36   23 1    
    38   25   24 ar   
    39   26   25 ar   
    40   37   25 1    
    41   27   26 ar   
@<TRIPOS>SUBSTRUCTURE
     1 ADP601      1 GROUP   
@<TRIPOS>SET

