#    Name: 2e7z_MGD_2_INTS_M
#    Modification time : Tue Mar 25 10:40:35 2014

@<TRIPOS>MOLECULE
2e7z_MGD_2_INTS_M
  108     0     9     0     0
SMALL
NO_CHARGES


@<TRIPOS>ATOM
      1 N          39.5315   78.8410   15.7380 N.am      2 SEC2        0.0000 
      2 N          39.5620   77.9600   14.8110 N.am      8 SEL2        0.0000 
      3 N          39.5010   79.7220   16.6650 N.am      5 SEP2        0.0000 
      4 N          37.6205   77.5700   17.2285 N.am      2 SEC2        0.0000 
      5 N          38.4450   76.7810   16.8210 N.am      8 SEL2        0.0000 
      6 N          36.7960   78.3590   17.6360 N.am      5 SEP2        0.0000 
      7 N          38.0260   75.3950   17.5505 N.am      2 SEC2        0.0000 
      8 N          37.6070   74.0090   18.2800 N.am      5 SEP2        0.0000 
      9 N          40.3195   73.5790   12.3310 N.am      2 SEC2        0.0000 
     10 N          40.6300   73.6830   13.8020 N.am      8 SEL2        0.0000 
     11 N          40.0090   73.4750   10.8600 N.am      5 SEP2        0.0000 
     12 N          41.0560   76.1995   11.7305 N.am      2 SEC2        0.0000 
     13 N          41.2010   76.1230   13.0890 N.am      8 SEL2        0.0000 
     14 N          40.9110   76.2760   10.3720 N.am      5 SEP2        0.0000 
     15 N          42.1885   77.5055   13.2085 N.am      2 SEC2        0.0000 
     16 N          43.1760   78.8880   13.3280 N.am      5 SEP2        0.0000 
     17 CA         34.9760   76.7235   14.2360 C.3       3 GLC5        0.0000 
     18 CA         35.6510   76.6690   12.3890 C.3       9 GLL5        0.0000 
     19 CA         34.3010   76.7780   16.0830 C.3       6 GLP5        0.0000 
     20 CA         35.8685   78.5620   13.4380 C.3       3 GLC5        0.0000 
     21 CA         36.0860   80.4550   14.4870 C.3       6 GLP5        0.0000 
     22 O          34.4670   76.1380   10.3595 O.2       1 ALC1        0.0000 
     23 O          35.4530   77.1980   11.0770 O.2       7 ALL1        0.0000 
     24 O          33.4810   75.0780    9.6420 O.2       4 ALP1        0.0000 
     25 O          35.5485   76.2300   10.1550 O.2       1 ALC1        0.0000 
     26 O          35.6440   75.2620    9.2330 O.2       4 ALP1        0.0000 
     27 CA         32.4985   75.2525   13.4730 C.3       3 GLC5        0.0000 
     28 CA         34.4410   75.8930   12.8600 C.3       9 GLL5        0.0000 
     29 CA         30.5560   74.6120   14.0860 C.3       6 GLP5        0.0000 
     30 CA         33.8425   76.6800   14.1715 C.3       3 GLC5        0.0000 
     31 CA         33.2440   77.4670   15.4830 C.3       6 GLP5        0.0000 
     32 N          31.7890   76.4725   12.5960 N.am      2 SEC2        0.0000 
     33 N          33.2550   76.1400   12.1070 N.am      8 SEL2        0.0000 
     34 N          30.3230   76.8050   13.0850 N.am      5 SEP2        0.0000 
     35 O          33.3680   75.6090   10.8745 O.2       1 ALC1        0.0000 
     36 O          33.2550   76.1400   12.1070 O.2       7 ALL1        0.0000 
     37 CA         36.3370   73.5475   11.5540 C.3       3 GLC5        0.0000 
     38 CA         34.9080   74.4540   12.6780 C.3       9 GLL5        0.0000 
     39 CA         37.7660   72.6410   10.4300 C.3       6 GLP5        0.0000 
     40 CA         33.1505   73.7675   11.5195 C.3       3 GLC5        0.0000 
     41 CA         31.3930   73.0810   10.3610 C.3       6 GLP5        0.0000 
     42 CA         34.6045   75.6160   14.3805 C.3       3 GLC5        0.0000 
     43 CA         32.8730   71.2050   16.2405 C.3       3 GLC5        0.0000 
     44 CA         33.0760   71.6230   14.1320 C.3       9 GLL5        0.0000 
     45 CA         32.6700   70.7870   18.3490 C.3       6 GLP5        0.0000 
     46 N          30.5415   69.1875   14.7670 N.am      2 SEC2        0.0000 
     47 N          31.9440   69.6260   14.7370 N.am      8 SEL2        0.0000 
     48 N          29.1390   68.7490   14.7970 N.am      5 SEP2        0.0000 
     49 N          32.3405   68.4205   15.1405 N.am      2 SEC2        0.0000 
     50 N          32.7370   67.2150   15.5440 N.am      5 SEP2        0.0000 
     51 O          32.7375   68.3340   12.6840 O.2       1 ALC1        0.0000 
     52 O          32.9760   69.6580   12.7270 O.2       7 ALL1        0.0000 
     53 O          32.4990   67.0100   12.6410 O.2       4 ALP1        0.0000 
     54 O          33.4655   68.2915   11.8595 O.2       1 ALC1        0.0000 
     55 O          33.9550   66.9250   10.9920 O.2       4 ALP1        0.0000 
     56 O          34.6485   70.1850    9.4490 O.2       1 ALC1        0.0000 
     57 O          34.0110   69.6200   10.6390 O.2       7 ALL1        0.0000 
     58 O          35.2860   70.7500    8.2590 O.2       4 ALP1        0.0000 
     59 O          33.9830   68.2725   10.8155 O.2       1 ALC1        0.0000 
     60 CA         41.3395   73.3175   16.7015 C.3       3 GLC5        0.0000 
     61 CA         42.5290   74.4920   16.3300 C.3       9 GLL5        0.0000 
     62 CA         40.1500   72.1430   17.0730 C.3       6 GLP5        0.0000 
     63 CA         44.1270   71.6355   19.7755 C.3       3 GLC5        0.0000 
     64 CA         43.6750   73.0900   18.8530 C.3       9 GLL5        0.0000 
     65 CA         44.5790   70.1810   20.6980 C.3       6 GLP5        0.0000 
     66 CA         44.1580   71.5255   18.1665 C.3       3 GLC5        0.0000 
     67 CA         44.6410   69.9610   17.4800 C.3       6 GLP5        0.0000 
     68 CA         42.3710   72.0940   18.2880 C.3       3 GLC5        0.0000 
     69 CA         41.0670   71.0980   17.7230 C.3       6 GLP5        0.0000 
     70 CA         46.7925   77.0540   19.7185 C.3       3 GLC5        0.0000 
     71 CA         45.7360   76.4880   18.2500 C.3       9 GLL5        0.0000 
     72 CA         47.8490   77.6200   21.1870 C.3       6 GLP5        0.0000 
     73 CA         43.4735   78.4705   17.8755 C.3       3 GLC5        0.0000 
     74 CA         45.1290   78.8120   18.2700 C.3       9 GLL5        0.0000 
     75 CA         41.8180   78.1290   17.4810 C.3       6 GLP5        0.0000 
     76 N          44.4705   80.3410   21.4410 N.am      2 SEC2        0.0000 
     77 N          44.3180   80.0780   20.1160 N.am      8 SEL2        0.0000 
     78 N          44.6230   80.6040   22.7660 N.am      5 SEP2        0.0000 
     79 O          45.1630   82.2620   18.9030 O.2       1 ALC1        0.0000 
     80 O          44.9580   81.2250   18.2720 O.2       7 ALL1        0.0000 
     81 O          45.3680   83.2990   19.5340 O.2       4 ALP1        0.0000 
     82 O          46.2145   82.7730   15.1120 O.2       1 ALC1        0.0000 
     83 O          45.5860   82.4640   16.4100 O.2       7 ALL1        0.0000 
     84 O          46.8430   83.0820   13.8140 O.2       4 ALP1        0.0000 
     85 O          44.7055   83.2175   16.7795 O.2       1 ALC1        0.0000 
     86 O          43.8250   83.9710   17.1490 O.2       4 ALP1        0.0000 
     87 O          45.4770   82.8815   17.9720 O.2       1 ALC1        0.0000 
     88 CA         43.7770   79.2175   16.8740 C.3       3 GLC5        0.0000 
     89 CA         45.6310   78.9290   16.8860 C.3       9 GLL5        0.0000 
     90 CA         41.9230   79.5060   16.8620 C.3       6 GLP5        0.0000 
     91 CA         37.5802   74.2673   11.5708 C.3       3 GLC5        0.0000 
     92 CA         38.0100   76.1450   13.0770 C.3       9 GLL5        0.0000 
     93 CA         38.6158   77.1743   11.6858 C.3       3 GLC5        0.0000 
     94 CA         36.7790   75.6420   12.3460 C.3       9 GLL5        0.0000 
     95 CA         39.8370   78.4550   10.6600 C.3       6 GLP5        0.0000 
     96 CA         33.7245   77.8345   12.0962 C.3       3 GLC5        0.0000 
     97 CA         32.4030   79.3880   11.5680 C.3       6 GLP5        0.0000 
     98 CA         32.4307   72.5088   11.9783 C.3       3 GLC5        0.0000 
     99 CA         33.8610   72.2500   13.0590 C.3       9 GLL5        0.0000 
    100 CA         34.9528   70.9467   14.2717 C.3       3 GLC5        0.0000 
    101 CA         36.4370   69.9570   14.9480 C.3       6 GLP5        0.0000 
    102 CA         42.5378   76.3863   16.9903 C.3       3 GLC5        0.0000 
    103 CA         46.6908   76.2887   20.3705 C.3       3 GLC5        0.0000 
    104 CA         45.2410   75.1840   18.7860 C.3       9 GLL5        0.0000 
    105 CA         47.1953   76.5308   16.1988 C.3       3 GLC5        0.0000 
    106 CA         48.7230   76.5610   14.9120 C.3       6 GLP5        0.0000 
    107 CA         43.7428   77.3148   17.4832 C.3       3 GLC5        0.0000 
    108 CA         45.5990   76.5130   16.7210 C.3       9 GLL5        0.0000 
@<TRIPOS>BOND
@<TRIPOS>SUBSTRUCTURE
     1 ALC1       22 GROUP        1 X    ALC  0     ROOT ALC X 1
     2 SEC2        1 GROUP        1 X    SEC  0     **** SEC X 2
     3 GLC5       17 GROUP        1 X    GLC  0     **** GLC X 6
     4 ALP1       24 GROUP        1 Y    ALP  0     ROOT ALP Y 8
     5 SEP2        3 GROUP        1 Y    SEP  0     **** SEP Y 9
     6 GLP5       19 GROUP        1 Y    GLP  0     **** GLP Y 13
     7 ALL1       23 GROUP        1 Z    ALL  0     ROOT ALL Z 15
     8 SEL2        2 GROUP        1 Z    SEL  0     **** SEL Z 16
     9 GLL5       18 GROUP        1 Z    GLL  0     **** GLL Z 20
@<TRIPOS>SET

