#    Name: 2e7z_MGD_2_ligand
#    Modification time : Tue Mar 25 10:40:35 2014

@<TRIPOS>MOLECULE
2e7z_MGD_2_ligand
   69    74     1     0     0
SMALL
NO_CHARGES


@<TRIPOS>ATOM
      1 PB         38.9420   76.7230   15.4050 P.3       1 MGD802      0.0000 
      2 O1B        39.5620   77.9600   14.8110 O.co2     1 MGD802      0.0000 
      3 O2B        38.4450   76.7810   16.8210 O.co2     1 MGD802      0.0000 
      4 O3B        39.9760   75.4930   15.3330 O.3       1 MGD802      0.0000 
      5 O3A        42.3920   75.0020   15.0050 O.3       1 MGD802      0.0000 
      6 PA         41.0210   75.0880   14.1840 P.3       1 MGD802      0.0000 
      7 O1A        40.6300   73.6830   13.8020 O.co2     1 MGD802      0.0000 
      8 O2A        41.2010   76.1230   13.0890 O.co2     1 MGD802      0.0000 
      9 O5'        37.7210   76.2680   14.4570 O.3       1 MGD802      0.0000 
     10 C5'        38.0100   76.1450   13.0770 C.3       1 MGD802      0.0000 
     11 C4'        36.7790   75.6420   12.3460 C.3       1 MGD802      0.0000 
     12 O4'        36.2910   74.4510   12.9740 O.3       1 MGD802      0.0000 
     13 C3'        35.6510   76.6690   12.3890 C.3       1 MGD802      0.0000 
     14 O3'        35.4530   77.1980   11.0770 O.3       1 MGD802      0.0000 
     15 C2'        34.4410   75.8930   12.8600 C.3       1 MGD802      0.0000 
     16 O2'        33.2550   76.1400   12.1070 O.3       1 MGD802      0.0000 
     17 C1'        34.9080   74.4540   12.6780 C.3       1 MGD802      0.0000 
     18 N9         34.1410   73.4800   13.4790 N.pl3     1 MGD802      0.0000 
     19 C8         33.6140   73.6440   14.7070 C.2       1 MGD802      0.0000 
     20 N7         32.9750   72.5260   15.1380 N.2       1 MGD802      0.0000 
     21 C5         33.0760   71.6230   14.1320 C.2       1 MGD802      0.0000 
     22 C6         32.6340   70.2330   13.8900 C.2       1 MGD802      0.0000 
     23 O6         31.9440   69.6260   14.7370 O.2       1 MGD802      0.0000 
     24 N1         32.9760   69.6580   12.7270 N.am      1 MGD802      0.0000 
     25 C2         33.7010   70.2850   11.7780 C.2       1 MGD802      0.0000 
     26 N2         34.0110   69.6200   10.6390 N.pl3     1 MGD802      0.0000 
     27 N3         34.1440   71.5640   11.9360 N.2       1 MGD802      0.0000 
     28 C4         33.8610   72.2500   13.0590 C.2       1 MGD802      0.0000 
     29 C10        42.5290   74.4920   16.3300 C.3       1 MGD802      0.0000 
     30 C11        43.9860   74.7950   16.6690 C.3       1 MGD802      0.0000 
     31 O11        44.2520   76.1810   16.4000 O.3       1 MGD802      0.0000 
     32 C12        44.3600   74.4420   18.0940 C.2       1 MGD802      0.0000 
     33 S12        43.6750   73.0900   18.8530 S.3       1 MGD802      0.0000 
     34 C13        45.2410   75.1840   18.7860 C.2       1 MGD802      0.0000 
     35 S13        45.8240   74.7310   20.3220 S.3       1 MGD802      0.0000 
     36 C14        45.7360   76.4880   18.2500 C.3       1 MGD802      0.0000 
     37 N15        44.9950   77.5950   18.8410 N.pl3     1 MGD802      0.0000 
     38 C16        45.1290   78.8120   18.2700 C.2       1 MGD802      0.0000 
     39 C17        44.7790   80.0770   18.9510 C.2       1 MGD802      0.0000 
     40 O17        44.3180   80.0780   20.1160 O.2       1 MGD802      0.0000 
     41 N18        44.9580   81.2250   18.2720 N.am      1 MGD802      0.0000 
     42 C19        45.4290   81.2640   17.0070 C.2       1 MGD802      0.0000 
     43 N19        45.5860   82.4640   16.4100 N.pl3     1 MGD802      0.0000 
     44 N20        45.7630   80.1440   16.3160 N.2       1 MGD802      0.0000 
     45 C21        45.6310   78.9290   16.8860 C.2       1 MGD802      0.0000 
     46 N22        45.9510   77.8180   16.2010 N.pl3     1 MGD802      0.0000 
     47 C23        45.5990   76.5130   16.7210 C.3       1 MGD802      0.0000 
     48 H          38.8254   75.4345   12.8902 H         1 MGD802      0.0000 
     49 H          38.2967   77.1058   12.6305 H         1 MGD802      0.0000 
     50 H          37.0279   75.4585   11.3177 H         1 MGD802      0.0000 
     51 H          35.8979   77.4033   13.1078 H         1 MGD802      0.0000 
     52 H          34.3284   76.0547   13.9107 H         1 MGD802      0.0000 
     53 H          34.7703   74.2260   11.6037 H         1 MGD802      0.0000 
     54 H          33.6807   74.4750   15.2359 H         1 MGD802      0.0000 
     55 H          32.6610   68.6575   12.5412 H         1 MGD802      0.0000 
     56 H          34.5308   70.1343    9.9568 H         1 MGD802      0.0000 
     57 H          33.6926   68.6738   10.5814 H         1 MGD802      0.0000 
     58 H          42.3864   73.4321   16.3764 H         1 MGD802      0.0000 
     59 H          41.9063   75.0068   17.0322 H         1 MGD802      0.0000 
     60 H          44.6068   74.1757   15.9967 H         1 MGD802      0.0000 
     61 H          46.7933   76.5824   18.4834 H         1 MGD802      0.0000 
     62 H          44.4175   77.4082   19.6453 H         1 MGD802      0.0000 
     63 H          44.7186   82.1428   18.7509 H         1 MGD802      0.0000 
     64 H          45.2968   83.2607   16.9407 H         1 MGD802      0.0000 
     65 H          45.9776   82.4499   15.4900 H         1 MGD802      0.0000 
     66 H          46.4476   77.8456   15.2997 H         1 MGD802      0.0000 
     67 H          46.2763   75.7577   16.3342 H         1 MGD802      0.0000 
     68 H          35.5521   76.4140   10.4643 H         1 MGD802      0.0000 
     69 H          33.4024   75.6771   11.2329 H         1 MGD802      0.0000 
@<TRIPOS>BOND
     1    2    1 ar   
     2    3    1 ar   
     3    4    1 1    
     4    9    1 1    
     5    6    4 1    
     6    6    5 1    
     7   29    5 1    
     8    7    6 ar   
     9    8    6 ar   
    10   10    9 1    
    11   11   10 1    
    12   48   10 1    
    13   49   10 1    
    14   12   11 1    
    15   13   11 1    
    16   50   11 1    
    17   17   12 1    
    18   14   13 1    
    19   15   13 1    
    20   51   13 1    
    21   68   14 1    
    22   16   15 1    
    23   17   15 1    
    24   52   15 1    
    25   69   16 1    
    26   18   17 1    
    27   53   17 1    
    28   19   18 1    
    29   28   18 1    
    30   20   19 2    
    31   54   19 1    
    32   21   20 1    
    33   22   21 1    
    34   28   21 2    
    35   23   22 2    
    36   24   22 am   
    37   25   24 1    
    38   55   24 1    
    39   26   25 1    
    40   27   25 2    
    41   56   26 1    
    42   57   26 1    
    43   28   27 1    
    44   30   29 1    
    45   58   29 1    
    46   59   29 1    
    47   31   30 1    
    48   32   30 1    
    49   60   30 1    
    50   47   31 1    
    51   33   32 1    
    52   34   32 2    
    53   35   34 1    
    54   36   34 1    
    55   37   36 1    
    56   47   36 1    
    57   61   36 1    
    58   38   37 1    
    59   62   37 1    
    60   39   38 1    
    61   45   38 2    
    62   40   39 2    
    63   41   39 am   
    64   42   41 1    
    65   63   41 1    
    66   43   42 1    
    67   44   42 2    
    68   64   43 1    
    69   65   43 1    
    70   45   44 1    
    71   46   45 1    
    72   47   46 1    
    73   66   46 1    
    74   67   47 1    
@<TRIPOS>SUBSTRUCTURE
     1 MGD802      1 GROUP   
@<TRIPOS>SET

