#    Name: 1tf7_ATP_4_INTS_M
#    Modification time : Tue Mar 25 04:56:05 2014

@<TRIPOS>MOLECULE
1tf7_ATP_4_INTS_M
   74     0    12     0     0
SMALL
NO_CHARGES


@<TRIPOS>ATOM
      1 NZ        120.9370   47.1415   47.5220 N.4       3 LYC4        0.0000 
      2 NZ        121.1070   45.4360   47.0570 N.4      11 LYL4        0.0000 
      3 NZ        120.7670   48.8470   47.9870 N.4       7 LYP4        0.0000 
      4 NZ        120.6040   44.3110   46.1910 N.4       3 LYC4        0.0000 
      5 NZ        120.1010   43.1860   45.3250 N.4       7 LYP4        0.0000 
      6 NZ        122.7750   43.4860   47.9385 N.4       3 LYC4        0.0000 
      7 NZ        123.5310   44.9330   47.7910 N.4      11 LYL4        0.0000 
      8 NZ        122.6370   41.1660   47.3060 N.4       7 LYP4        0.0000 
      9 N         122.7750   43.4860   47.9385 N.am      2 SEC2        0.0000 
     10 N         123.5310   44.9330   47.7910 N.am     10 SEL2        0.0000 
     11 N         122.0190   42.0390   48.0860 N.am      6 SEP2        0.0000 
     12 NZ        121.4320   43.9995   45.3380 N.4       3 LYC4        0.0000 
     13 NZ        122.7630   44.8130   45.3510 N.4      11 LYL4        0.0000 
     14 N         121.4320   43.9995   45.3380 N.am      2 SEC2        0.0000 
     15 N         122.7630   44.8130   45.3510 N.am     10 SEL2        0.0000 
     16 N         120.1010   43.1860   45.3250 N.am      6 SEP2        0.0000 
     17 N         123.0745   43.2040   45.8240 N.am      2 SEC2        0.0000 
     18 N         123.3860   41.5950   46.2970 N.am      6 SEP2        0.0000 
     19 NZ        122.1840   48.9800   46.6705 N.4       3 LYC4        0.0000 
     20 NZ        123.6010   49.1130   45.3540 N.4      11 LYL4        0.0000 
     21 N         123.8100   49.6940   44.1535 N.am      2 SEC2        0.0000 
     22 N         123.6010   49.1130   45.3540 N.am     10 SEL2        0.0000 
     23 N         124.0190   50.2750   42.9530 N.am      6 SEP2        0.0000 
     24 N         124.4210   49.8670   45.4145 N.am      2 SEC2        0.0000 
     25 N         125.2410   50.6210   45.4750 N.am      6 SEP2        0.0000 
     26 N         123.3695   48.7785   43.4310 N.am      2 SEC2        0.0000 
     27 N         122.7200   47.2820   43.9090 N.am     10 SEL2        0.0000 
     28 N         121.8395   47.9615   47.2245 N.am      2 SEC2        0.0000 
     29 N         122.9120   47.0760   46.4620 N.am     10 SEL2        0.0000 
     30 N         120.7670   48.8470   47.9870 N.am      6 SEP2        0.0000 
     31 N         128.0665   47.7870   44.6210 N.am      2 SEC2        0.0000 
     32 N         127.1130   47.0980   43.7970 N.am     10 SEL2        0.0000 
     33 N         129.0200   48.4760   45.4450 N.am      6 SEP2        0.0000 
     34 N         125.8945   48.0385   46.1040 N.am      2 SEC2        0.0000 
     35 N         124.9990   47.1680   45.0250 N.am     10 SEL2        0.0000 
     36 N         126.7900   48.9090   47.1830 N.am      6 SEP2        0.0000 
     37 N         125.6160   46.7290   46.3315 N.am      2 SEC2        0.0000 
     38 N         126.2330   46.2900   47.6380 N.am      6 SEP2        0.0000 
     39 CA        125.6180   48.1505   39.3985 C.3       4 GLC5        0.0000 
     40 CA        125.1220   46.2920   40.0460 C.3      12 GLL5        0.0000 
     41 CA        126.1140   50.0090   38.7510 C.3       8 GLP5        0.0000 
     42 CA        122.3310   44.7485   39.9035 C.3       4 GLC5        0.0000 
     43 CA        124.1880   45.2740   39.4090 C.3      12 GLL5        0.0000 
     44 CA        120.4740   44.2230   40.3980 C.3       8 GLP5        0.0000 
     45 O         122.3050   47.3500   39.9850 O.2       1 ALC1        0.0000 
     46 O         122.8890   45.8800   39.3090 O.2       9 ALL1        0.0000 
     47 O         121.7210   48.8200   40.6610 O.2       5 ALP1        0.0000 
     48 CA        123.5370   43.9610   36.6740 C.3       4 GLC5        0.0000 
     49 CA        124.7970   44.9340   38.0510 C.3      12 GLL5        0.0000 
     50 CA        122.2770   42.9880   35.2970 C.3       8 GLP5        0.0000 
     51 CA        127.2815   47.3135   37.6480 C.3       4 GLC5        0.0000 
     52 CA        125.9620   45.8720   37.8930 C.3      12 GLL5        0.0000 
     53 CA        128.6010   48.7550   37.4030 C.3       8 GLP5        0.0000 
     54 N         130.3785   43.2210   37.5440 N.am      2 SEC2        0.0000 
     55 N         129.1480   44.0930   37.7020 N.am     10 SEL2        0.0000 
     56 N         131.6090   42.3490   37.3860 N.am      6 SEP2        0.0000 
     57 CA        128.6185   42.6190   36.4585 C.3       4 GLC5        0.0000 
     58 CA        129.2210   44.7540   36.4930 C.3      12 GLL5        0.0000 
     59 CA        128.0160   40.4840   36.4240 C.3       8 GLP5        0.0000 
     60 CA        128.7960   44.0780   34.0100 C.3       4 GLC5        0.0000 
     61 CA        130.1250   44.8650   35.3890 C.3      12 GLL5        0.0000 
     62 CA        127.4670   43.2910   32.6310 C.3       8 GLP5        0.0000 
     63 O         131.4620   43.3225   36.3300 O.2       1 ALC1        0.0000 
     64 O         131.3150   44.2960   35.2740 O.2       9 ALL1        0.0000 
     65 O         131.6090   42.3490   37.3860 O.2       5 ALP1        0.0000 
     66 CA        128.6095   47.5740   35.8405 C.3       4 GLC5        0.0000 
     67 CA        128.6180   46.3930   34.2780 C.3      12 GLL5        0.0000 
     68 CA        130.0565   47.7945   34.1000 C.3       4 GLC5        0.0000 
     69 CA        131.4950   49.1960   33.9220 C.3       8 GLP5        0.0000 
     70 CA        128.0425   44.8420   33.4545 C.3       4 GLC5        0.0000 
     71 CA        128.6123   46.9435   36.9287 C.3       4 GLC5        0.0000 
     72 CA        128.0260   45.5100   36.4160 C.3      12 GLL5        0.0000 
     73 CA        127.6048   43.9220   35.0943 C.3       4 GLC5        0.0000 
     74 CA        126.5860   42.7120   33.7340 C.3       8 GLP5        0.0000 
@<TRIPOS>BOND
@<TRIPOS>SUBSTRUCTURE
     1 ALC1       45 GROUP        1 X    ALC  0     ROOT ALC X 1
     2 SEC2        9 GROUP        1 X    SEC  0     **** SEC X 2
     3 LYC4        1 GROUP        1 X    LYC  0     **** LYC X 4
     4 GLC5       39 GROUP        1 X    GLC  0     **** GLC X 6
     5 ALP1       47 GROUP        1 Y    ALP  0     ROOT ALP Y 8
     6 SEP2       11 GROUP        1 Y    SEP  0     **** SEP Y 9
     7 LYP4        3 GROUP        1 Y    LYP  0     **** LYP Y 11
     8 GLP5       41 GROUP        1 Y    GLP  0     **** GLP Y 13
     9 ALL1       46 GROUP        1 Z    ALL  0     ROOT ALL Z 15
    10 SEL2       10 GROUP        1 Z    SEL  0     **** SEL Z 16
    11 LYL4        2 GROUP        1 Z    LYL  0     **** LYL Z 18
    12 GLL5       40 GROUP        1 Z    GLL  0     **** GLL Z 20
@<TRIPOS>SET

