#    Name: 1tf7_ATP_4_ligand
#    Modification time : Tue Mar 25 04:56:05 2014

@<TRIPOS>MOLECULE
1tf7_ATP_4_ligand
   42    44     1     0     0
SMALL
NO_CHARGES


@<TRIPOS>ATOM
      1 PG        122.5700   45.5260   46.7030 P.3       1 ATP2903     0.0000 
      2 O1G       121.1070   45.4360   47.0570 O.co2     1 ATP2903     0.0000 
      3 O2G       123.5310   44.9330   47.7910 O.co2     1 ATP2903     0.0000 
      4 O3G       122.7630   44.8130   45.3510 O.co2     1 ATP2903     0.0000 
      5 PB        123.5000   47.6750   45.1260 P.3       1 ATP2903     0.0000 
      6 O1B       123.6010   49.1130   45.3540 O.co2     1 ATP2903     0.0000 
      7 O2B       122.7200   47.2820   43.9090 O.co2     1 ATP2903     0.0000 
      8 O3B       122.9120   47.0760   46.4620 O.3       1 ATP2903     0.0000 
      9 PA        125.8190   46.3710   43.9010 P.3       1 ATP2903     0.0000 
     10 O1A       127.1130   47.0980   43.7970 O.co2     1 ATP2903     0.0000 
     11 O2A       125.9690   44.8820   44.2670 O.co2     1 ATP2903     0.0000 
     12 O3A       124.9990   47.1680   45.0250 O.3       1 ATP2903     0.0000 
     13 O5'       125.1220   46.5290   42.4650 O.3       1 ATP2903     0.0000 
     14 C5'       125.6840   45.7850   41.3700 C.3       1 ATP2903     0.0000 
     15 C4'       125.1220   46.2920   40.0460 C.3       1 ATP2903     0.0000 
     16 O4'       126.1560   46.5880   39.1250 O.3       1 ATP2903     0.0000 
     17 C3'       124.1880   45.2740   39.4090 C.3       1 ATP2903     0.0000 
     18 O3'       122.8890   45.8800   39.3090 O.3       1 ATP2903     0.0000 
     19 C2'       124.7970   44.9340   38.0510 C.3       1 ATP2903     0.0000 
     20 O2'       123.9780   45.0110   36.9340 O.3       1 ATP2903     0.0000 
     21 C1'       125.9620   45.8720   37.8930 C.3       1 ATP2903     0.0000 
     22 N9        127.3100   45.2760   37.5550 N.pl3     1 ATP2903     0.0000 
     23 C8        128.0240   44.3840   38.3500 C.2       1 ATP2903     0.0000 
     24 N7        129.1480   44.0930   37.7020 N.2       1 ATP2903     0.0000 
     25 C5        129.2210   44.7540   36.4930 C.ar      1 ATP2903     0.0000 
     26 C6        130.1250   44.8650   35.3890 C.ar      1 ATP2903     0.0000 
     27 N6        131.3150   44.2960   35.2740 N.pl3     1 ATP2903     0.0000 
     28 N1        129.7960   45.6790   34.3080 N.ar      1 ATP2903     0.0000 
     29 C2        128.6180   46.3930   34.2780 C.ar      1 ATP2903     0.0000 
     30 N3        127.7230   46.3130   35.3370 N.ar      1 ATP2903     0.0000 
     31 C4        128.0260   45.5100   36.4160 C.ar      1 ATP2903     0.0000 
     32 H         125.4499   44.7163   41.4494 H         1 ATP2903     0.0000 
     33 H         126.7756   45.8865   41.3347 H         1 ATP2903     0.0000 
     34 H         124.5297   47.1874   40.2548 H         1 ATP2903     0.0000 
     35 H         124.1886   44.4026   40.0203 H         1 ATP2903     0.0000 
     36 H         125.2534   43.9268   38.1601 H         1 ATP2903     0.0000 
     37 H         125.7192   46.6120   37.1137 H         1 ATP2903     0.0000 
     38 H         127.7292   44.0627   39.1984 H         1 ATP2903     0.0000 
     39 H         128.3950   46.9918   33.4666 H         1 ATP2903     0.0000 
     40 H         122.9513   46.7168   39.8530 H         1 ATP2903     0.0000 
     41 H         123.0705   45.2284   37.2932 H         1 ATP2903     0.0000 
     42 H         131.3601   43.6367   36.0245 H         1 ATP2903     0.0000 
@<TRIPOS>BOND
     1    2    1 ar   
     2    3    1 ar   
     3    4    1 ar   
     4    8    1 1    
     5    6    5 ar   
     6    7    5 ar   
     7    8    5 1    
     8   12    5 1    
     9   10    9 ar   
    10   11    9 ar   
    11   12    9 1    
    12   13    9 1    
    13   14   13 1    
    14   15   14 1    
    15   32   14 1    
    16   33   14 1    
    17   16   15 1    
    18   17   15 1    
    19   34   15 1    
    20   21   16 1    
    21   18   17 1    
    22   19   17 1    
    23   35   17 1    
    24   40   18 1    
    25   20   19 1    
    26   21   19 1    
    27   36   19 1    
    28   41   20 1    
    29   22   21 1    
    30   37   21 1    
    31   23   22 1    
    32   31   22 1    
    33   24   23 2    
    34   38   23 1    
    35   25   24 1    
    36   26   25 ar   
    37   31   25 ar   
    38   27   26 1    
    39   28   26 ar   
    40   42   27 1    
    41   29   28 ar   
    42   30   29 ar   
    43   39   29 1    
    44   31   30 ar   
@<TRIPOS>SUBSTRUCTURE
     1 ATP2903     1 GROUP   
@<TRIPOS>SET

