#    Name: 3e8n_VRA_1_INTS_M
#    Modification time : Tue Mar 25 01:14:23 2014

@<TRIPOS>MOLECULE
3e8n_VRA_1_INTS_M
   81     0    12     0     0
SMALL
NO_CHARGES


@<TRIPOS>ATOM
      1 CA         32.6880   26.9155   43.2610 C.3       4 GLC5        0.0000 
      2 CA         33.9640   27.6190   41.7010 C.3      12 GLL5        0.0000 
      3 CA         31.4120   26.2120   44.8210 C.3       8 GLP5        0.0000 
      4 CA         36.0475   25.0770   42.8140 C.3       4 GLC5        0.0000 
      5 CA         36.3140   26.7470   41.4720 C.3      12 GLL5        0.0000 
      6 CA         35.7810   23.4070   44.1560 C.3       8 GLP5        0.0000 
      7 CA         36.2440   29.8870   44.4050 C.3       4 GLC5        0.0000 
      8 CA         35.7010   28.4170   43.3120 C.3      12 GLL5        0.0000 
      9 CA         36.7870   31.3570   45.4980 C.3       8 GLP5        0.0000 
     10 CA         29.8335   23.8820   36.7285 C.3       4 GLC5        0.0000 
     11 CA         30.5930   25.1100   38.4110 C.3      12 GLL5        0.0000 
     12 CA         29.0740   22.6540   35.0460 C.3       8 GLP5        0.0000 
     13 CA         32.0540   30.1755   43.9140 C.3       4 GLC5        0.0000 
     14 CA         33.4180   29.2410   43.4820 C.3      12 GLL5        0.0000 
     15 CA         30.6900   31.1100   44.3460 C.3       8 GLP5        0.0000 
     16 CA         34.2420   24.0845   42.8175 C.3       4 GLC5        0.0000 
     17 CA         32.7030   24.7620   41.4790 C.3      12 GLL5        0.0000 
     18 CA         31.5270   22.7795   41.5260 C.3       4 GLC5        0.0000 
     19 CA         31.4410   23.1710   39.6250 C.3      12 GLL5        0.0000 
     20 CA         31.6130   22.3880   43.4270 C.3       8 GLP5        0.0000 
     21 CA         32.9320   22.7525   40.0275 C.3       4 GLC5        0.0000 
     22 CA         34.4230   22.3340   40.4300 C.3       8 GLP5        0.0000 
     23 CA         30.8840   21.6515   39.9940 C.3       4 GLC5        0.0000 
     24 CA         30.3270   20.1320   40.3630 C.3       8 GLP5        0.0000 
     25 O          31.2140   29.2915   37.7385 O.2       1 ALC1        0.0000 
     26 O          31.0760   28.8420   39.0550 O.2       9 ALL1        0.0000 
     27 O          31.3520   29.7410   36.4220 O.2       5 ALP1        0.0000 
     28 Zn         32.1405   31.7645   39.1465 Zn        3 ZIC7        0.0000 
     29 Zn         31.0760   28.8420   39.0550 Zn       11 ZIL7        0.0000 
     30 Zn         33.2050   34.6870   39.2380 Zn        7 ZIP7        0.0000 
     31 N          31.0540   30.8005   41.9060 N.am      2 SEC2        0.0000 
     32 N          30.4530   29.5450   41.4980 N.am     10 SEL2        0.0000 
     33 N          31.6550   32.0560   42.3140 N.am      6 SEP2        0.0000 
     34 CA         28.1125   26.4675   40.9390 C.3       4 GLC5        0.0000 
     35 CA         27.7540   28.4420   40.3080 C.3      12 GLL5        0.0000 
     36 CA         28.4710   24.4930   41.5700 C.3       8 GLP5        0.0000 
     37 CA         25.9560   28.1385   39.9820 C.3       4 GLC5        0.0000 
     38 CA         24.1580   27.8350   39.6560 C.3       8 GLP5        0.0000 
     39 CA         26.2190   31.4215   40.6660 C.3       4 GLC5        0.0000 
     40 CA         27.4760   29.8540   40.7580 C.3      12 GLL5        0.0000 
     41 CA         24.9620   32.9890   40.5740 C.3       8 GLP5        0.0000 
     42 CA         26.0840   29.6690   38.4510 C.3       4 GLC5        0.0000 
     43 CA         27.9190   29.9540   38.1600 C.3      12 GLL5        0.0000 
     44 CA         24.2490   29.3840   38.7420 C.3       8 GLP5        0.0000 
     45 CA         26.5600   32.2265   39.1870 C.3       4 GLC5        0.0000 
     46 CA         28.1580   31.4640   37.8000 C.3      12 GLL5        0.0000 
     47 O          29.9000   32.3505   35.2895 O.2       1 ALC1        0.0000 
     48 O          28.5810   32.6570   35.6930 O.2       9 ALL1        0.0000 
     49 O          31.2190   32.0440   34.8860 O.2       5 ALP1        0.0000 
     50 O          28.0725   33.7185   38.5645 O.2       1 ALC1        0.0000 
     51 O          27.4440   32.3130   38.7240 O.2       9 ALL1        0.0000 
     52 O          28.7010   35.1240   38.4050 O.2       5 ALP1        0.0000 
     53 CA         27.6025   24.8330   36.3240 C.3       4 GLC5        0.0000 
     54 CA         28.5150   26.4590   36.9720 C.3      12 GLL5        0.0000 
     55 CA         26.6900   23.2070   35.6760 C.3       8 GLP5        0.0000 
     56 CA         26.6610   26.5800   37.6960 C.3       4 GLC5        0.0000 
     57 CA         24.8070   26.7010   38.4200 C.3       8 GLP5        0.0000 
     58 CA         34.4390   30.2595   44.5222 C.3       4 GLC5        0.0000 
     59 CA         34.3400   28.4550   42.8530 C.3      12 GLL5        0.0000 
     60 CA         34.9990   31.6710   45.8770 C.3       8 GLP5        0.0000 
     61 CA         34.5025   28.8145   40.6210 C.3       4 GLC5        0.0000 
     62 CA         34.8530   29.5920   38.9650 C.3       8 GLP5        0.0000 
     63 CA         35.2593   28.1777   40.1088 C.3       4 GLC5        0.0000 
     64 CA         35.0170   26.7800   41.0330 C.3      12 GLL5        0.0000 
     65 CA         33.1980   28.3545   39.3748 C.3       4 GLC5        0.0000 
     66 CA         31.9180   26.8200   40.3340 C.3      12 GLL5        0.0000 
     67 CA         29.5090   25.1627   39.9577 C.3       4 GLC5        0.0000 
     68 CA         29.9325   24.1722   40.5670 C.3       4 GLC5        0.0000 
     69 CA         31.8813   25.6380   42.8932 C.3       4 GLC5        0.0000 
     70 CA         31.9980   25.3660   40.4520 C.3      12 GLL5        0.0000 
     71 CA         34.0046   27.8772   44.8156 C.3       4 GLC5        0.0000 
     72 CA         33.7900   26.9160   46.3490 C.3       8 GLP5        0.0000 
     73 CA         31.9004   23.6218   42.0776 C.3       4 GLC5        0.0000 
     74 CA         33.3054   23.5948   40.5791 C.3       4 GLC5        0.0000 
     75 CA         30.4008   24.9602   41.2530 C.3       4 GLC5        0.0000 
     76 CA         32.2452   23.9255   37.5965 C.3       4 GLC5        0.0000 
     77 CA         33.2850   23.8550   35.9020 C.3       8 GLP5        0.0000 
     78 CA         26.0995   29.5583   39.4625 C.3       4 GLC5        0.0000 
     79 CA         28.4240   29.6110   39.6080 C.3      12 GLL5        0.0000 
     80 CA         27.7855   28.5770   42.2850 C.3       4 GLC5        0.0000 
     81 CA         27.9560   28.0060   44.0370 C.3       8 GLP5        0.0000 
@<TRIPOS>BOND
@<TRIPOS>SUBSTRUCTURE
     1 ALC1       25 GROUP        1 X    ALC  0     ROOT ALC X 1
     2 SEC2       31 GROUP        1 X    SEC  0     **** SEC X 2
     3 ZIC7       28 GROUP        1 X    ZIC  0     **** ZIC X 5
     4 GLC5        1 GROUP        1 X    GLC  0     **** GLC X 6
     5 ALP1       27 GROUP        1 Y    ALP  0     ROOT ALP Y 8
     6 SEP2       33 GROUP        1 Y    SEP  0     **** SEP Y 9
     7 ZIP7       30 GROUP        1 Y    ZIP  0     **** ZIP Y 12
     8 GLP5        3 GROUP        1 Y    GLP  0     **** GLP Y 13
     9 ALL1       26 GROUP        1 Z    ALL  0     ROOT ALL Z 15
    10 SEL2       32 GROUP        1 Z    SEL  0     **** SEL Z 16
    11 ZIL7       29 GROUP        1 Z    ZIL  0     **** ZIL Z 19
    12 GLL5        2 GROUP        1 Z    GLL  0     **** GLL Z 20
@<TRIPOS>SET

