#    Name: 3e8n_VRA_1_ligand
#    Modification time : Tue Mar 25 01:14:23 2014

@<TRIPOS>MOLECULE
3e8n_VRA_1_ligand
   51    53     1     0     0
SMALL
NO_CHARGES


@<TRIPOS>ATOM
      1 C1         34.3400   28.4550   42.8530 C.ar      1 VRA1001     0.0000 
      2 C2         33.9640   27.6190   41.7010 C.ar      1 VRA1001     0.0000 
      3 C3         35.0170   26.7800   41.0330 C.ar      1 VRA1001     0.0000 
      4 C4         36.3140   26.7470   41.4720 C.ar      1 VRA1001     0.0000 
      5 C5         36.6820   27.5860   42.6230 C.ar      1 VRA1001     0.0000 
      6 C6         35.7010   28.4170   43.3120 C.ar      1 VRA1001     0.0000 
      7 N7         32.5690   27.7130   41.2860 N.pl3     1 VRA1001     0.0000 
      8 C8         31.9180   26.8200   40.3340 C.ar      1 VRA1001     0.0000 
      9 C9         31.1680   27.4140   39.2350 C.ar      1 VRA1001     0.0000 
     10 C10        30.5010   26.5550   38.2800 C.ar      1 VRA1001     0.0000 
     11 C11        30.5930   25.1100   38.4110 C.ar      1 VRA1001     0.0000 
     12 C12        31.3470   24.5320   39.5030 C.ar      1 VRA1001     0.0000 
     13 C13        31.9980   25.3660   40.4520 C.ar      1 VRA1001     0.0000 
     14 F15        33.4180   29.2410   43.4820 F         1 VRA1001     0.0000 
     15 F16        32.7030   24.7620   41.4790 F         1 VRA1001     0.0000 
     16 F17        31.4410   23.1710   39.6250 F         1 VRA1001     0.0000 
     17 N18        31.0760   28.8420   39.0550 N.pl3     1 VRA1001     0.0000 
     18 S19        30.1930   29.8390   39.9810 S.o2      1 VRA1001     0.0000 
     19 O20        30.6300   31.3320   39.6600 O.2       1 VRA1001     0.0000 
     20 O21        30.4530   29.5450   41.4980 O.2       1 VRA1001     0.0000 
     21 C22        28.4240   29.6110   39.6080 C.3       1 VRA1001     0.0000 
     22 C23        27.7540   28.4420   40.3080 C.3       1 VRA1001     0.0000 
     23 C24        27.4760   29.8540   40.7580 C.3       1 VRA1001     0.0000 
     24 C25        27.9190   29.9540   38.1600 C.3       1 VRA1001     0.0000 
     25 C26        28.1580   31.4640   37.8000 C.3       1 VRA1001     0.0000 
     26 C27        27.6620   31.7600   36.3580 C.3       1 VRA1001     0.0000 
     27 O28        28.5810   32.6570   35.6930 O.3       1 VRA1001     0.0000 
     28 O29        27.4440   32.3130   38.7240 O.3       1 VRA1001     0.0000 
     29 O30        29.7570   27.1530   37.2030 O.3       1 VRA1001     0.0000 
     30 C31        28.5150   26.4590   36.9720 C.3       1 VRA1001     0.0000 
     31 H          34.6965   26.2305   40.2211 H         1 VRA1001     0.0000 
     32 H          37.0311   26.1794   41.0501 H         1 VRA1001     0.0000 
     33 H          37.6469   27.5829   42.9427 H         1 VRA1001     0.0000 
     34 H          35.9883   28.9627   44.1117 H         1 VRA1001     0.0000 
     35 H          31.9932   28.4765   41.7013 H         1 VRA1001     0.0000 
     36 H          30.1320   24.5148   37.7419 H         1 VRA1001     0.0000 
     37 H          31.5781   29.3274   38.3087 H         1 VRA1001     0.0000 
     38 H          28.3858   28.0616   40.9035 H         1 VRA1001     0.0000 
     39 H          27.0304   28.1573   39.7660 H         1 VRA1001     0.0000 
     40 H          26.6384   30.1197   40.3981 H         1 VRA1001     0.0000 
     41 H          27.9938   30.0240   41.5356 H         1 VRA1001     0.0000 
     42 H          26.8574   29.7440   38.1013 H         1 VRA1001     0.0000 
     43 H          28.4532   29.3357   37.4481 H         1 VRA1001     0.0000 
     44 H          29.2141   31.6468   37.8329 H         1 VRA1001     0.0000 
     45 H          26.6621   32.1925   36.4386 H         1 VRA1001     0.0000 
     46 H          27.5827   30.8032   35.8368 H         1 VRA1001     0.0000 
     47 H          28.6647   25.5003   36.7303 H         1 VRA1001     0.0000 
     48 H          27.9279   26.4690   37.7814 H         1 VRA1001     0.0000 
     49 H          27.9924   26.8713   36.2257 H         1 VRA1001     0.0000 
     50 H          29.4236   32.1297   35.5835 H         1 VRA1001     0.0000 
     51 H          27.8832   33.2079   38.6452 H         1 VRA1001     0.0000 
@<TRIPOS>BOND
     1    2    1 ar   
     2    6    1 ar   
     3   14    1 1    
     4    3    2 ar   
     5    7    2 1    
     6    4    3 ar   
     7   31    3 1    
     8    5    4 ar   
     9   32    4 1    
    10    6    5 ar   
    11   33    5 1    
    12   34    6 1    
    13    8    7 1    
    14   35    7 1    
    15    9    8 ar   
    16   13    8 ar   
    17   10    9 ar   
    18   17    9 1    
    19   11   10 ar   
    20   29   10 1    
    21   12   11 ar   
    22   36   11 1    
    23   13   12 ar   
    24   16   12 1    
    25   15   13 1    
    26   18   17 1    
    27   37   17 1    
    28   19   18 2    
    29   20   18 2    
    30   21   18 1    
    31   22   21 1    
    32   23   21 1    
    33   24   21 1    
    34   23   22 1    
    35   38   22 1    
    36   39   22 1    
    37   40   23 1    
    38   41   23 1    
    39   25   24 1    
    40   42   24 1    
    41   43   24 1    
    42   26   25 1    
    43   28   25 1    
    44   44   25 1    
    45   27   26 1    
    46   45   26 1    
    47   46   26 1    
    48   50   27 1    
    49   51   28 1    
    50   30   29 1    
    51   47   30 1    
    52   48   30 1    
    53   49   30 1    
@<TRIPOS>SUBSTRUCTURE
     1 VRA1001     1 GROUP   
@<TRIPOS>SET

