#    Name: 2i0j_I0G_3_INTS_M
#    Modification time : Tue Mar 25 17:17:12 2014

@<TRIPOS>MOLECULE
2i0j_I0G_3_INTS_M
   59     0     9     0     0
SMALL
NO_CHARGES


@<TRIPOS>ATOM
      1 CA         52.7345  134.1660   36.2235 C.3       3 GLC5        0.0000 
      2 CA         53.0110  132.6850   34.6140 C.3       9 GLL5        0.0000 
      3 CA         52.4580  135.6470   37.8330 C.3       6 GLP5        0.0000 
      4 CA         55.6465  133.4740   36.0300 C.3       3 GLC5        0.0000 
      5 CA         54.2530  133.3290   34.3880 C.3       9 GLL5        0.0000 
      6 CA         57.0400  133.6190   37.6720 C.3       6 GLP5        0.0000 
      7 CA         55.3910  134.8750   35.3580 C.3       3 GLC5        0.0000 
      8 CA         56.5290  136.4210   36.3280 C.3       6 GLP5        0.0000 
      9 CA         47.4075  133.5790   33.7020 C.3       3 GLC5        0.0000 
     10 CA         48.1000  131.9080   34.7580 C.3       9 GLL5        0.0000 
     11 CA         46.7150  135.2500   32.6460 C.3       6 GLP5        0.0000 
     12 CA         46.7880  131.6355   38.3750 C.3       3 GLC5        0.0000 
     13 CA         47.2910  130.5530   36.7000 C.3       9 GLL5        0.0000 
     14 CA         46.2850  132.7180   40.0500 C.3       6 GLP5        0.0000 
     15 CA         47.9670  129.0610   37.9515 C.3       3 GLC5        0.0000 
     16 CA         48.6430  127.5690   39.2030 C.3       6 GLP5        0.0000 
     17 CA         49.2350  129.3310   37.4295 C.3       3 GLC5        0.0000 
     18 CA         48.6070  130.9510   36.5540 C.3       9 GLL5        0.0000 
     19 CA         49.8630  127.7110   38.3050 C.3       6 GLP5        0.0000 
     20 CA         52.7500  127.1490   34.3675 C.3       3 GLC5        0.0000 
     21 CA         52.8040  129.3490   34.6500 C.3       9 GLL5        0.0000 
     22 CA         52.6960  124.9490   34.0850 C.3       6 GLP5        0.0000 
     23 CA         51.7680  132.6865   31.2600 C.3       3 GLC5        0.0000 
     24 CA         52.0270  134.0960   32.9100 C.3       9 GLL5        0.0000 
     25 CA         51.5090  131.2770   29.6100 C.3       6 GLP5        0.0000 
     26 CA         49.7120  133.7260   35.4350 C.3       3 GLC5        0.0000 
     27 CA         50.4530  132.0960   35.4320 C.3       9 GLL5        0.0000 
     28 CA         48.9710  135.3560   35.4380 C.3       6 GLP5        0.0000 
     29 CA         45.7650  132.6400   33.5695 C.3       3 GLC5        0.0000 
     30 CA         46.7850  131.5140   34.8960 C.3       9 GLL5        0.0000 
     31 CA         44.7450  133.7660   32.2430 C.3       6 GLP5        0.0000 
     32 N          44.1785  131.5095   35.9305 N.am      2 SEC2        0.0000 
     33 N          45.0640  130.4370   36.0080 N.am      8 SEL2        0.0000 
     34 N          43.2930  132.5820   35.8530 N.am      5 SEP2        0.0000 
     35 O          44.9220  129.8620   37.0730 O.2       1 ALC1        0.0000 
     36 O          45.0640  130.4370   36.0080 O.2       7 ALL1        0.0000 
     37 O          44.7800  129.2870   38.1380 O.2       4 ALP1        0.0000 
     38 CA         55.5990  131.1820   36.2255 C.3       3 GLC5        0.0000 
     39 CA         53.7780  130.4070   35.2530 C.3       9 GLL5        0.0000 
     40 CA         57.4200  131.9570   37.1980 C.3       6 GLP5        0.0000 
     41 CA         54.7585  136.1123   33.5448 C.3       3 GLC5        0.0000 
     42 CA         54.3800  134.3800   33.4080 C.3       9 GLL5        0.0000 
     43 CA         55.7090  137.6570   34.0520 C.3       6 GLP5        0.0000 
     44 CA         51.1783  135.0553   31.5397 C.3       3 GLC5        0.0000 
     45 CA         53.2360  134.7550   32.6670 C.3       9 GLL5        0.0000 
     46 CA         49.7250  135.6850   30.2910 C.3       6 GLP5        0.0000 
     47 CA         48.0275  128.7625   35.8900 C.3       3 GLC5        0.0000 
     48 CA         48.1060  126.7730   35.1530 C.3       6 GLP5        0.0000 
     49 CA         51.5050  128.7520   33.3727 C.3       3 GLC5        0.0000 
     50 CA         51.3800  129.9350   34.7310 C.3       9 GLL5        0.0000 
     51 CA         50.9180  127.8620   32.0550 C.3       6 GLP5        0.0000 
     52 CA         50.6412  129.0955   36.7852 C.3       3 GLC5        0.0000 
     53 CA         53.2147  134.6674   31.2449 C.3       3 GLC5        0.0000 
     54 CA         53.5120  135.0030   29.5160 C.3       6 GLP5        0.0000 
     55 CA         51.7451  132.6326   37.3795 C.3       3 GLC5        0.0000 
     56 CA         52.9120  131.5920   35.6680 C.3       9 GLL5        0.0000 
     57 CA         52.1710  133.5630   39.1760 C.3       6 GLP5        0.0000 
     58 CA         46.6860  129.3818   34.3010 C.3       3 GLC5        0.0000 
     59 CA         46.7890  127.5900   33.2170 C.3       6 GLP5        0.0000 
@<TRIPOS>BOND
@<TRIPOS>SUBSTRUCTURE
     1 ALC1       35 GROUP        1 X    ALC  0     ROOT ALC X 1
     2 SEC2       32 GROUP        1 X    SEC  0     **** SEC X 2
     3 GLC5        1 GROUP        1 X    GLC  0     **** GLC X 6
     4 ALP1       37 GROUP        1 Y    ALP  0     ROOT ALP Y 8
     5 SEP2       34 GROUP        1 Y    SEP  0     **** SEP Y 9
     6 GLP5        3 GROUP        1 Y    GLP  0     **** GLP Y 13
     7 ALL1       36 GROUP        1 Z    ALL  0     ROOT ALL Z 15
     8 SEL2       33 GROUP        1 Z    SEL  0     **** SEL Z 16
     9 GLL5        2 GROUP        1 Z    GLL  0     **** GLL Z 20
@<TRIPOS>SET

