#    Name: 2i0j_I0G_3_ligand
#    Modification time : Tue Mar 25 17:17:12 2014

@<TRIPOS>MOLECULE
2i0j_I0G_3_ligand
   39    42     1     0     0
SMALL
NO_CHARGES


@<TRIPOS>ATOM
      1 C4         52.9120  131.5920   35.6680 C.3       1 I0G1        0.0000 
      2 C6         53.0110  132.6850   34.6140 C.ar      1 I0G1        0.0000 
      3 C7         54.2530  133.3290   34.3880 C.ar      1 I0G1        0.0000 
      4 C8         54.3800  134.3800   33.4080 C.ar      1 I0G1        0.0000 
      5 C10        53.2360  134.7550   32.6670 C.ar      1 I0G1        0.0000 
      6 C17        48.1000  131.9080   34.7580 C.ar      1 I0G1        0.0000 
      7 C21        47.2910  130.5530   36.7000 C.ar      1 I0G1        0.0000 
      8 C22        48.6070  130.9510   36.5540 C.ar      1 I0G1        0.0000 
      9 C24        52.8040  129.3490   34.6500 C.3       1 I0G1        0.0000 
     10 C1         51.3800  129.9350   34.7310 C.3       1 I0G1        0.0000 
     11 C2         51.4590  131.0250   35.8000 C.3       1 I0G1        0.0000 
     12 O9         55.6200  135.0260   33.1820 O.3       1 I0G1        0.0000 
     13 C11        52.0270  134.0960   32.9100 C.ar      1 I0G1        0.0000 
     14 C12        51.9140  133.0560   33.8870 C.ar      1 I0G1        0.0000 
     15 O13        50.6840  132.4560   34.0630 O.3       1 I0G1        0.0000 
     16 C14        50.4530  132.0960   35.4320 C.3       1 I0G1        0.0000 
     17 C16        49.0060  131.6270   35.5830 C.ar      1 I0G1        0.0000 
     18 C18        46.7850  131.5140   34.8960 C.ar      1 I0G1        0.0000 
     19 C19        46.3810  130.8330   35.8740 C.ar      1 I0G1        0.0000 
     20 O20        45.0640  130.4370   36.0080 O.3       1 I0G1        0.0000 
     21 C23        53.7780  130.4070   35.2530 C.3       1 I0G1        0.0000 
     22 H          53.2281  131.9397   36.6134 H         1 I0G1        0.0000 
     23 H          55.0798  133.0518   34.9232 H         1 I0G1        0.0000 
     24 H          53.2985  135.4919   31.9710 H         1 I0G1        0.0000 
     25 H          48.3119  132.4894   33.8732 H         1 I0G1        0.0000 
     26 H          47.0836  129.9743   37.5845 H         1 I0G1        0.0000 
     27 H          49.2694  130.6370   37.3387 H         1 I0G1        0.0000 
     28 H          53.0658  129.1773   33.6275 H         1 I0G1        0.0000 
     29 H          52.8591  128.4533   35.2316 H         1 I0G1        0.0000 
     30 H          50.7022  129.1749   35.0376 H         1 I0G1        0.0000 
     31 H          51.1212  130.3649   33.7933 H         1 I0G1        0.0000 
     32 H          51.3106  130.6349   36.7331 H         1 I0G1        0.0000 
     33 H          51.1811  134.3575   32.3752 H         1 I0G1        0.0000 
     34 H          50.6069  132.9504   36.0729 H         1 I0G1        0.0000 
     35 H          46.1235  131.8255   34.1138 H         1 I0G1        0.0000 
     36 H          54.2589  129.9854   36.1061 H         1 I0G1        0.0000 
     37 H          54.4726  130.7038   34.5004 H         1 I0G1        0.0000 
     38 H          55.8653  135.4304   34.0631 H         1 I0G1        0.0000 
     39 H          45.0961  129.6243   36.5898 H         1 I0G1        0.0000 
@<TRIPOS>BOND
     1    2    1 1    
     2   11    1 1    
     3   21    1 1    
     4   22    1 1    
     5    3    2 ar   
     6   14    2 ar   
     7    4    3 ar   
     8   23    3 1    
     9    5    4 ar   
    10   12    4 1    
    11   13    5 ar   
    12   24    5 1    
    13   17    6 ar   
    14   18    6 ar   
    15   25    6 1    
    16    8    7 ar   
    17   19    7 ar   
    18   26    7 1    
    19   17    8 ar   
    20   27    8 1    
    21   10    9 1    
    22   21    9 1    
    23   28    9 1    
    24   29    9 1    
    25   11   10 1    
    26   30   10 1    
    27   31   10 1    
    28   16   11 1    
    29   32   11 1    
    30   38   12 1    
    31   14   13 ar   
    32   33   13 1    
    33   15   14 1    
    34   16   15 1    
    35   17   16 1    
    36   34   16 1    
    37   19   18 ar   
    38   35   18 1    
    39   20   19 1    
    40   39   20 1    
    41   36   21 1    
    42   37   21 1    
@<TRIPOS>SUBSTRUCTURE
     1 I0G1        1 GROUP   
@<TRIPOS>SET

