#    Name: 3f68_91U_1_INTS_M
#    Modification time : Tue Mar 25 03:16:29 2014

@<TRIPOS>MOLECULE
3f68_91U_1_INTS_M
   73     0     9     0     0
SMALL
NO_CHARGES


@<TRIPOS>ATOM
      1 CA         15.4055  -17.2015   26.3005 C.3       3 GLC5        0.0000 
      2 CA         16.6730  -17.5100   25.0830 C.3       9 GLL5        0.0000 
      3 CA         14.1380  -16.8930   27.5180 C.3       6 GLP5        0.0000 
      4 CA         22.8660  -11.9135   23.8645 C.3       3 GLC5        0.0000 
      5 CA         22.4320  -13.5320   24.9550 C.3       9 GLL5        0.0000 
      6 CA         23.3000  -10.2950   22.7740 C.3       6 GLP5        0.0000 
      7 CA         21.5070  -14.6655   27.8820 C.3       3 GLC5        0.0000 
      8 CA         21.5350  -13.2610   26.1780 C.3       9 GLL5        0.0000 
      9 CA         21.4790  -16.0700   29.5860 C.3       6 GLP5        0.0000 
     10 CA         20.4515  -11.5375   24.4365 C.3       3 GLC5        0.0000 
     11 CA         20.0410  -13.0960   25.7820 C.3       9 GLL5        0.0000 
     12 CA         20.8620   -9.9790   23.0910 C.3       6 GLP5        0.0000 
     13 CA         17.6355  -12.7045   23.9200 C.3       3 GLC5        0.0000 
     14 CA         17.8040  -14.7420   23.1940 C.3       9 GLL5        0.0000 
     15 CA         17.4670  -10.6670   24.6460 C.3       6 GLP5        0.0000 
     16 N          15.4715  -12.4275   23.9465 N.am      2 SEC2        0.0000 
     17 N          16.2220  -13.0730   22.9020 N.am      8 SEL2        0.0000 
     18 N          14.7210  -11.7820   24.9910 N.am      5 SEP2        0.0000 
     19 CA         19.1730  -10.8775   21.9150 C.3       3 GLC5        0.0000 
     20 CA         17.4840  -11.7760   20.7390 C.3       9 GLL5        0.0000 
     21 CA         17.4755  -11.2215   22.6925 C.3       3 GLC5        0.0000 
     22 CA         20.2200  -11.2915   21.4450 C.3       3 GLC5        0.0000 
     23 CA         19.5780  -12.6040   19.7990 C.3       9 GLL5        0.0000 
     24 O          16.3205   -9.5515   21.5010 O.2       1 ALC1        0.0000 
     25 O          15.3080  -10.5830   20.6460 O.2       7 ALL1        0.0000 
     26 O          17.3330   -8.5200   22.3560 O.2       4 ALP1        0.0000 
     27 CA         14.6325   -8.9165   19.0940 C.3       3 GLC5        0.0000 
     28 CA         13.8730  -10.5960   20.3560 C.3       9 GLL5        0.0000 
     29 CA         15.3920   -7.2370   17.8320 C.3       6 GLP5        0.0000 
     30 CA         10.0155  -12.8715   22.0970 C.3       3 GLC5        0.0000 
     31 CA         11.3700  -11.4470   23.1350 C.3       9 GLL5        0.0000 
     32 CA          8.6610  -14.2960   21.0590 C.3       6 GLP5        0.0000 
     33 CA         11.3510   -9.5860   25.9815 C.3       3 GLC5        0.0000 
     34 CA         11.4280  -10.2920   23.9420 C.3       9 GLL5        0.0000 
     35 CA         11.2740   -8.8800   28.0210 C.3       6 GLP5        0.0000 
     36 CA         10.8130   -7.6500   23.4085 C.3       3 GLC5        0.0000 
     37 CA         12.4570   -7.8540   24.6340 C.3       9 GLL5        0.0000 
     38 CA          9.1690   -7.4460   22.1830 C.3       6 GLP5        0.0000 
     39 CA         12.4725   -6.8860   23.0820 C.3       3 GLC5        0.0000 
     40 CA         12.4880   -5.9180   21.5300 C.3       6 GLP5        0.0000 
     41 CA         11.8655   -8.3670   26.3275 C.3       3 GLC5        0.0000 
     42 CA         13.5750   -7.5420   26.5295 C.3       3 GLC5        0.0000 
     43 CA         14.6930   -7.2300   28.4250 C.3       6 GLP5        0.0000 
     44 CA         11.4855   -6.2350   25.4875 C.3       3 GLC5        0.0000 
     45 CA         10.5140   -4.6160   26.3410 C.3       6 GLP5        0.0000 
     46 CA         17.9955  -13.3285   26.1880 C.3       3 GLC5        0.0000 
     47 CA         18.0660  -14.4250   24.7040 C.3       9 GLL5        0.0000 
     48 CA         17.1600  -12.2600   27.5180 C.3       6 GLP5        0.0000 
     49 CA         23.2077  -12.4428   26.6537 C.3       3 GLC5        0.0000 
     50 CA         24.4320  -11.4890   27.7410 C.3       6 GLP5        0.0000 
     51 CA         19.3115  -12.1252   26.5990 C.3       3 GLC5        0.0000 
     52 CA         17.8350  -11.0720   27.2180 C.3       6 GLP5        0.0000 
     53 CA         19.0675  -10.5721   19.0971 C.3       3 GLC5        0.0000 
     54 CA         19.4100   -8.9210   18.2620 C.3       6 GLP5        0.0000 
     55 CA         21.3250  -13.5940   20.0130 C.3       3 GLC5        0.0000 
     56 CA         23.3160  -14.0470   19.7260 C.3       6 GLP5        0.0000 
     57 CA         18.7463  -14.2246   18.7291 C.3       3 GLC5        0.0000 
     58 CA         19.0900  -13.6780   20.8010 C.3       9 GLL5        0.0000 
     59 CA         18.4880  -15.4820   17.2600 C.3       6 GLP5        0.0000 
     60 CA         14.5813   -9.9540   23.1660 C.3       3 GLC5        0.0000 
     61 CA         13.0160  -10.4950   21.6230 C.3       9 GLL5        0.0000 
     62 CA         16.1180   -9.9890   24.3090 C.3       6 GLP5        0.0000 
     63 CA         10.3065  -11.2895   21.1910 C.3       3 GLC5        0.0000 
     64 CA         12.1440  -11.5250   21.9710 C.3       9 GLL5        0.0000 
     65 CA          8.8560  -11.0930   19.8290 C.3       6 GLP5        0.0000 
     66 CA         12.7800  -11.9965   24.1965 C.3       3 GLC5        0.0000 
     67 CA         13.8030  -12.5070   25.8400 C.3       6 GLP5        0.0000 
     68 CA         12.8390  -11.1442   24.8072 C.3       3 GLC5        0.0000 
     69 CA         12.3220   -9.2710   23.6070 C.3       9 GLL5        0.0000 
     70 CA         12.5927   -7.6125   22.2725 C.3       3 GLC5        0.0000 
     71 CA         14.2538   -9.2758   24.2147 C.3       3 GLC5        0.0000 
     72 CA         10.8215   -8.5041   22.6409 C.3       3 GLC5        0.0000 
     73 CA         13.0730   -9.3430   22.4230 C.3       9 GLL5        0.0000 
@<TRIPOS>BOND
@<TRIPOS>SUBSTRUCTURE
     1 ALC1       24 GROUP        1 X    ALC  0     ROOT ALC X 1
     2 SEC2       16 GROUP        1 X    SEC  0     **** SEC X 2
     3 GLC5        1 GROUP        1 X    GLC  0     **** GLC X 6
     4 ALP1       26 GROUP        1 Y    ALP  0     ROOT ALP Y 8
     5 SEP2       18 GROUP        1 Y    SEP  0     **** SEP Y 9
     6 GLP5        3 GROUP        1 Y    GLP  0     **** GLP Y 13
     7 ALL1       25 GROUP        1 Z    ALL  0     ROOT ALL Z 15
     8 SEL2       17 GROUP        1 Z    SEL  0     **** SEL Z 16
     9 GLL5        2 GROUP        1 Z    GLL  0     **** GLL Z 20
@<TRIPOS>SET

