#    Name: 3f68_91U_1_ligand
#    Modification time : Tue Mar 25 03:16:29 2014

@<TRIPOS>MOLECULE
3f68_91U_1_ligand
   62    64     1     0     0
SMALL
NO_CHARGES


@<TRIPOS>ATOM
      1 C47        17.2460  -17.0620   23.7640 C.2       1 91U901      0.0000 
      2 O48        18.0830  -17.7930   23.2470 O.2       1 91U901      0.0000 
      3 C49        16.6730  -17.5100   25.0830 C.3       1 91U901      0.0000 
      4 C1         19.5960  -14.3690   25.0120 C.3       1 91U901      0.0000 
      5 C6         20.4340  -14.4730   23.7030 C.3       1 91U901      0.0000 
      6 C5         21.9310  -14.6710   24.0480 C.3       1 91U901      0.0000 
      7 C4         22.4320  -13.5320   24.9550 C.3       1 91U901      0.0000 
      8 C3         21.5350  -13.2610   26.1780 C.3       1 91U901      0.0000 
      9 C2         20.0410  -13.0960   25.7820 C.3       1 91U901      0.0000 
     10 N          16.8970  -15.8960   23.1390 N.am      1 91U901      0.0000 
     11 C15        17.8040  -14.7420   23.1940 C.3       1 91U901      0.0000 
     12 C31        18.0660  -14.4250   24.7040 C.3       1 91U901      0.0000 
     13 C14        17.2690  -13.5320   22.4620 C.2       1 91U901      0.0000 
     14 O32        16.2220  -13.0730   22.9020 O.2       1 91U901      0.0000 
     15 N1         17.9290  -12.9930   21.3930 N.am      1 91U901      0.0000 
     16 C32        17.4840  -11.7760   20.7390 C.3       1 91U901      0.0000 
     17 C7         15.9990  -11.7370   20.4600 C.2       1 91U901      0.0000 
     18 O22        15.4200  -12.7430   20.0720 O.2       1 91U901      0.0000 
     19 C35        18.2600  -11.9090   19.3920 C.3       1 91U901      0.0000 
     20 C34        19.5780  -12.6040   19.7990 C.3       1 91U901      0.0000 
     21 C33        19.0900  -13.6780   20.8010 C.3       1 91U901      0.0000 
     22 N23        15.3080  -10.5830   20.6460 N.am      1 91U901      0.0000 
     23 C24        13.8730  -10.5960   20.3560 C.3       1 91U901      0.0000 
     24 C25        13.0160  -10.4950   21.6230 C.ar      1 91U901      0.0000 
     25 C26        12.1440  -11.5250   21.9710 C.ar      1 91U901      0.0000 
     26 C27        11.3700  -11.4470   23.1350 C.ar      1 91U901      0.0000 
     27 C28        11.4280  -10.2920   23.9420 C.ar      1 91U901      0.0000 
     28 C29        12.3220   -9.2710   23.6070 C.ar      1 91U901      0.0000 
     29 C30        13.0730   -9.3430   22.4230 C.ar      1 91U901      0.0000 
     30 CL21       12.4570   -7.8540   24.6340 Cl        1 91U901      0.0000 
     31 H          19.8544  -15.2366   25.6228 H         1 91U901      0.0000 
     32 H          20.3156  -13.5613   23.1373 H         1 91U901      0.0000 
     33 H          20.0850  -15.3182   23.1293 H         1 91U901      0.0000 
     34 H          22.5065  -14.6779   23.1294 H         1 91U901      0.0000 
     35 H          22.0522  -15.6181   24.5611 H         1 91U901      0.0000 
     36 H          22.5069  -12.6102   24.3590 H         1 91U901      0.0000 
     37 H          23.4455  -13.7772   25.3061 H         1 91U901      0.0000 
     38 H          21.8682  -12.3490   26.6731 H         1 91U901      0.0000 
     39 H          21.6214  -14.0917   26.8782 H         1 91U901      0.0000 
     40 H          19.4490  -12.9942   26.6707 H         1 91U901      0.0000 
     41 H          19.9372  -12.2408   25.1430 H         1 91U901      0.0000 
     42 H          16.0245  -15.7837   22.6276 H         1 91U901      0.0000 
     43 H          18.7701  -15.0192   22.7712 H         1 91U901      0.0000 
     44 H          17.6229  -13.4665   24.9427 H         1 91U901      0.0000 
     45 H          17.6127  -15.2003   25.3084 H         1 91U901      0.0000 
     46 H          17.8338  -10.9210   21.2172 H         1 91U901      0.0000 
     47 H          18.4643  -10.9472   19.0121 H         1 91U901      0.0000 
     48 H          17.7151  -12.5293   18.7368 H         1 91U901      0.0000 
     49 H          20.2030  -11.9189   20.2927 H         1 91U901      0.0000 
     50 H          20.0063  -13.0716   18.9613 H         1 91U901      0.0000 
     51 H          18.8028  -14.5355   20.2608 H         1 91U901      0.0000 
     52 H          19.8492  -13.8434   21.5122 H         1 91U901      0.0000 
     53 H          15.7209   -9.7245   20.9694 H         1 91U901      0.0000 
     54 H          13.5909  -11.5226   19.8284 H         1 91U901      0.0000 
     55 H          13.6019   -9.7557   19.6950 H         1 91U901      0.0000 
     56 H          12.0659  -12.3566   21.3650 H         1 91U901      0.0000 
     57 H          10.7618  -12.2243   23.4036 H         1 91U901      0.0000 
     58 H          10.8240  -10.2082   24.7571 H         1 91U901      0.0000 
     59 H          13.6631   -8.5540   22.1428 H         1 91U901      0.0000 
     60 H          17.3808  -17.6021   25.7833 H         1 91U901      0.0000 
     61 H          15.9966  -16.8621   25.4333 H         1 91U901      0.0000 
     62 H          16.2177  -18.3972   25.0080 H         1 91U901      0.0000 
@<TRIPOS>BOND
     1    2    1 2    
     2    3    1 1    
     3   10    1 am   
     4   60    3 1    
     5   61    3 1    
     6   62    3 1    
     7    5    4 1    
     8    9    4 1    
     9   12    4 1    
    10   31    4 1    
    11    6    5 1    
    12   32    5 1    
    13   33    5 1    
    14    7    6 1    
    15   34    6 1    
    16   35    6 1    
    17    8    7 1    
    18   36    7 1    
    19   37    7 1    
    20    9    8 1    
    21   38    8 1    
    22   39    8 1    
    23   40    9 1    
    24   41    9 1    
    25   11   10 1    
    26   42   10 1    
    27   12   11 1    
    28   13   11 1    
    29   43   11 1    
    30   44   12 1    
    31   45   12 1    
    32   14   13 2    
    33   15   13 am   
    34   16   15 1    
    35   21   15 1    
    36   17   16 1    
    37   19   16 1    
    38   46   16 1    
    39   18   17 2    
    40   22   17 am   
    41   20   19 1    
    42   47   19 1    
    43   48   19 1    
    44   21   20 1    
    45   49   20 1    
    46   50   20 1    
    47   51   21 1    
    48   52   21 1    
    49   23   22 1    
    50   53   22 1    
    51   24   23 1    
    52   54   23 1    
    53   55   23 1    
    54   25   24 ar   
    55   29   24 ar   
    56   26   25 ar   
    57   56   25 1    
    58   27   26 ar   
    59   57   26 1    
    60   28   27 ar   
    61   58   27 1    
    62   29   28 ar   
    63   30   28 1    
    64   59   29 1    
@<TRIPOS>SUBSTRUCTURE
     1 91U901      1 GROUP   
@<TRIPOS>SET

