#    Name: 2qs1_UB1_1_INTS_M
#    Modification time : Mon Mar 24 22:41:04 2014

@<TRIPOS>MOLECULE
2qs1_UB1_1_INTS_M
   67     0    15     0     0
SMALL
NO_CHARGES


@<TRIPOS>ATOM
      1 N          -1.2080   -7.4865   13.4890 N.am      2 SEC2        0.0000 
      2 N          -1.4700   -6.4820   14.2920 N.am     12 SEL2        0.0000 
      3 N          -0.9460   -8.4910   12.6860 N.am      7 SEP2        0.0000 
      4 N          -0.7200   -5.6735   13.2030 N.am      2 SEC2        0.0000 
      5 N           0.0300   -4.8650   12.1140 N.am      7 SEP2        0.0000 
      6 N          -2.4275   -9.2020   14.5600 N.am      2 SEC2        0.0000 
      7 N          -1.7010   -8.2990   15.5010 N.am     12 SEL2        0.0000 
      8 N          -3.1540  -10.1050   13.6190 N.am      7 SEP2        0.0000 
      9 N          -1.3235   -8.3950   14.0935 N.am      2 SEC2        0.0000 
     10 CA         -1.2085   -7.9145   18.9390 C.3       5 GLC5        0.0000 
     11 CA         -2.3740   -6.9750   18.0910 C.3      15 GLL5        0.0000 
     12 CA         -0.0430   -8.8540   19.7870 C.3      10 GLP5        0.0000 
     13 CA         -3.4855   -8.6610   17.9675 C.3       5 GLC5        0.0000 
     14 CA         -4.5970  -10.3470   17.8440 C.3      10 GLP5        0.0000 
     15 CA         -0.9540   -3.8960   15.9885 C.3       5 GLC5        0.0000 
     16 CA         -2.8020   -3.9850   15.2590 C.3      15 GLL5        0.0000 
     17 CA          0.8940   -3.8070   16.7180 C.3      10 GLP5        0.0000 
     18 CA         -2.8890   -4.3385   13.4750 C.3       5 GLC5        0.0000 
     19 CA         -2.9760   -4.6920   11.6910 C.3      10 GLP5        0.0000 
     20 CA         -5.2720    1.2430   16.7670 C.3       5 GLC5        0.0000 
     21 CA         -5.0410    0.4830   14.9550 C.3      15 GLL5        0.0000 
     22 CA         -5.5030    2.0030   18.5790 C.3      10 GLP5        0.0000 
     23 CA         -4.8150    2.1465   14.8815 C.3       5 GLC5        0.0000 
     24 CA         -4.5890    3.8100   14.8080 C.3      10 GLP5        0.0000 
     25 CA         -7.6025   -1.3675   16.5350 C.3       5 GLC5        0.0000 
     26 CA         -6.3920   -1.6360   15.2340 C.3      15 GLL5        0.0000 
     27 CA         -8.8130   -1.0990   17.8360 C.3      10 GLP5        0.0000 
     28 CA         -8.3080   -2.3555   16.6635 C.3       5 GLC5        0.0000 
     29 CA         -7.8030   -3.6120   15.4910 C.3      15 GLL5        0.0000 
     30 CA         -9.5285   -3.1085   15.5010 C.3       5 GLC5        0.0000 
     31 CA         -8.2370   -4.2170   14.1400 C.3      15 GLL5        0.0000 
     32 CA        -10.8200   -2.0000   16.8620 C.3      10 GLP5        0.0000 
     33 OD1        -6.5895   -4.2780   12.7080 O.co2     3 ASC3        0.0000 
     34 OD1        -7.9970   -3.2620   13.0720 O.co2    13 ASL3        0.0000 
     35 OD1        -5.1820   -5.2940   12.3440 O.co2     8 ASP3        0.0000 
     36 OD1        -6.3870   -3.2025   12.6535 O.co2     3 ASC3        0.0000 
     37 OD1        -4.7770   -3.1430   12.2350 O.co2     8 ASP3        0.0000 
     38 O          -8.6880   -1.9095   13.4090 O.2       1 ALC1        0.0000 
     39 O          -7.9970   -3.2620   13.0720 O.2      11 ALL1        0.0000 
     40 O          -9.3790   -0.5570   13.7460 O.2       6 ALP1        0.0000 
     41 O          -8.4000   -3.6995   11.7965 O.2       1 ALC1        0.0000 
     42 O          -8.8030   -4.1370   10.5210 O.2       6 ALP1        0.0000 
     43 O          -6.3870   -3.2025   12.6535 O.2       1 ALC1        0.0000 
     44 O          -4.7770   -3.1430   12.2350 O.2       6 ALP1        0.0000 
     45 NZ        -11.6315   -4.8160   13.1180 N.4       4 LYC4        0.0000 
     46 NZ        -10.5460   -4.0820   13.4850 N.4      14 LYL4        0.0000 
     47 NZ        -13.3590   -6.2840   13.6510 N.4       9 LYP4        0.0000 
     48 N         -10.9120   -3.4685   12.3380 N.am      2 SEC2        0.0000 
     49 N         -10.5460   -4.0820   13.4850 N.am     12 SEL2        0.0000 
     50 N         -11.2780   -2.8550   11.1910 N.am      7 SEP2        0.0000 
     51 N         -11.6315   -4.8160   13.1180 N.am      2 SEC2        0.0000 
     52 N         -12.7170   -5.5500   12.7510 N.am      7 SEP2        0.0000 
     53 NZ        -11.3860   -6.0685   14.8975 N.4       4 LYC4        0.0000 
     54 NZ         -9.9870   -5.6040   14.9570 N.4      14 LYL4        0.0000 
     55 N         -11.3860   -6.0685   14.8975 N.am      2 SEC2        0.0000 
     56 N          -9.9870   -5.6040   14.9570 N.am     12 SEL2        0.0000 
     57 N         -12.7850   -6.5330   14.8380 N.am      7 SEP2        0.0000 
     58 CA         -2.0673   -7.1290   20.4357 C.3       5 GLC5        0.0000 
     59 CA         -3.0110   -5.5790   18.8630 C.3      15 GLL5        0.0000 
     60 CA         -0.8940   -8.7690   21.0470 C.3      10 GLP5        0.0000 
     61 CA         -0.9732   -4.4220   16.9475 C.3       5 GLC5        0.0000 
     62 CA         -3.1620   -4.5100   17.8660 C.3      15 GLL5        0.0000 
     63 CA         -6.8965    0.4571   14.4505 C.3       5 GLC5        0.0000 
     64 CA         -5.1590   -1.0060   15.1050 C.3      15 GLL5        0.0000 
     65 CA         -8.0470    1.8630   13.7690 C.3      10 GLP5        0.0000 
     66 CA         -5.9100   -0.4734   13.1140 C.3       5 GLC5        0.0000 
     67 CA         -6.0740    0.0020   11.0960 C.3      10 GLP5        0.0000 
@<TRIPOS>BOND
@<TRIPOS>SUBSTRUCTURE
     1 ALC1       38 GROUP        1 X    ALC  0     ROOT ALC X 1
     2 SEC2        1 GROUP        1 X    SEC  0     **** SEC X 2
     3 ASC3       33 GROUP        1 X    ASC  0     **** ASC X 3
     4 LYC4       45 GROUP        1 X    LYC  0     **** LYC X 4
     5 GLC5       10 GROUP        1 X    GLC  0     **** GLC X 6
     6 ALP1       40 GROUP        1 Y    ALP  0     ROOT ALP Y 8
     7 SEP2        3 GROUP        1 Y    SEP  0     **** SEP Y 9
     8 ASP3       35 GROUP        1 Y    ASP  0     **** ASP Y 10
     9 LYP4       47 GROUP        1 Y    LYP  0     **** LYP Y 11
    10 GLP5       12 GROUP        1 Y    GLP  0     **** GLP Y 13
    11 ALL1       39 GROUP        1 Z    ALL  0     ROOT ALL Z 15
    12 SEL2        2 GROUP        1 Z    SEL  0     **** SEL Z 16
    13 ASL3       34 GROUP        1 Z    ASL  0     **** ASL Z 17
    14 LYL4       46 GROUP        1 Z    LYL  0     **** LYL Z 18
    15 GLL5       11 GROUP        1 Z    GLL  0     **** GLL Z 20
@<TRIPOS>SET

