#    Name: 2qs1_UB1_1_ligand
#    Modification time : Mon Mar 24 22:41:04 2014

@<TRIPOS>MOLECULE
2qs1_UB1_1_ligand
   38    39     1     0     0
SMALL
NO_CHARGES


@<TRIPOS>ATOM
      1 O23        -1.4700   -6.4820   14.2920 O.co2     1 UB1603      0.0000 
      2 C22        -1.7810   -7.0660   15.3570 C.2       1 UB1603      0.0000 
      3 O24        -1.7010   -8.2990   15.5010 O.co2     1 UB1603      0.0000 
      4 C21        -2.2820   -6.2680   16.5040 C.2       1 UB1603      0.0000 
      5 S20        -2.3740   -6.9750   18.0910 S.3       1 UB1603      0.0000 
      6 C19        -3.0110   -5.5790   18.8630 C.2       1 UB1603      0.0000 
      7 BR26       -3.4700   -5.3990   20.7860 Br        1 UB1603      0.0000 
      8 C18        -3.1620   -4.5100   17.8660 C.2       1 UB1603      0.0000 
      9 BR25       -3.8730   -2.7380   18.3690 Br        1 UB1603      0.0000 
     10 C17        -2.7560   -4.8600   16.4720 C.2       1 UB1603      0.0000 
     11 C16        -2.8020   -3.9850   15.2590 C.3       1 UB1603      0.0000 
     12 N3         -4.0420   -3.2080   15.2590 N.am      1 UB1603      0.0000 
     13 C2         -3.9260   -1.8240   15.1100 C.2       1 UB1603      0.0000 
     14 O14        -2.8070   -1.2880   14.9880 O.2       1 UB1603      0.0000 
     15 C1         -5.1590   -1.0060   15.1050 C.2       1 UB1603      0.0000 
     16 C13        -5.0410    0.4830   14.9550 C.3       1 UB1603      0.0000 
     17 C6         -6.3920   -1.6360   15.2340 C.2       1 UB1603      0.0000 
     18 C4         -5.3290   -3.7970   15.3800 C.2       1 UB1603      0.0000 
     19 O15        -5.4830   -5.0350   15.5110 O.2       1 UB1603      0.0000 
     20 N5         -6.4880   -2.9720   15.3640 N.am      1 UB1603      0.0000 
     21 C7         -7.8030   -3.6120   15.4910 C.3       1 UB1603      0.0000 
     22 C8         -8.2370   -4.2170   14.1400 C.3       1 UB1603      0.0000 
     23 N9         -7.9970   -3.2620   13.0720 N.4       1 UB1603      0.0000 
     24 C10        -9.6810   -4.6590   14.1950 C.2       1 UB1603      0.0000 
     25 O11       -10.5460   -4.0820   13.4850 O.co2     1 UB1603      0.0000 
     26 O12        -9.9870   -5.6040   14.9570 O.co2     1 UB1603      0.0000 
     27 H          -2.7435   -4.6113   14.3631 H         1 UB1603      0.0000 
     28 H          -1.9335   -3.3187   15.2648 H         1 UB1603      0.0000 
     29 H          -7.2525   -1.0412   15.2276 H         1 UB1603      0.0000 
     30 H          -8.5622   -2.8888   15.7961 H         1 UB1603      0.0000 
     31 H          -7.7766   -4.4172   16.2282 H         1 UB1603      0.0000 
     32 H          -7.6151   -5.1083   13.9839 H         1 UB1603      0.0000 
     33 H          -4.5046    0.8894   15.6946 H         1 UB1603      0.0000 
     34 H          -4.5949    0.7356   14.0964 H         1 UB1603      0.0000 
     35 H          -5.9359    0.9291   14.9627 H         1 UB1603      0.0000 
     36 H          -8.2692   -3.6252   12.1809 H         1 UB1603      0.0000 
     37 H          -8.5074   -2.4134   13.2110 H         1 UB1603      0.0000 
     38 H          -7.0303   -3.0150   13.0050 H         1 UB1603      0.0000 
@<TRIPOS>BOND
     1    2    1 ar   
     2    3    2 ar   
     3    4    2 1    
     4    5    4 1    
     5   10    4 2    
     6    6    5 1    
     7    7    6 1    
     8    8    6 2    
     9    9    8 1    
    10   10    8 1    
    11   11   10 1    
    12   12   11 1    
    13   27   11 1    
    14   28   11 1    
    15   13   12 am   
    16   18   12 am   
    17   14   13 2    
    18   15   13 1    
    19   16   15 1    
    20   17   15 2    
    21   33   16 1    
    22   34   16 1    
    23   35   16 1    
    24   20   17 1    
    25   29   17 1    
    26   19   18 2    
    27   20   18 am   
    28   21   20 1    
    29   22   21 1    
    30   30   21 1    
    31   31   21 1    
    32   23   22 1    
    33   24   22 1    
    34   32   22 1    
    35   36   23 1    
    36   37   23 1    
    37   38   23 1    
    38   25   24 ar   
    39   26   24 ar   
@<TRIPOS>SUBSTRUCTURE
     1 UB1603      1 GROUP   
@<TRIPOS>SET

