#    Name: 3ae2_FAD_2_INTS_M
#    Modification time : Tue Mar 25 11:49:10 2014

@<TRIPOS>MOLECULE
3ae2_FAD_2_INTS_M
  131     0     9     0     0
SMALL
NO_CHARGES


@<TRIPOS>ATOM
      1 N          21.2330  -15.4150   24.1880 N.am      2 SEC2        0.0000 
      2 N          22.0300  -16.0220   23.0600 N.am      8 SEL2        0.0000 
      3 N          20.4360  -14.8080   25.3160 N.am      5 SEP2        0.0000 
      4 CA         25.0975  -21.6070   22.4490 C.3       3 GLC5        0.0000 
      5 CA         25.0700  -19.7970   23.3350 C.3       9 GLL5        0.0000 
      6 CA         25.1250  -23.4170   21.5630 C.3       6 GLP5        0.0000 
      7 CA         22.9750  -19.8750   23.1975 C.3       3 GLC5        0.0000 
      8 CA         20.8800  -19.9530   23.0600 C.3       6 GLP5        0.0000 
      9 N          23.7890  -22.1975   24.1285 N.am      2 SEC2        0.0000 
     10 N          24.1880  -21.1360   25.0260 N.am      8 SEL2        0.0000 
     11 N          23.3900  -23.2590   23.2310 N.am      5 SEP2        0.0000 
     12 O          23.2575  -20.6255   25.7820 O.2       1 ALC1        0.0000 
     13 O          24.1880  -21.1360   25.0260 O.2       7 ALL1        0.0000 
     14 O          22.3270  -20.1150   26.5380 O.2       4 ALP1        0.0000 
     15 CA         26.8250  -20.0970   27.2770 C.3       3 GLC5        0.0000 
     16 CA         26.5190  -20.4660   25.1260 C.3       9 GLL5        0.0000 
     17 CA         27.1310  -19.7280   29.4280 C.3       6 GLP5        0.0000 
     18 N          27.5710  -22.6945   26.5495 N.am      2 SEC2        0.0000 
     19 N          26.6170  -21.3820   26.1920 N.am      8 SEL2        0.0000 
     20 N          28.5250  -24.0070   26.9070 N.am      5 SEP2        0.0000 
     21 N          27.0395  -22.0195   27.5880 N.am      2 SEC2        0.0000 
     22 N          27.4620  -22.6570   28.9840 N.am      5 SEP2        0.0000 
     23 O          26.0480  -22.6315   26.4240 O.2       1 ALC1        0.0000 
     24 O          26.6170  -21.3820   26.1920 O.2       7 ALL1        0.0000 
     25 O          25.4790  -23.8810   26.6560 O.2       4 ALP1        0.0000 
     26 CA         26.0380  -22.2600   22.6905 C.3       3 GLC5        0.0000 
     27 CA         26.9510  -21.1030   23.8180 C.3       9 GLL5        0.0000 
     28 CA         27.1080  -20.3870   21.7120 C.3       3 GLC5        0.0000 
     29 CA         27.2650  -19.6710   19.6060 C.3       6 GLP5        0.0000 
     30 CA         32.2090  -24.2680   22.5005 C.3       3 GLC5        0.0000 
     31 CA         31.6610  -22.3560   23.3580 C.3       9 GLL5        0.0000 
     32 CA         32.7570  -26.1800   21.6430 C.3       6 GLP5        0.0000 
     33 O          32.8775  -20.3040   23.6250 O.2       1 ALC1        0.0000 
     34 O          32.8740  -21.8520   23.5780 O.2       7 ALL1        0.0000 
     35 O          32.8810  -18.7560   23.6720 O.2       4 ALP1        0.0000 
     36 N          32.4235  -24.7935   23.8275 N.am      2 SEC2        0.0000 
     37 N          31.4680  -23.6880   23.6710 N.am      8 SEL2        0.0000 
     38 N          33.3790  -25.8990   23.9840 N.am      5 SEP2        0.0000 
     39 CA         29.8125  -24.5945   22.0445 C.3       3 GLC5        0.0000 
     40 CA         30.2120  -24.1760   23.9770 C.3       9 GLL5        0.0000 
     41 CA         29.4130  -25.0130   20.1120 C.3       6 GLP5        0.0000 
     42 CA         28.6235  -24.8235   24.8285 C.3       3 GLC5        0.0000 
     43 CA         27.0350  -25.4710   25.6800 C.3       6 GLP5        0.0000 
     44 CA         30.3580  -23.4065   25.7295 C.3       3 GLC5        0.0000 
     45 CA         30.5040  -22.6370   27.4820 C.3       6 GLP5        0.0000 
     46 CA         31.8775  -24.7855   25.1590 C.3       3 GLC5        0.0000 
     47 CA         33.5430  -25.3950   26.3410 C.3       6 GLP5        0.0000 
     48 CA         31.4845  -25.1780   22.8100 C.3       3 GLC5        0.0000 
     49 N          28.8270  -23.6640   25.4350 N.am      2 SEC2        0.0000 
     50 N          29.1290  -23.3210   23.9630 N.am      8 SEL2        0.0000 
     51 CA         29.6460  -21.6340   25.3620 C.3       3 GLC5        0.0000 
     52 CA         29.2950  -22.0130   23.6500 C.3       9 GLL5        0.0000 
     53 CA         29.9970  -21.2550   27.0740 C.3       6 GLP5        0.0000 
     54 N          16.3865   -8.3335   17.8680 N.am      2 SEC2        0.0000 
     55 N          15.3220   -9.5450   18.2580 N.am      8 SEL2        0.0000 
     56 N          17.4510   -7.1220   17.4780 N.am      5 SEP2        0.0000 
     57 N          15.5485  -10.8065   17.8905 N.am      2 SEC2        0.0000 
     58 N          15.7750  -12.0680   17.5230 N.am      5 SEP2        0.0000 
     59 O          13.5170   -8.8750   19.9980 O.2       1 ALC1        0.0000 
     60 O          14.8780   -8.6020   20.2820 O.2       7 ALL1        0.0000 
     61 O          12.1560   -9.1480   19.7140 O.2       4 ALP1        0.0000 
     62 N          14.7050   -7.8785   23.8445 N.am      2 SEC2        0.0000 
     63 N          14.5670   -7.6760   22.3070 N.am      8 SEL2        0.0000 
     64 N          14.8430   -8.0810   25.3820 N.am      5 SEP2        0.0000 
     65 N          13.0645   -7.5055   22.0330 N.am      2 SEC2        0.0000 
     66 N          11.5620   -7.3350   21.7590 N.am      5 SEP2        0.0000 
     67 N          16.0365   -7.9365   24.1960 N.am      2 SEC2        0.0000 
     68 N          17.2300   -7.7920   23.0100 N.am      8 SEL2        0.0000 
     69 CA         22.4600   -5.6415   25.7590 C.3       3 GLC5        0.0000 
     70 CA         20.9590   -7.0440   26.1270 C.3       9 GLL5        0.0000 
     71 CA         23.9610   -4.2390   25.3910 C.3       6 GLP5        0.0000 
     72 CA         20.6680   -5.2910   26.3550 C.3       3 GLC5        0.0000 
     73 CA         20.3770   -3.5380   26.5830 C.3       6 GLP5        0.0000 
     74 CA         23.3710   -6.2150   24.7485 C.3       3 GLC5        0.0000 
     75 CA         22.7810   -8.1910   24.1060 C.3       9 GLL5        0.0000 
     76 CA         24.5620   -8.1460   24.9075 C.3       3 GLC5        0.0000 
     77 CA         26.3430   -8.1010   25.7090 C.3       6 GLP5        0.0000 
     78 CA         21.1870   -9.3040   18.6175 C.3       3 GLC5        0.0000 
     79 CA         19.8840   -9.4960   20.1280 C.3       9 GLL5        0.0000 
     80 CA         22.4900   -9.1120   17.1070 C.3       6 GLP5        0.0000 
     81 CA         17.7265  -12.0150   20.7140 C.3       3 GLC5        0.0000 
     82 CA         19.6910  -11.0190   20.2660 C.3       9 GLL5        0.0000 
     83 CA         15.7620  -13.0110   21.1620 C.3       6 GLP5        0.0000 
     84 CA         21.5565  -11.0280   18.2530 C.3       3 GLC5        0.0000 
     85 CA         20.9650  -11.8490   20.1830 C.3       9 GLL5        0.0000 
     86 CA         22.1480  -10.2070   16.3230 C.3       6 GLP5        0.0000 
     87 N          20.5520  -11.7065   17.7880 N.am      2 SEC2        0.0000 
     88 N          21.5360  -11.6860   18.9060 N.am      8 SEL2        0.0000 
     89 N          19.5680  -11.7270   16.6700 N.am      5 SEP2        0.0000 
     90 O          22.9575  -11.7605   19.2400 O.2       1 ALC1        0.0000 
     91 O          21.5360  -11.6860   18.9060 O.2       7 ALL1        0.0000 
     92 O          24.3790  -11.8350   19.5740 O.2       4 ALP1        0.0000 
     93 CA         22.9045  -13.8270   18.6320 C.3       3 GLC5        0.0000 
     94 CA         21.6870  -14.3030   20.0090 C.3       9 GLL5        0.0000 
     95 CA         24.1220  -13.3510   17.2550 C.3       6 GLP5        0.0000 
     96 N          19.7970  -18.8895   19.5760 N.am      2 SEC2        0.0000 
     97 N          20.9850  -18.0560   19.9450 N.am      8 SEL2        0.0000 
     98 N          18.6090  -19.7230   19.2070 N.am      5 SEP2        0.0000 
     99 N          22.8650  -15.9880   17.2880 N.am      2 SEC2        0.0000 
    100 N          22.5820  -16.7370   18.5650 N.am      8 SEL2        0.0000 
    101 N          23.1480  -15.2390   16.0110 N.am      5 SEP2        0.0000 
    102 CA         26.1867  -19.3592   21.3985 C.3       3 GLC5        0.0000 
    103 CA         25.1470  -18.2980   23.0470 C.3       9 GLL5        0.0000 
    104 CA         23.5463  -19.3398   25.2343 C.3       3 GLC5        0.0000 
    105 CA         22.0140  -18.7450   26.3890 C.3       6 GLP5        0.0000 
    106 CA         28.3660  -21.0198   25.7730 C.3       3 GLC5        0.0000 
    107 CA         31.1360  -21.1578   24.9855 C.3       3 GLC5        0.0000 
    108 CA         30.5510  -21.5050   23.3420 C.3       9 GLL5        0.0000 
    109 CA         31.1660  -20.3850   26.6210 C.3       6 GLP5        0.0000 
    110 CA         29.4400  -21.6265   21.3840 C.3       3 GLC5        0.0000 
    111 CA         28.9570  -21.4940   19.2720 C.3       6 GLP5        0.0000 
    112 CA         32.2530  -20.7353   22.4140 C.3       3 GLC5        0.0000 
    113 CA         33.4000  -19.5400   21.4780 C.3       6 GLP5        0.0000 
    114 CA         20.5060   -8.6867   26.7602 C.3       3 GLC5        0.0000 
    115 CA         20.4450   -7.5370   24.8020 C.3       9 GLL5        0.0000 
    116 CA         20.3100  -10.0830   28.0560 C.3       6 GLP5        0.0000 
    117 CA         18.9959   -5.9612   24.8432 C.3       3 GLC5        0.0000 
    118 CA         18.3530   -4.3200   25.3340 C.3       6 GLP5        0.0000 
    119 CA         22.1080   -9.7276   23.9656 C.3       3 GLC5        0.0000 
    120 CA         20.8110   -8.5350   22.6320 C.3       9 GLL5        0.0000 
    121 CA         22.8960  -11.1870   24.5070 C.3       6 GLP5        0.0000 
    122 CA         17.8351   -8.9292   24.2695 C.3       3 GLC5        0.0000 
    123 CA         19.4500   -8.4370   22.3490 C.3       9 GLL5        0.0000 
    124 CA         16.5290   -9.8060   25.4130 C.3       6 GLP5        0.0000 
    125 CA         19.4711  -10.8851   18.4305 C.3       3 GLC5        0.0000 
    126 CA         18.5660  -10.7170   16.6710 C.3       6 GLP5        0.0000 
    127 CA         20.3282  -15.0813   21.7152 C.3       3 GLC5        0.0000 
    128 CA         20.6160  -13.3160   20.4420 C.3       9 GLL5        0.0000 
    129 CA         19.5050  -16.3530   23.2050 C.3       6 GLP5        0.0000 
    130 CA         20.1138  -14.7208   18.9447 C.3       3 GLC5        0.0000 
    131 CA         19.0760  -15.6320   17.6640 C.3       6 GLP5        0.0000 
@<TRIPOS>BOND
@<TRIPOS>SUBSTRUCTURE
     1 ALC1       12 GROUP        1 X    ALC  0     ROOT ALC X 1
     2 SEC2        1 GROUP        1 X    SEC  0     **** SEC X 2
     3 GLC5        4 GROUP        1 X    GLC  0     **** GLC X 6
     4 ALP1       14 GROUP        1 Y    ALP  0     ROOT ALP Y 8
     5 SEP2        3 GROUP        1 Y    SEP  0     **** SEP Y 9
     6 GLP5        6 GROUP        1 Y    GLP  0     **** GLP Y 13
     7 ALL1       13 GROUP        1 Z    ALL  0     ROOT ALL Z 15
     8 SEL2        2 GROUP        1 Z    SEL  0     **** SEL Z 16
     9 GLL5        5 GROUP        1 Z    GLL  0     **** GLL Z 20
@<TRIPOS>SET

