#    Name: 3ae2_FAD_2_ligand
#    Modification time : Tue Mar 25 11:49:10 2014

@<TRIPOS>MOLECULE
3ae2_FAD_2_ligand
   84    89     1     0     0
SMALL
NO_CHARGES


@<TRIPOS>ATOM
      1 PA         23.3140  -16.5350   22.4840 P.3       1 FAD700      0.0000 
      2 O1A        24.3050  -15.4040   22.4200 O.co2     1 FAD700      0.0000 
      3 O2A        22.0300  -16.0220   23.0600 O.co2     1 FAD700      0.0000 
      4 O5B        23.9320  -17.6810   23.4100 O.3       1 FAD700      0.0000 
      5 C5B        25.1470  -18.2980   23.0470 C.3       1 FAD700      0.0000 
      6 C4B        25.0700  -19.7970   23.3350 C.3       1 FAD700      0.0000 
      7 O4B        26.1890  -20.4760   22.7970 O.3       1 FAD700      0.0000 
      8 C3B        25.0870  -20.0720   24.8240 C.3       1 FAD700      0.0000 
      9 O3B        24.1880  -21.1360   25.0260 O.3       1 FAD700      0.0000 
     10 C2B        26.5190  -20.4660   25.1260 C.3       1 FAD700      0.0000 
     11 O2B        26.6170  -21.3820   26.1920 O.3       1 FAD700      0.0000 
     12 C1B        26.9510  -21.1030   23.8180 C.3       1 FAD700      0.0000 
     13 N9A        28.4040  -20.9790   23.5700 N.pl3     1 FAD700      0.0000 
     14 C8A        29.1010  -19.8540   23.2120 C.2       1 FAD700      0.0000 
     15 N7A        30.4040  -20.1850   23.0790 N.2       1 FAD700      0.0000 
     16 C5A        30.5510  -21.5050   23.3420 C.ar      1 FAD700      0.0000 
     17 C6A        31.6610  -22.3560   23.3580 C.ar      1 FAD700      0.0000 
     18 N6A        32.8740  -21.8520   23.5780 N.pl3     1 FAD700      0.0000 
     19 N1A        31.4680  -23.6880   23.6710 N.ar      1 FAD700      0.0000 
     20 C2A        30.2120  -24.1760   23.9770 C.ar      1 FAD700      0.0000 
     21 N3A        29.1290  -23.3210   23.9630 N.ar      1 FAD700      0.0000 
     22 C4A        29.2950  -22.0130   23.6500 C.ar      1 FAD700      0.0000 
     23 N1         17.0850   -9.2300   19.6480 N.2       1 FAD700      0.0000 
     24 C2         15.7400   -9.1400   19.3470 C.2       1 FAD700      0.0000 
     25 O2         15.3220   -9.5450   18.2580 O.2       1 FAD700      0.0000 
     26 N3         14.8780   -8.6020   20.2820 N.am      1 FAD700      0.0000 
     27 C4         15.3600   -8.1550   21.4980 C.2       1 FAD700      0.0000 
     28 O4         14.5670   -7.6760   22.3070 O.2       1 FAD700      0.0000 
     29 C4X        16.7230   -8.2430   21.7990 C.2       1 FAD700      0.0000 
     30 N5         17.2300   -7.7920   23.0100 N.2       1 FAD700      0.0000 
     31 C5X        18.5830   -7.8920   23.2920 C.ar      1 FAD700      0.0000 
     32 C6         19.0820   -7.4440   24.5140 C.ar      1 FAD700      0.0000 
     33 C7         20.4450   -7.5370   24.8020 C.ar      1 FAD700      0.0000 
     34 C7M        20.9590   -7.0440   26.1270 C.3       1 FAD700      0.0000 
     35 C8         21.3090   -8.0870   23.8510 C.ar      1 FAD700      0.0000 
     36 C8M        22.7810   -8.1910   24.1060 C.3       1 FAD700      0.0000 
     37 C9         20.8110   -8.5350   22.6320 C.ar      1 FAD700      0.0000 
     38 C9A        19.4500   -8.4370   22.3490 C.ar      1 FAD700      0.0000 
     39 N10        18.9510   -8.8740   21.1340 N.pl3     1 FAD700      0.0000 
     40 C10        17.5900   -8.7830   20.8590 C.2       1 FAD700      0.0000 
     41 C1'        19.8840   -9.4960   20.1280 C.3       1 FAD700      0.0000 
     42 C2'        19.6910  -11.0190   20.2660 C.3       1 FAD700      0.0000 
     43 O2'        19.0840  -11.3200   21.5080 O.3       1 FAD700      0.0000 
     44 C3'        20.9650  -11.8490   20.1830 C.3       1 FAD700      0.0000 
     45 O3'        21.5360  -11.6860   18.9060 O.3       1 FAD700      0.0000 
     46 C4'        20.6160  -13.3160   20.4420 C.3       1 FAD700      0.0000 
     47 O4'        20.4050  -13.4970   21.8230 O.3       1 FAD700      0.0000 
     48 C5'        21.6870  -14.3030   20.0090 C.3       1 FAD700      0.0000 
     49 O5'        21.2320  -15.5700   20.4110 O.3       1 FAD700      0.0000 
     50 P          21.9760  -16.9120   19.9430 P.3       1 FAD700      0.0000 
     51 O1P        20.9850  -18.0560   19.9450 O.co2     1 FAD700      0.0000 
     52 O2P        22.5820  -16.7370   18.5650 O.co2     1 FAD700      0.0000 
     53 O3P        23.1330  -17.2280   21.0380 O.3       1 FAD700      0.0000 
     54 H          26.0006  -17.8978   23.6103 H         1 FAD700      0.0000 
     55 H          25.3703  -18.1790   21.9783 H         1 FAD700      0.0000 
     56 H          24.1496  -20.1834   22.9337 H         1 FAD700      0.0000 
     57 H          24.8385  -19.1911   25.3295 H         1 FAD700      0.0000 
     58 H          27.0871  -19.5759   25.2547 H         1 FAD700      0.0000 
     59 H          26.6812  -22.1623   23.8769 H         1 FAD700      0.0000 
     60 H          28.7171  -18.9830   23.0808 H         1 FAD700      0.0000 
     61 H          32.9229  -20.8609   23.7017 H         1 FAD700      0.0000 
     62 H          33.6266  -22.5101   23.5997 H         1 FAD700      0.0000 
     63 H          30.0862  -25.1686   24.2132 H         1 FAD700      0.0000 
     64 H          13.8687   -8.5330   20.0725 H         1 FAD700      0.0000 
     65 H          18.4397   -7.0402   25.2121 H         1 FAD700      0.0000 
     66 H          21.4504   -8.9414   21.9342 H         1 FAD700      0.0000 
     67 H          20.8984   -9.2512   20.3585 H         1 FAD700      0.0000 
     68 H          19.6158   -9.1994   19.1369 H         1 FAD700      0.0000 
     69 H          19.0309  -11.3467   19.4512 H         1 FAD700      0.0000 
     70 H          21.6253  -11.5187   20.9681 H         1 FAD700      0.0000 
     71 H          19.7025  -13.5474   19.8928 H         1 FAD700      0.0000 
     72 H          22.6164  -14.0207   20.4926 H         1 FAD700      0.0000 
     73 H          21.8000  -14.2224   18.9329 H         1 FAD700      0.0000 
     74 H          21.9486   -7.1624   26.2088 H         1 FAD700      0.0000 
     75 H          20.7681   -6.0716   26.2609 H         1 FAD700      0.0000 
     76 H          20.5410   -7.5329   26.8927 H         1 FAD700      0.0000 
     77 H          23.2637   -8.6025   23.3329 H         1 FAD700      0.0000 
     78 H          23.1944   -7.2947   24.2661 H         1 FAD700      0.0000 
     79 H          22.9801   -8.7532   24.9087 H         1 FAD700      0.0000 
     80 H          23.4630  -20.7565   25.6008 H         1 FAD700      0.0000 
     81 H          26.0267  -22.1460   25.9316 H         1 FAD700      0.0000 
     82 H          19.7598  -11.8691   21.9998 H         1 FAD700      0.0000 
     83 H          22.3924  -12.2014   18.9379 H         1 FAD700      0.0000 
     84 H          20.9815  -14.2749   22.0730 H         1 FAD700      0.0000 
@<TRIPOS>BOND
     1    2    1 ar   
     2    3    1 ar   
     3    4    1 1    
     4   53    1 1    
     5    5    4 1    
     6    6    5 1    
     7   54    5 1    
     8   55    5 1    
     9    7    6 1    
    10    8    6 1    
    11   56    6 1    
    12   12    7 1    
    13    9    8 1    
    14   10    8 1    
    15   57    8 1    
    16   80    9 1    
    17   11   10 1    
    18   12   10 1    
    19   58   10 1    
    20   81   11 1    
    21   13   12 1    
    22   59   12 1    
    23   14   13 1    
    24   22   13 1    
    25   15   14 2    
    26   60   14 1    
    27   16   15 1    
    28   17   16 ar   
    29   22   16 ar   
    30   18   17 1    
    31   19   17 ar   
    32   61   18 1    
    33   62   18 1    
    34   20   19 ar   
    35   21   20 ar   
    36   63   20 1    
    37   22   21 ar   
    38   24   23 1    
    39   40   23 2    
    40   25   24 2    
    41   26   24 am   
    42   27   26 am   
    43   64   26 1    
    44   28   27 2    
    45   29   27 1    
    46   30   29 2    
    47   40   29 1    
    48   31   30 1    
    49   32   31 ar   
    50   38   31 ar   
    51   33   32 ar   
    52   65   32 1    
    53   34   33 1    
    54   35   33 ar   
    55   74   34 1    
    56   75   34 1    
    57   76   34 1    
    58   36   35 1    
    59   37   35 ar   
    60   77   36 1    
    61   78   36 1    
    62   79   36 1    
    63   38   37 ar   
    64   66   37 1    
    65   39   38 1    
    66   40   39 1    
    67   41   39 1    
    68   42   41 1    
    69   67   41 1    
    70   68   41 1    
    71   43   42 1    
    72   44   42 1    
    73   69   42 1    
    74   82   43 1    
    75   45   44 1    
    76   46   44 1    
    77   70   44 1    
    78   83   45 1    
    79   47   46 1    
    80   48   46 1    
    81   71   46 1    
    82   84   47 1    
    83   49   48 1    
    84   72   48 1    
    85   73   48 1    
    86   50   49 1    
    87   51   50 ar   
    88   52   50 ar   
    89   53   50 1    
@<TRIPOS>SUBSTRUCTURE
     1 FAD700      1 GROUP   
@<TRIPOS>SET

