#    Name: 2YJZ_3_CAVITY_N1_6.mol2
#    Modification time : Tue Mar 11 03:56:48 2014

@<TRIPOS>MOLECULE
2YJZ_3_CAVITY_N1_6.mol2
   78     0     4     0     0
SMALL
NO_CHARGES


@<TRIPOS>ATOM
      1 N          47.1990    2.0711   85.3397 N.2       1 ALA2        0.0000 
      2 N          46.8377    2.9333   84.1667 N.2       1 ALA2        0.0000 
      3 N          46.4764    3.7955   82.9936 N.2       1 ALA2        0.0000 
      4 CA         47.1449   -0.0105   85.7444 C.3       3 GLY6        0.0000 
      5 CA         46.7836    0.8517   84.5713 C.3       3 GLY6        0.0000 
      6 DU         46.4223    1.7139   83.3983 H         4 CUB7        0.0000 
      7 CA         46.0610    2.5761   82.2253 C.3       3 GLY6        0.0000 
      8 O          46.7295   -1.2300   84.9760 O.2       1 ALA2        0.0000 
      9 DU         46.3682   -0.3678   83.8030 H         4 CUB7        0.0000 
     10 CA         46.0068    0.4944   82.6299 C.3       3 GLY6        0.0000 
     11 O          46.3141   -2.4494   84.2077 O.2       1 ALA2        0.0000 
     12 O          45.9527   -1.5872   83.0346 O.2       1 ALA2        0.0000 
     13 DU         45.5914   -0.7250   81.8616 H         4 CUB7        0.0000 
     14 CA         45.2301    0.1372   80.6885 C.3       3 GLY6        0.0000 
     15 O          45.5373   -2.8067   82.2663 O.2       1 ALA2        0.0000 
     16 DU         45.1760   -1.9444   81.0932 H         4 CUB7        0.0000 
     17 CZ         44.8146   -1.0822   79.9202 C.ar      2 PHE5        0.0000 
     18 CA         44.4533   -0.2200   78.7471 C.3       3 GLY6        0.0000 
     19 O          45.1219   -4.0261   81.4979 O.2       1 ALA2        0.0000 
     20 DU         44.7605   -3.1639   80.3249 H         4 CUB7        0.0000 
     21 O          44.3992   -2.3017   79.1518 O.2       1 ALA2        0.0000 
     22 CA         44.3451   -4.3833   79.5565 C.3       3 GLY6        0.0000 
     23 N          45.8037    2.2109   85.8722 N.2       1 ALA2        0.0000 
     24 CA         45.4424    3.0731   84.6992 C.3       3 GLY6        0.0000 
     25 CA         45.3883    0.9915   85.1039 C.3       3 GLY6        0.0000 
     26 CA         45.0270    1.8537   83.9308 C.3       3 GLY6        0.0000 
     27 N          44.9729   -0.2280   84.3355 N.2       1 ALA2        0.0000 
     28 N          44.6115    0.6342   83.1625 N.2       1 ALA2        0.0000 
     29 O          44.5574   -1.4474   83.5672 O.2       1 ALA2        0.0000 
     30 CZ         44.1961   -0.5852   82.3941 C.ar      2 PHE5        0.0000 
     31 N          43.7807   -1.8046   81.6258 N.2       1 ALA2        0.0000 
     32 CZ         43.4193   -0.9424   80.4527 C.ar      2 PHE5        0.0000 
     33 N          43.3652   -3.0241   80.8574 N.2       1 ALA2        0.0000 
     34 O          51.0777    4.5956   82.1644 O.2       1 ALA2        0.0000 
     35 O          50.6623    3.3762   81.3960 O.2       1 ALA2        0.0000 
     36 CA         48.5943    1.9313   84.8072 C.3       3 GLY6        0.0000 
     37 O          48.2330    2.7935   83.6341 O.2       1 ALA2        0.0000 
     38 N          47.8717    3.6558   82.4611 N.2       1 ALA2        0.0000 
     39 N          47.5104    4.5180   81.2880 N.2       1 ALA2        0.0000 
     40 N          47.8176    1.5741   82.8658 N.2       1 ALA2        0.0000 
     41 CA         47.4562    2.4363   81.6927 C.3       3 GLY6        0.0000 
     42 CA         47.0949    3.2985   80.5197 C.3       3 GLY6        0.0000 
     43 N          48.1248   -1.3698   84.4435 N.2       1 ALA2        0.0000 
     44 N          47.7635   -0.5076   83.2704 N.2       1 ALA2        0.0000 
     45 N          47.4021    0.3546   82.0974 N.2       1 ALA2        0.0000 
     46 CA         47.0408    1.2169   80.9244 C.3       3 GLY6        0.0000 
     47 N          48.0707   -3.4514   84.8482 N.2       1 ALA2        0.0000 
     48 N          47.7094   -2.5892   83.6751 N.2       1 ALA2        0.0000 
     49 N          47.3480   -1.7270   82.5021 N.2       1 ALA2        0.0000 
     50 DU         46.9867   -0.8648   81.3290 H         4 CUB7        0.0000 
     51 CA         46.6254   -0.0026   80.1560 C.3       3 GLY6        0.0000 
     52 CA         46.2641    0.8596   78.9830 C.3       3 GLY6        0.0000 
     53 CA         47.6552   -4.6709   84.0798 C.3       3 GLY6        0.0000 
     54 O          47.2939   -3.8087   82.9068 O.2       1 ALA2        0.0000 
     55 DU         46.9326   -2.9465   81.7337 H         4 CUB7        0.0000 
     56 CA         46.2099   -1.2220   79.3876 C.3       3 GLY6        0.0000 
     57 CA         45.8486   -0.3598   78.2146 C.3       3 GLY6        0.0000 
     58 DU         46.1558   -3.3037   79.7923 H         4 CUB7        0.0000 
     59 O          45.7945   -2.4415   78.6193 O.2       1 ALA2        0.0000 
     60 O          50.0437    3.8732   83.8699 O.2       1 ALA2        0.0000 
     61 N          49.6824    4.7354   82.6969 N.2       1 ALA2        0.0000 
     62 N          49.3211    5.5976   81.5239 N.2       1 ALA2        0.0000 
     63 O          49.2670    3.5160   81.9285 O.2       1 ALA2        0.0000 
     64 CA         48.9057    4.3782   80.7555 C.3       3 GLY6        0.0000 
     65 DU         48.8515    2.2965   81.1602 H         4 CUB7        0.0000 
     66 O          48.4902    3.1587   79.9871 O.2       1 ALA2        0.0000 
     67 N          48.7974    0.2149   81.5649 N.2       1 ALA2        0.0000 
     68 DU         48.4361    1.0771   80.3918 H         4 CUB7        0.0000 
     69 O          48.0748    1.9393   79.2188 O.2       1 ALA2        0.0000 
     70 O          49.4660   -3.5912   84.3156 O.2       1 ALA2        0.0000 
     71 N          49.1047   -2.7290   83.1426 N.2       1 ALA2        0.0000 
     72 N          48.7433   -1.8668   81.9696 N.2       1 ALA2        0.0000 
     73 N          48.3820   -1.0046   80.7965 N.2       1 ALA2        0.0000 
     74 DU         48.0207   -0.1424   79.6235 H         4 CUB7        0.0000 
     75 CA         47.6594    0.7198   78.4504 C.3       3 GLY6        0.0000 
     76 O          49.0505   -4.8107   83.5473 O.2       1 ALA2        0.0000 
     77 DU         47.6052   -1.3618   78.8551 H         4 CUB7        0.0000 
     78 CA         47.2439   -0.4996   77.6821 C.3       3 GLY6        0.0000 
@<TRIPOS>BOND
@<TRIPOS>SUBSTRUCTURE
     1 ALA2        1 GROUP   
     2 PHE5       17 GROUP   
     3 GLY6        4 GROUP   
     4 CUB7        6 GROUP   
@<TRIPOS>SET

