#    Name: 2yjz_NAP_3_INTS_M
#    Modification time : Tue Mar 25 09:24:30 2014

@<TRIPOS>MOLECULE
2yjz_NAP_3_INTS_M
   86     0    12     0     0
SMALL
NO_CHARGES


@<TRIPOS>ATOM
      1 N          49.6500    4.1670   78.1355 N.am      2 SEC2        0.0000 
      2 N          50.7860    3.7390   79.1540 N.am     10 SEL2        0.0000 
      3 N          48.5140    4.5950   77.1170 N.am      6 SEP2        0.0000 
      4 CA         49.1640    8.7060   82.5405 C.3       4 GLC5        0.0000 
      5 CA         50.6960    7.1620   82.5280 C.3      12 GLL5        0.0000 
      6 CA         47.6320   10.2500   82.5530 C.3       8 GLP5        0.0000 
      7 CA         50.5365    7.3185   79.8995 C.3       4 GLC5        0.0000 
      8 CA         51.6990    7.9740   81.7090 C.3      12 GLL5        0.0000 
      9 CA         49.3740    6.6630   78.0900 C.3       8 GLP5        0.0000 
     10 N          49.7525    9.1360   80.3405 N.am      2 SEC2        0.0000 
     11 N          51.1990    8.2320   80.4290 N.am     10 SEL2        0.0000 
     12 N          48.3060   10.0400   80.2520 N.am      6 SEP2        0.0000 
     13 N          49.7605   10.1860   81.1160 N.am      2 SEC2        0.0000 
     14 N          51.2150   10.3320   81.9800 N.am     10 SEL2        0.0000 
     15 CA         49.7650    8.6110   85.0630 C.3       4 GLC5        0.0000 
     16 CA         51.2680    8.8530   83.9080 C.3      12 GLL5        0.0000 
     17 CA         48.2620    8.3690   86.2180 C.3       8 GLP5        0.0000 
     18 CA         54.9745    7.2310   87.3655 C.3       4 GLC5        0.0000 
     19 CA         55.3820    8.5670   86.4570 C.3      12 GLL5        0.0000 
     20 CA         54.5670    5.8950   88.2740 C.3       8 GLP5        0.0000 
     21 CA         54.9565    6.0990   85.8755 C.3       4 GLC5        0.0000 
     22 CA         55.3330    7.2490   84.4450 C.3      12 GLL5        0.0000 
     23 CA         54.5800    4.9490   87.3060 C.3       8 GLP5        0.0000 
     24 N          46.9585    3.6150   79.0495 N.am      2 SEC2        0.0000 
     25 N          47.9450    3.6340   80.1420 N.am     10 SEL2        0.0000 
     26 N          45.9720    3.5960   77.9570 N.am      6 SEP2        0.0000 
     27 CA         46.0110    3.0410   81.4280 C.3       4 GLC5        0.0000 
     28 CA         47.4420    3.1010   82.9580 C.3      12 GLL5        0.0000 
     29 CA         44.5800    2.9810   79.8980 C.3       8 GLP5        0.0000 
     30 CA         44.5695    2.6210   84.5395 C.3       4 GLC5        0.0000 
     31 CA         46.4950    2.4560   83.9510 C.3      12 GLL5        0.0000 
     32 CA         42.6440    2.7860   85.1280 C.3       8 GLP5        0.0000 
     33 O          47.0880    2.6805   86.5970 O.2       1 ALC1        0.0000 
     34 O          46.7460    1.4850   86.0900 O.2       9 ALL1        0.0000 
     35 O          47.4300    3.8760   87.1040 O.2       5 ALP1        0.0000 
     36 N          46.1355   -1.7840   86.0525 N.am      2 SEC2        0.0000 
     37 N          46.8110   -1.0990   84.9650 N.am     10 SEL2        0.0000 
     38 N          45.4600   -2.4690   87.1400 N.am      6 SEP2        0.0000 
     39 CA         43.9870    1.6375   84.4240 C.3       4 GLC5        0.0000 
     40 CA         45.3300    0.4890   83.7200 C.3      12 GLL5        0.0000 
     41 N          44.1985   -1.8045   77.4710 N.am      2 SEC2        0.0000 
     42 N          45.3530   -2.2230   78.2590 N.am     10 SEL2        0.0000 
     43 N          43.0440   -1.3860   76.6830 N.am      6 SEP2        0.0000 
     44 CA         42.9385   -2.6820   78.9160 C.3       4 GLC5        0.0000 
     45 CA         43.9410   -1.9010   80.5550 C.3      12 GLL5        0.0000 
     46 CA         41.9360   -3.4630   77.2770 C.3       8 GLP5        0.0000 
     47 N          52.0750   13.7860   83.2880 N.am      2 SEC2        0.0000 
     48 N          52.0740   12.4220   83.1060 N.am     10 SEL2        0.0000 
     49 N          52.0760   15.1500   83.4700 N.am      6 SEP2        0.0000 
     50 N          53.5445   12.2010   83.6150 N.am      2 SEC2        0.0000 
     51 N          55.0150   11.9800   84.1240 N.am      6 SEP2        0.0000 
     52 N          51.0010   12.2880   84.0270 N.am      2 SEC2        0.0000 
     53 N          49.9280   12.1540   84.9480 N.am      6 SEP2        0.0000 
     54 N          50.6015   12.0985   79.8680 N.am      2 SEC2        0.0000 
     55 N          50.9720   12.5300   80.9040 N.am     10 SEL2        0.0000 
     56 N          50.2310   11.6670   78.8320 N.am      6 SEP2        0.0000 
     57 N          51.1190   13.8010   80.7575 N.am      2 SEC2        0.0000 
     58 N          51.2660   15.0720   80.6110 N.am      6 SEP2        0.0000 
     59 NZ         54.1570   11.7825   82.6870 N.4       3 LYC4        0.0000 
     60 NZ         53.2990   11.5850   81.2500 N.4      11 LYL4        0.0000 
     61 NZ         55.8200   11.0560   83.6200 N.4       7 LYP4        0.0000 
     62 N          54.1570   11.7825   82.6870 N.am      2 SEC2        0.0000 
     63 N          53.2990   11.5850   81.2500 N.am     10 SEL2        0.0000 
     64 N          54.4335   11.0730   81.8255 N.am      2 SEC2        0.0000 
     65 N          55.5680   10.5610   82.4010 N.am      6 SEP2        0.0000 
     66 CA         49.5123    6.1532   84.2173 C.3       4 GLC5        0.0000 
     67 CA         48.2390    5.8910   85.9730 C.3       8 GLP5        0.0000 
     68 CA         49.6010    9.6460   82.8923 C.3       4 GLC5        0.0000 
     69 CA         54.9462   10.7100   85.8572 C.3       4 GLC5        0.0000 
     70 CA         54.0650    8.9750   86.1500 C.3      12 GLL5        0.0000 
     71 CA         55.1690   12.6490   85.4110 C.3       8 GLP5        0.0000 
     72 CA         53.5992    7.6877   87.2380 C.3       4 GLC5        0.0000 
     73 CA         53.4410    6.6430   88.8890 C.3       8 GLP5        0.0000 
     74 CA         45.9608    4.5248   83.7677 C.3       4 GLC5        0.0000 
     75 CA         44.9530    6.2710   84.0810 C.3       8 GLP5        0.0000 
     76 CA         47.6037    4.3347   84.7137 C.3       4 GLC5        0.0000 
     77 CA         48.7005    0.3323   84.9368 C.3       4 GLC5        0.0000 
     78 CA         47.1860    1.3540   84.7790 C.3      12 GLL5        0.0000 
     79 CA         50.4420   -0.0270   85.4150 C.3       8 GLP5        0.0000 
     80 CA         45.3477    0.1496   85.9021 C.3       4 GLC5        0.0000 
     81 CA         44.5510   -0.2910   87.7150 C.3       8 GLP5        0.0000 
     82 CA         44.9750    1.0750   80.4315 C.3       4 GLC5        0.0000 
     83 CA         45.5830   -0.4290   81.4850 C.3      12 GLL5        0.0000 
     84 CA         41.8355   -1.9320   83.5230 C.3       4 GLC5        0.0000 
     85 CA         43.6420   -0.9920   82.7610 C.3      12 GLL5        0.0000 
     86 CA         40.2540   -2.4740   84.8090 C.3       8 GLP5        0.0000 
@<TRIPOS>BOND
@<TRIPOS>SUBSTRUCTURE
     1 ALC1       33 GROUP        1 X    ALC  0     ROOT ALC X 1
     2 SEC2        1 GROUP        1 X    SEC  0     **** SEC X 2
     3 LYC4       59 GROUP        1 X    LYC  0     **** LYC X 4
     4 GLC5        4 GROUP        1 X    GLC  0     **** GLC X 6
     5 ALP1       35 GROUP        1 Y    ALP  0     ROOT ALP Y 8
     6 SEP2        3 GROUP        1 Y    SEP  0     **** SEP Y 9
     7 LYP4       61 GROUP        1 Y    LYP  0     **** LYP Y 11
     8 GLP5        6 GROUP        1 Y    GLP  0     **** GLP Y 13
     9 ALL1       34 GROUP        1 Z    ALL  0     ROOT ALL Z 15
    10 SEL2        2 GROUP        1 Z    SEL  0     **** SEL Z 16
    11 LYL4       60 GROUP        1 Z    LYL  0     **** LYL Z 18
    12 GLL5        5 GROUP        1 Z    GLL  0     **** GLL Z 20
@<TRIPOS>SET

