#    Name: 2yjz_NAP_3_ligand
#    Modification time : Tue Mar 25 09:24:30 2014

@<TRIPOS>MOLECULE
2yjz_NAP_3_ligand
   73    77     1     0     0
SMALL
NO_CHARGES


@<TRIPOS>ATOM
      1 PA         51.0490    3.9020   80.6160 P.3       1 NAP1200     0.0000 
      2 O1A        50.7860    3.7390   79.1540 O.co2     1 NAP1200     0.0000 
      3 O2A        52.3690    3.5730   81.1580 O.co2     1 NAP1200     0.0000 
      4 O5B        50.6980    5.3920   81.0380 O.3       1 NAP1200     0.0000 
      5 C5B        50.8750    5.6690   82.3950 C.3       1 NAP1200     0.0000 
      6 C4B        50.6960    7.1620   82.5280 C.3       1 NAP1200     0.0000 
      7 O4B        50.9270    7.5060   83.8650 O.3       1 NAP1200     0.0000 
      8 C3B        51.6990    7.9740   81.7090 C.3       1 NAP1200     0.0000 
      9 O3B        51.1990    8.2320   80.4290 O.3       1 NAP1200     0.0000 
     10 C2B        51.8720    9.2310   82.5550 C.3       1 NAP1200     0.0000 
     11 O2B        51.2150   10.3320   81.9800 O.3       1 NAP1200     0.0000 
     12 C1B        51.2680    8.8530   83.9080 C.3       1 NAP1200     0.0000 
     13 N9A        52.2440    9.0800   84.9800 N.pl3     1 NAP1200     0.0000 
     14 C8A        52.0720    9.8780   86.0790 C.2       1 NAP1200     0.0000 
     15 N7A        53.2080    9.7940   86.7540 N.2       1 NAP1200     0.0000 
     16 C5A        54.0650    8.9750   86.1500 C.ar      1 NAP1200     0.0000 
     17 C6A        55.3820    8.5670   86.4570 C.ar      1 NAP1200     0.0000 
     18 N6A        56.0450    8.9930   87.5460 N.pl3     1 NAP1200     0.0000 
     19 N1A        55.9980    7.6870   85.6010 N.ar      1 NAP1200     0.0000 
     20 C2A        55.3330    7.2490   84.4450 C.ar      1 NAP1200     0.0000 
     21 N3A        54.0450    7.6480   84.1550 N.ar      1 NAP1200     0.0000 
     22 C4A        53.4500    8.4900   85.0240 C.ar      1 NAP1200     0.0000 
     23 O3         50.0370    2.8670   81.3150 O.3       1 NAP1200     0.0000 
     24 PN         48.5850    2.4640   80.6890 P.3       1 NAP1200     0.0000 
     25 O1N        48.6720    1.2390   79.8540 O.co2     1 NAP1200     0.0000 
     26 O2N        47.9450    3.6340   80.1420 O.co2     1 NAP1200     0.0000 
     27 O5D        47.8290    2.1120   82.0330 O.3       1 NAP1200     0.0000 
     28 C5D        47.4420    3.1010   82.9580 C.3       1 NAP1200     0.0000 
     29 C4D        46.4950    2.4560   83.9510 C.3       1 NAP1200     0.0000 
     30 O4D        45.4230    1.8510   83.3270 O.3       1 NAP1200     0.0000 
     31 C3D        47.1860    1.3540   84.7790 C.3       1 NAP1200     0.0000 
     32 O3D        46.7460    1.4850   86.0900 O.3       1 NAP1200     0.0000 
     33 C2D        46.7320    0.0290   84.1380 C.3       1 NAP1200     0.0000 
     34 O2D        46.8110   -1.0990   84.9650 O.3       1 NAP1200     0.0000 
     35 C1D        45.3300    0.4890   83.7200 C.3       1 NAP1200     0.0000 
     36 N1N        44.8280   -0.3260   82.6260 N.pl3     1 NAP1200     0.0000 
     37 C2N        45.5830   -0.4290   81.4850 C.ar      1 NAP1200     0.0000 
     38 C3N        45.1570   -1.2330   80.4450 C.ar      1 NAP1200     0.0000 
     39 C7N        45.9460   -1.3650   79.1710 C.2       1 NAP1200     0.0000 
     40 O7N        45.3530   -2.2230   78.2590 O.2       1 NAP1200     0.0000 
     41 N7N        47.0930   -0.6700   78.9250 N.am      1 NAP1200     0.0000 
     42 C4N        43.9410   -1.9010   80.5550 C.ar      1 NAP1200     0.0000 
     43 C5N        43.1920   -1.7880   81.7130 C.ar      1 NAP1200     0.0000 
     44 C6N        43.6420   -0.9920   82.7610 C.ar      1 NAP1200     0.0000 
     45 P2B        51.9480   11.7810   81.7640 P.3       1 NAP1200     0.0000 
     46 O1X        52.0740   12.4220   83.1060 O.co2     1 NAP1200     0.0000 
     47 O2X        50.9720   12.5300   80.9040 O.co2     1 NAP1200     0.0000 
     48 O3X        53.2990   11.5850   81.2500 O.co2     1 NAP1200     0.0000 
     49 H          51.8694    5.4163   82.7483 H         1 NAP1200     0.0000 
     50 H          50.1341    5.1839   83.0220 H         1 NAP1200     0.0000 
     51 H          49.7064    7.4359   82.2236 H         1 NAP1200     0.0000 
     52 H          52.6237    7.4389   81.7263 H         1 NAP1200     0.0000 
     53 H          52.9225    9.3807   82.7010 H         1 NAP1200     0.0000 
     54 H          50.4040    9.4794   84.0620 H         1 NAP1200     0.0000 
     55 H          51.2926   10.3749   86.2878 H         1 NAP1200     0.0000 
     56 H          55.5629    9.6499   88.1257 H         1 NAP1200     0.0000 
     57 H          56.9612    8.6150   87.6792 H         1 NAP1200     0.0000 
     58 H          55.8333    6.6074   83.7973 H         1 NAP1200     0.0000 
     59 H          46.9158    3.9302   82.4821 H         1 NAP1200     0.0000 
     60 H          48.2905    3.5020   83.5150 H         1 NAP1200     0.0000 
     61 H          46.1658    3.2135   84.6615 H         1 NAP1200     0.0000 
     62 H          48.2273    1.4601   84.6453 H         1 NAP1200     0.0000 
     63 H          47.3009   -0.0392   83.2089 H         1 NAP1200     0.0000 
     64 H          44.6913    0.3869   84.5885 H         1 NAP1200     0.0000 
     65 H          46.4703    0.0926   81.3991 H         1 NAP1200     0.0000 
     66 H          47.5317   -0.8428   78.0431 H         1 NAP1200     0.0000 
     67 H          47.3946   -0.0486   79.6481 H         1 NAP1200     0.0000 
     68 H          43.6020   -2.4781   79.7732 H         1 NAP1200     0.0000 
     69 H          42.2985   -2.2934   81.8022 H         1 NAP1200     0.0000 
     70 H          43.0842   -0.9131   83.6179 H         1 NAP1200     0.0000 
     71 H          50.6554    7.4255   80.1962 H         1 NAP1200     0.0000 
     72 H          47.4173    2.0816   86.5298 H         1 NAP1200     0.0000 
     73 H          47.4028   -0.8234   85.7225 H         1 NAP1200     0.0000 
@<TRIPOS>BOND
     1    2    1 ar   
     2    3    1 ar   
     3    4    1 1    
     4   23    1 1    
     5    5    4 1    
     6    6    5 1    
     7   49    5 1    
     8   50    5 1    
     9    7    6 1    
    10    8    6 1    
    11   51    6 1    
    12   12    7 1    
    13    9    8 1    
    14   10    8 1    
    15   52    8 1    
    16   71    9 1    
    17   11   10 1    
    18   12   10 1    
    19   53   10 1    
    20   45   11 1    
    21   13   12 1    
    22   54   12 1    
    23   14   13 1    
    24   22   13 1    
    25   15   14 2    
    26   55   14 1    
    27   16   15 1    
    28   17   16 ar   
    29   22   16 ar   
    30   18   17 1    
    31   19   17 ar   
    32   56   18 1    
    33   57   18 1    
    34   20   19 ar   
    35   21   20 ar   
    36   58   20 1    
    37   22   21 ar   
    38   24   23 1    
    39   25   24 ar   
    40   26   24 ar   
    41   27   24 1    
    42   28   27 1    
    43   29   28 1    
    44   59   28 1    
    45   60   28 1    
    46   30   29 1    
    47   31   29 1    
    48   61   29 1    
    49   35   30 1    
    50   32   31 1    
    51   33   31 1    
    52   62   31 1    
    53   72   32 1    
    54   34   33 1    
    55   35   33 1    
    56   63   33 1    
    57   73   34 1    
    58   36   35 1    
    59   64   35 1    
    60   37   36 ar   
    61   44   36 ar   
    62   38   37 ar   
    63   65   37 1    
    64   39   38 1    
    65   42   38 ar   
    66   40   39 2    
    67   41   39 am   
    68   66   41 1    
    69   67   41 1    
    70   43   42 ar   
    71   68   42 1    
    72   44   43 ar   
    73   69   43 1    
    74   70   44 1    
    75   46   45 ar   
    76   47   45 ar   
    77   48   45 ar   
@<TRIPOS>SUBSTRUCTURE
     1 NAP1200     1 GROUP   
@<TRIPOS>SET

