#    Name: 1ksz_PGS_2_INTS_M
#    Modification time : Tue Mar 25 10:34:23 2014

@<TRIPOS>MOLECULE
1ksz_PGS_2_INTS_M
   79     0    15     0     0
SMALL
NO_CHARGES


@<TRIPOS>ATOM
      1 N         -15.6270   56.8805   48.7660 N.am      2 SEC2        0.0000 
      2 N         -16.3660   55.6210   48.8560 N.am     12 SEL2        0.0000 
      3 N         -14.8880   58.1400   48.6760 N.am      7 SEP2        0.0000 
      4 N         -15.7205   56.0590   47.6095 N.am      2 SEC2        0.0000 
      5 N         -15.0750   56.4970   46.3630 N.am      7 SEP2        0.0000 
      6 N         -17.2070   56.0465   48.0590 N.am      2 SEC2        0.0000 
      7 N         -18.0480   56.4720   47.2620 N.am      7 SEP2        0.0000 
      8 N         -16.0145   52.5735   48.3215 N.am      2 SEC2        0.0000 
      9 N         -15.9460   53.4030   49.6540 N.am     12 SEL2        0.0000 
     10 N         -16.0830   51.7440   46.9890 N.am      7 SEP2        0.0000 
     11 N         -16.3085   51.9805   50.1730 N.am      2 SEC2        0.0000 
     12 N         -16.6710   50.5580   50.6920 N.am      7 SEP2        0.0000 
     13 CA        -16.4845   56.4360   52.3140 C.3       5 GLC5        0.0000 
     14 CA        -15.4770   55.1360   52.3490 C.3      15 GLL5        0.0000 
     15 CA        -17.4920   57.7360   52.2790 C.3      10 GLP5        0.0000 
     16 CA        -11.7120   57.3025   53.4955 C.3       5 GLC5        0.0000 
     17 CA        -13.3130   56.1320   52.7470 C.3      15 GLL5        0.0000 
     18 CA        -10.1110   58.4730   54.2440 C.3      10 GLP5        0.0000 
     19 O         -10.7110   56.0725   53.9055 O.2       1 ALC1        0.0000 
     20 O         -12.4280   56.1110   53.8700 O.2      11 ALL1        0.0000 
     21 O          -8.9940   56.0340   53.9410 O.2       6 ALP1        0.0000 
     22 CA        -12.6425   56.0235   49.5515 C.3       5 GLC5        0.0000 
     23 CA        -12.4360   55.5530   51.6600 C.3      15 GLL5        0.0000 
     24 CA        -12.8490   56.4940   47.4430 C.3      10 GLP5        0.0000 
     25 CA        -10.2935   55.7735   51.3000 C.3       5 GLC5        0.0000 
     26 CA         -8.1510   55.9940   50.9400 C.3      10 GLP5        0.0000 
     27 N         -10.9060   57.3800   50.7865 N.am      2 SEC2        0.0000 
     28 N         -11.0610   55.9390   51.6980 N.am     12 SEL2        0.0000 
     29 N         -10.7510   58.8210   49.8750 N.am      7 SEP2        0.0000 
     30 CA        -11.9725   52.3235   52.4625 C.3       5 GLC5        0.0000 
     31 CA        -12.4700   54.0390   51.8260 C.3      15 GLL5        0.0000 
     32 CA        -11.4750   50.6080   53.0990 C.3      10 GLP5        0.0000 
     33 N         -12.8115   51.0845   48.0670 N.am      2 SEC2        0.0000 
     34 N         -12.2870   52.3350   48.6770 N.am     12 SEL2        0.0000 
     35 N         -13.3360   49.8340   47.4570 N.am      7 SEP2        0.0000 
     36 CA        -10.5790   50.7330   45.5905 C.3       5 GLC5        0.0000 
     37 CA         -9.7220   50.9880   46.8780 C.3      15 GLL5        0.0000 
     38 CA        -11.4360   50.4780   44.3030 C.3      10 GLP5        0.0000 
     39 CA         -8.9685   51.3535   44.8030 C.3       5 GLC5        0.0000 
     40 CA         -8.2150   51.7190   42.7280 C.3      10 GLP5        0.0000 
     41 NZ         -8.6495   47.5000   46.8615 N.4       3 LYC4        0.0000 
     42 NZ         -9.8900   48.4050   46.2280 N.4      13 LYL4        0.0000 
     43 NZ         -7.4090   46.5950   47.4950 N.4       8 LYP4        0.0000 
     44 N          -9.3010   47.6600   45.1345 N.am      2 SEC2        0.0000 
     45 N          -9.8900   48.4050   46.2280 N.am     12 SEL2        0.0000 
     46 N          -8.7120   46.9150   44.0410 N.am      7 SEP2        0.0000 
     47 N         -10.4085   47.7000   47.3675 N.am      2 SEC2        0.0000 
     48 N         -10.9270   46.9950   48.5070 N.am      7 SEP2        0.0000 
     49 NZ         -7.7765   47.8040   47.6940 N.4       3 LYC4        0.0000 
     50 NZ         -8.1440   49.0130   47.8930 N.4      13 LYL4        0.0000 
     51 N          -6.7410   48.9810   48.6745 N.am      2 SEC2        0.0000 
     52 N          -8.1440   49.0130   47.8930 N.am     12 SEL2        0.0000 
     53 N          -5.3380   48.9490   49.4560 N.am      7 SEP2        0.0000 
     54 N          -9.5355   48.0040   48.2000 N.am      2 SEC2        0.0000 
     55 NZ         -7.6250   48.0550   46.5065 N.4       3 LYC4        0.0000 
     56 NZ         -7.8410   49.5150   45.5180 N.4      13 LYL4        0.0000 
     57 Zn         -7.0095   50.0235   45.6115 Zn        4 ZIC7        0.0000 
     58 Zn         -7.8410   49.5150   45.5180 Zn       14 ZIL7        0.0000 
     59 Zn         -6.1780   50.5320   45.7050 Zn        9 ZIP7        0.0000 
     60 N          -8.5355   50.3390   44.5685 N.am      2 SEC2        0.0000 
     61 N          -7.8410   49.5150   45.5180 N.am     12 SEL2        0.0000 
     62 N          -9.2300   51.1630   43.6190 N.am      7 SEP2        0.0000 
     63 N          -7.4755   51.5030   48.7490 N.am      2 SEC2        0.0000 
     64 N          -8.6730   52.0140   49.2410 N.am     12 SEL2        0.0000 
     65 N          -6.2780   50.9920   48.2570 N.am      7 SEP2        0.0000 
     66 CA        -10.0530   51.6835   51.7460 C.3       5 GLC5        0.0000 
     67 CA         -8.6310   52.7590   50.3930 C.3      15 GLL5        0.0000 
     68 CA         -8.3910   54.3765   50.6665 C.3       5 GLC5        0.0000 
     69 CA         -9.4895   54.5345   50.6005 C.3       5 GLC5        0.0000 
     70 CA        -10.8280   53.0750   50.2610 C.3      15 GLL5        0.0000 
     71 CA        -15.1442   56.3834   54.1500 C.3       5 GLC5        0.0000 
     72 CA        -16.2110   57.1890   55.6340 C.3      10 GLP5        0.0000 
     73 CA        -14.2695   57.0116   51.6285 C.3       5 GLC5        0.0000 
     74 CA        -14.2070   54.9110   52.8210 C.3      15 GLL5        0.0000 
     75 CA        -15.4410   58.4860   51.0350 C.3      10 GLP5        0.0000 
     76 CA        -11.1825   51.6657   51.3915 C.3       5 GLC5        0.0000 
     77 CA        -10.9520   52.3720   49.1070 C.3      15 GLL5        0.0000 
     78 CA        -11.6822   50.8926   49.6282 C.3       5 GLC5        0.0000 
     79 CA        -12.7570   49.2060   49.7240 C.3      10 GLP5        0.0000 
@<TRIPOS>BOND
@<TRIPOS>SUBSTRUCTURE
     1 ALC1       19 GROUP        1 X    ALC  0     ROOT ALC X 1
     2 SEC2        1 GROUP        1 X    SEC  0     **** SEC X 2
     3 LYC4       41 GROUP        1 X    LYC  0     **** LYC X 4
     4 ZIC7       57 GROUP        1 X    ZIC  0     **** ZIC X 5
     5 GLC5       13 GROUP        1 X    GLC  0     **** GLC X 6
     6 ALP1       21 GROUP        1 Y    ALP  0     ROOT ALP Y 8
     7 SEP2        3 GROUP        1 Y    SEP  0     **** SEP Y 9
     8 LYP4       43 GROUP        1 Y    LYP  0     **** LYP Y 11
     9 ZIP7       59 GROUP        1 Y    ZIP  0     **** ZIP Y 12
    10 GLP5       15 GROUP        1 Y    GLP  0     **** GLP Y 13
    11 ALL1       20 GROUP        1 Z    ALL  0     ROOT ALL Z 15
    12 SEL2        2 GROUP        1 Z    SEL  0     **** SEL Z 16
    13 LYL4       42 GROUP        1 Z    LYL  0     **** LYL Z 18
    14 ZIL7       58 GROUP        1 Z    ZIL  0     **** ZIL Z 19
    15 GLL5       14 GROUP        1 Z    GLL  0     **** GLL Z 20
@<TRIPOS>SET

