#    Name: 1ksz_PGS_2_ligand
#    Modification time : Tue Mar 25 10:34:23 2014

@<TRIPOS>MOLECULE
1ksz_PGS_2_ligand
   37    39     1     0     0
SMALL
NO_CHARGES


@<TRIPOS>ATOM
      1 PA        -16.3530   54.7480   50.0300 P.3       1 PGS440      0.0000 
      2 O1A       -16.3660   55.6210   48.8560 O.co2     1 PGS440      0.0000 
      3 O2A       -17.6750   54.7330   50.6630 O.co2     1 PGS440      0.0000 
      4 O3A       -15.9460   53.4030   49.6540 O.co2     1 PGS440      0.0000 
      5 O5'       -15.3030   55.3080   51.0560 O.3       1 PGS440      0.0000 
      6 C5'       -15.4770   55.1360   52.3490 C.3       1 PGS440      0.0000 
      7 C4'       -14.2070   54.9110   52.8210 C.3       1 PGS440      0.0000 
      8 O4'       -13.8300   53.8260   51.9870 O.3       1 PGS440      0.0000 
      9 C3'       -13.3130   56.1320   52.7470 C.3       1 PGS440      0.0000 
     10 O3'       -12.4280   56.1110   53.8700 O.3       1 PGS440      0.0000 
     11 C2'       -12.4360   55.5530   51.6600 C.3       1 PGS440      0.0000 
     12 O2'       -11.0610   55.9390   51.6980 O.3       1 PGS440      0.0000 
     13 C1'       -12.4700   54.0390   51.8260 C.3       1 PGS440      0.0000 
     14 N9        -12.1080   53.5080   50.5910 N.pl3     1 PGS440      0.0000 
     15 C8        -12.9280   53.0170   49.5700 C.2       1 PGS440      0.0000 
     16 N7        -12.2870   52.3350   48.6770 N.2       1 PGS440      0.0000 
     17 C5        -10.9520   52.3720   49.1070 C.ar      1 PGS440      0.0000 
     18 C6         -9.8220   51.7950   48.5010 C.ar      1 PGS440      0.0000 
     19 S6         -9.7220   50.9880   46.8780 S.3       1 PGS440      0.0000 
     20 P          -8.8300   49.3910   46.6100 P.3       1 PGS440      0.0000 
     21 O1P        -9.8900   48.4050   46.2280 O.co2     1 PGS440      0.0000 
     22 O2P        -8.1440   49.0130   47.8930 O.co2     1 PGS440      0.0000 
     23 O3P        -7.8410   49.5150   45.5180 O.co2     1 PGS440      0.0000 
     24 N1         -8.6730   52.0140   49.2410 N.ar      1 PGS440      0.0000 
     25 C2         -8.6310   52.7590   50.3930 C.ar      1 PGS440      0.0000 
     26 N3         -9.7040   53.3210   50.9570 N.ar      1 PGS440      0.0000 
     27 C4        -10.8280   53.0750   50.2610 C.ar      1 PGS440      0.0000 
     28 H         -16.1311   54.2785   52.5820 H         1 PGS440      0.0000 
     29 H         -15.9194   56.0185   52.8420 H         1 PGS440      0.0000 
     30 H         -14.2539   54.5625   53.8534 H         1 PGS440      0.0000 
     31 H         -13.7527   56.9310   52.4787 H         1 PGS440      0.0000 
     32 H         -12.8844   55.7631   50.6971 H         1 PGS440      0.0000 
     33 H         -11.8967   53.7708   52.6190 H         1 PGS440      0.0000 
     34 H         -13.9110   53.2054   49.5789 H         1 PGS440      0.0000 
     35 H          -7.6772   52.8885   50.8546 H         1 PGS440      0.0000 
     36 H         -11.5262   55.9145   53.4850 H         1 PGS440      0.0000 
     37 H         -10.5520   55.1036   51.4907 H         1 PGS440      0.0000 
@<TRIPOS>BOND
     1    2    1 ar   
     2    3    1 ar   
     3    4    1 ar   
     4    5    1 1    
     5    6    5 1    
     6    7    6 1    
     7   28    6 1    
     8   29    6 1    
     9    8    7 1    
    10    9    7 1    
    11   30    7 1    
    12   13    8 1    
    13   10    9 1    
    14   11    9 1    
    15   31    9 1    
    16   36   10 1    
    17   12   11 1    
    18   13   11 1    
    19   32   11 1    
    20   37   12 1    
    21   14   13 1    
    22   33   13 1    
    23   15   14 1    
    24   27   14 1    
    25   16   15 2    
    26   34   15 1    
    27   17   16 1    
    28   18   17 ar   
    29   27   17 ar   
    30   19   18 1    
    31   24   18 ar   
    32   20   19 1    
    33   21   20 ar   
    34   22   20 ar   
    35   23   20 ar   
    36   25   24 ar   
    37   26   25 ar   
    38   35   25 1    
    39   27   26 ar   
@<TRIPOS>SUBSTRUCTURE
     1 PGS440      1 GROUP   
@<TRIPOS>SET

