#    Name: 1bmd_NAD_1_INTS_M
#    Modification time : Mon Mar 24 19:37:57 2014

@<TRIPOS>MOLECULE
1bmd_NAD_1_INTS_M
   81     0     9     0     0
SMALL
NO_CHARGES


@<TRIPOS>ATOM
      1 N          29.0200   24.1545   26.6505 N.am      2 SEC2        0.0000 
      2 N          28.8830   24.5380   25.2840 N.am      8 SEL2        0.0000 
      3 N          29.1570   23.7710   28.0170 N.am      5 SEP2        0.0000 
      4 CA         23.0340   21.8155   24.8460 C.3       3 GLC5        0.0000 
      5 CA         25.2410   21.5480   24.7820 C.3       9 GLL5        0.0000 
      6 CA         20.8270   22.0830   24.9100 C.3       6 GLP5        0.0000 
      7 O          26.3435   18.8335   25.2825 O.2       1 ALC1        0.0000 
      8 O          26.8260   19.7560   24.7380 O.2       7 ALL1        0.0000 
      9 O          25.8610   17.9110   25.8270 O.2       4 ALP1        0.0000 
     10 O          25.4365   17.7760   23.3055 O.2       1 ALC1        0.0000 
     11 O          25.7900   18.7700   22.4830 O.2       7 ALL1        0.0000 
     12 O          25.0830   16.7820   24.1280 O.2       4 ALP1        0.0000 
     13 O          25.8255   18.3405   24.1550 O.2       1 ALC1        0.0000 
     14 CA         23.6430   19.8550   25.2520 C.3       3 GLC5        0.0000 
     15 CA         24.0920   19.9660   23.6010 C.3       9 GLL5        0.0000 
     16 CA         23.1940   19.7440   26.9030 C.3       6 GLP5        0.0000 
     17 CA         22.4595   21.0245   24.2555 C.3       3 GLC5        0.0000 
     18 CA         19.8050   18.0775   25.9945 C.3       3 GLC5        0.0000 
     19 CA         20.7200   17.4220   24.3880 C.3       9 GLL5        0.0000 
     20 CA         18.8900   18.7330   27.6010 C.3       6 GLP5        0.0000 
     21 CA         21.9570   18.5830   25.6455 C.3       3 GLC5        0.0000 
     22 CA         19.9520   15.8030   25.3715 C.3       3 GLC5        0.0000 
     23 CA         19.1840   14.1840   26.3550 C.3       6 GLP5        0.0000 
     24 CA         22.0230   16.0190   24.8710 C.3       3 GLC5        0.0000 
     25 CA         23.3260   14.6160   25.3540 C.3       6 GLP5        0.0000 
     26 CA         21.6390   16.8980   22.4665 C.3       3 GLC5        0.0000 
     27 CA         22.5580   16.3740   20.5450 C.3       6 GLP5        0.0000 
     28 N          21.8920   18.5710   25.7655 N.am      2 SEC2        0.0000 
     29 N          21.8380   18.1450   24.3130 N.am      8 SEL2        0.0000 
     30 N          21.9460   18.9970   27.2180 N.am      5 SEP2        0.0000 
     31 CA         22.5500   19.2790   25.0290 C.3       3 GLC5        0.0000 
     32 CA         21.9060   18.8140   23.1550 C.3       9 GLL5        0.0000 
     33 N          26.9965   25.4840   28.5635 N.am      2 SEC2        0.0000 
     34 N          26.3710   25.5490   27.2010 N.am      8 SEL2        0.0000 
     35 N          27.6220   25.4190   29.9260 N.am      5 SEP2        0.0000 
     36 CA         22.9675   25.3440   27.3675 C.3       3 GLC5        0.0000 
     37 CA         23.6590   26.3760   25.7140 C.3       9 GLL5        0.0000 
     38 CA         22.2760   24.3120   29.0210 C.3       6 GLP5        0.0000 
     39 N          20.1510   28.5660   23.6120 N.am      2 SEC2        0.0000 
     40 N          21.4480   28.1720   23.3940 N.am      8 SEL2        0.0000 
     41 N          18.8540   28.9600   23.8300 N.am      5 SEP2        0.0000 
     42 N          21.3560   31.3925   24.0990 N.am      2 SEC2        0.0000 
     43 N          22.1370   30.6010   23.6840 N.am      8 SEL2        0.0000 
     44 N          20.5750   32.1840   24.5140 N.am      5 SEP2        0.0000 
     45 CA         23.0880   28.7985   27.5520 C.3       3 GLC5        0.0000 
     46 CA         21.9210   29.5080   25.8580 C.3       9 GLL5        0.0000 
     47 CA         24.2550   28.0890   29.2460 C.3       6 GLP5        0.0000 
     48 CA         20.3630   28.3130   25.6525 C.3       3 GLC5        0.0000 
     49 CA         18.8050   27.1180   25.4470 C.3       6 GLP5        0.0000 
     50 O          18.6235   30.6585   27.9120 O.2       1 ALC1        0.0000 
     51 O          18.4610   32.1250   28.6460 O.2       7 ALL1        0.0000 
     52 O          18.7860   29.1920   27.1780 O.2       4 ALP1        0.0000 
     53 O          17.3355   32.8730   29.6685 O.2       1 ALC1        0.0000 
     54 O          16.2100   33.6210   30.6910 O.2       4 ALP1        0.0000 
     55 CA         22.7655   33.7210   30.2945 C.3       3 GLC5        0.0000 
     56 CA         22.1660   32.4060   28.7810 C.3       9 GLL5        0.0000 
     57 CA         23.3650   35.0360   31.8080 C.3       6 GLP5        0.0000 
     58 CA         24.4705   20.4498   25.6298 C.3       3 GLC5        0.0000 
     59 CA         27.0523   21.5866   25.8124 C.3       3 GLC5        0.0000 
     60 CA         26.2530   20.7630   23.9310 C.3       9 GLL5        0.0000 
     61 CA         28.3180   21.6440   27.2970 C.3       6 GLP5        0.0000 
     62 CA         21.1370   20.4712   23.7730 C.3       3 GLC5        0.0000 
     63 CA         20.9880   18.9050   22.1170 C.3       9 GLL5        0.0000 
     64 CA         21.8582   17.5170   21.6154 C.3       3 GLC5        0.0000 
     65 CA         23.6740   27.4773   27.4115 C.3       3 GLC5        0.0000 
     66 CA         20.6968   27.4495   25.1190 C.3       3 GLC5        0.0000 
     67 CA         22.5270   27.3550   25.4400 C.3       9 GLL5        0.0000 
     68 CA         20.8800   30.3407   23.9838 C.3       3 GLC5        0.0000 
     69 CA         19.4290   31.0930   22.7440 C.3       6 GLP5        0.0000 
     70 CA         20.5508   29.9415   28.8002 C.3       3 GLC5        0.0000 
     71 CA         20.8080   31.2080   27.2050 C.3       9 GLL5        0.0000 
     72 CA         20.2440   28.2390   29.8560 C.3       6 GLP5        0.0000 
     73 CA         19.6202   33.1940   27.4102 C.3       3 GLC5        0.0000 
     74 CA         18.3830   34.7440   27.0760 C.3       6 GLP5        0.0000 
     75 CA         20.7722   31.8825   30.4047 C.3       3 GLC5        0.0000 
     76 CA         20.9070   32.0800   28.2840 C.3       9 GLL5        0.0000 
     77 CA         20.0080   31.5220   32.2770 C.3       6 GLP5        0.0000 
     78 CA         23.6020   31.6387   30.2300 C.3       3 GLC5        0.0000 
     79 CA         24.4560   31.1590   31.9400 C.3       6 GLP5        0.0000 
     80 CA         23.7612   29.7450   28.4887 C.3       3 GLC5        0.0000 
     81 CA         23.3300   31.8310   28.2590 C.3       9 GLL5        0.0000 
@<TRIPOS>BOND
@<TRIPOS>SUBSTRUCTURE
     1 ALC1        7 GROUP        1 X    ALC  0     ROOT ALC X 1
     2 SEC2        1 GROUP        1 X    SEC  0     **** SEC X 2
     3 GLC5        4 GROUP        1 X    GLC  0     **** GLC X 6
     4 ALP1        9 GROUP        1 Y    ALP  0     ROOT ALP Y 8
     5 SEP2        3 GROUP        1 Y    SEP  0     **** SEP Y 9
     6 GLP5        6 GROUP        1 Y    GLP  0     **** GLP Y 13
     7 ALL1        8 GROUP        1 Z    ALL  0     ROOT ALL Z 15
     8 SEL2        2 GROUP        1 Z    SEL  0     **** SEL Z 16
     9 GLL5        5 GROUP        1 Z    GLL  0     **** GLL Z 20
@<TRIPOS>SET

