#    Name: 1bmd_NAD_1_ligand
#    Modification time : Mon Mar 24 19:37:57 2014

@<TRIPOS>MOLECULE
1bmd_NAD_1_ligand
   70    74     1     0     0
SMALL
NO_CHARGES


@<TRIPOS>ATOM
      1 PA         27.6110   24.5330   24.4860 P.3       1 NAD334      0.0000 
      2 O1A        27.6950   24.3330   23.0340 O.co2     1 NAD334      0.0000 
      3 O2A        28.8830   24.5380   25.2840 O.co2     1 NAD334      0.0000 
      4 O5B        26.6670   23.4330   25.1350 O.3       1 NAD334      0.0000 
      5 C5B        25.3990   23.0430   24.6670 C.3       1 NAD334      0.0000 
      6 C4B        25.2410   21.5480   24.7820 C.3       1 NAD334      0.0000 
      7 O4B        23.9290   21.2010   24.2620 O.3       1 NAD334      0.0000 
      8 C3B        26.2530   20.7630   23.9310 C.3       1 NAD334      0.0000 
      9 O3B        26.8260   19.7560   24.7380 O.3       1 NAD334      0.0000 
     10 C2B        25.3930   20.0710   22.8500 C.3       1 NAD334      0.0000 
     11 O2B        25.7900   18.7700   22.4830 O.3       1 NAD334      0.0000 
     12 C1B        24.0920   19.9660   23.6010 C.3       1 NAD334      0.0000 
     13 N9A        22.9680   19.7120   22.7490 N.pl3     1 NAD334      0.0000 
     14 C8A        22.6220   20.1960   21.4830 C.2       1 NAD334      0.0000 
     15 N7A        21.4500   19.7510   21.0560 N.2       1 NAD334      0.0000 
     16 C5A        20.9880   18.9050   22.1170 C.ar      1 NAD334      0.0000 
     17 C6A        19.8340   18.1070   22.3160 C.ar      1 NAD334      0.0000 
     18 N6A        18.9500   17.8850   21.3410 N.pl3     1 NAD334      0.0000 
     19 N1A        19.7290   17.3880   23.4780 N.ar      1 NAD334      0.0000 
     20 C2A        20.7200   17.4220   24.3880 C.ar      1 NAD334      0.0000 
     21 N3A        21.8380   18.1450   24.3130 N.ar      1 NAD334      0.0000 
     22 C4A        21.9060   18.8140   23.1550 C.ar      1 NAD334      0.0000 
     23 O3         26.7490   25.8010   24.7640 O.3       1 NAD334      0.0000 
     24 PN         26.3670   26.5870   26.1450 P.3       1 NAD334      0.0000 
     25 O1N        27.2810   27.7320   26.4890 O.co2     1 NAD334      0.0000 
     26 O2N        26.3710   25.5490   27.2010 O.co2     1 NAD334      0.0000 
     27 O5D        24.8490   27.1360   26.0340 O.3       1 NAD334      0.0000 
     28 C5D        23.6590   26.3760   25.7140 C.3       1 NAD334      0.0000 
     29 C4D        22.5270   27.3550   25.4400 C.3       1 NAD334      0.0000 
     30 O4D        22.5550   28.3970   26.4590 O.3       1 NAD334      0.0000 
     31 C3D        22.6500   28.2070   24.1420 C.3       1 NAD334      0.0000 
     32 O3D        21.4480   28.1720   23.3940 O.3       1 NAD334      0.0000 
     33 C2D        22.7410   29.6690   24.5890 C.3       1 NAD334      0.0000 
     34 O2D        22.1370   30.6010   23.6840 O.3       1 NAD334      0.0000 
     35 C1D        21.9210   29.5080   25.8580 C.3       1 NAD334      0.0000 
     36 N1N        21.9750   30.6400   26.7410 N.pl3     1 NAD334      0.0000 
     37 C2N        20.8080   31.2080   27.2050 C.ar      1 NAD334      0.0000 
     38 C3N        20.9070   32.0800   28.2840 C.ar      1 NAD334      0.0000 
     39 C7N        19.6700   32.6890   28.9190 C.2       1 NAD334      0.0000 
     40 O7N        19.9440   33.4880   29.8460 O.2       1 NAD334      0.0000 
     41 N7N        18.4610   32.1250   28.6460 N.am      1 NAD334      0.0000 
     42 C4N        22.1660   32.4060   28.7810 C.ar      1 NAD334      0.0000 
     43 C5N        23.3300   31.8310   28.2590 C.ar      1 NAD334      0.0000 
     44 C6N        23.2050   30.9710   27.2040 C.ar      1 NAD334      0.0000 
     45 H          25.2475   23.3185   23.6104 H         1 NAD334      0.0000 
     46 H          24.5851   23.5141   25.2423 H         1 NAD334      0.0000 
     47 H          25.3278   21.2406   25.7956 H         1 NAD334      0.0000 
     48 H          26.9165   21.4101   23.4846 H         1 NAD334      0.0000 
     49 H          25.2485   20.7483   22.0579 H         1 NAD334      0.0000 
     50 H          24.2059   19.1718   24.3372 H         1 NAD334      0.0000 
     51 H          23.2224   20.8107   20.9853 H         1 NAD334      0.0000 
     52 H          18.1494   17.3394   21.5888 H         1 NAD334      0.0000 
     53 H          19.1677   18.2842   20.4504 H         1 NAD334      0.0000 
     54 H          20.5919   16.7964   25.2700 H         1 NAD334      0.0000 
     55 H          23.3643   25.7339   26.5417 H         1 NAD334      0.0000 
     56 H          23.8061   25.7645   24.8259 H         1 NAD334      0.0000 
     57 H          21.5836   26.8809   25.4432 H         1 NAD334      0.0000 
     58 H          23.4972   27.9542   23.6172 H         1 NAD334      0.0000 
     59 H          23.7288   29.8635   24.8680 H         1 NAD334      0.0000 
     60 H          20.9252   29.2505   25.5718 H         1 NAD334      0.0000 
     61 H          19.9122   31.0026   26.7817 H         1 NAD334      0.0000 
     62 H          17.6664   32.5618   29.0677 H         1 NAD334      0.0000 
     63 H          18.4743   31.3237   28.0478 H         1 NAD334      0.0000 
     64 H          22.2462   33.0906   29.5561 H         1 NAD334      0.0000 
     65 H          24.2359   32.0562   28.6637 H         1 NAD334      0.0000 
     66 H          24.0558   30.5740   26.7607 H         1 NAD334      0.0000 
     67 H          26.0975   19.4819   25.3658 H         1 NAD334      0.0000 
     68 H          25.4528   18.1800   23.2166 H         1 NAD334      0.0000 
     69 H          21.3562   29.0902   23.0088 H         1 NAD334      0.0000 
     70 H          22.8719   31.2308   23.4326 H         1 NAD334      0.0000 
@<TRIPOS>BOND
     1    2    1 ar   
     2    3    1 ar   
     3    4    1 1    
     4   23    1 1    
     5    5    4 1    
     6    6    5 1    
     7   45    5 1    
     8   46    5 1    
     9    7    6 1    
    10    8    6 1    
    11   47    6 1    
    12   12    7 1    
    13    9    8 1    
    14   10    8 1    
    15   48    8 1    
    16   67    9 1    
    17   11   10 1    
    18   12   10 1    
    19   49   10 1    
    20   68   11 1    
    21   13   12 1    
    22   50   12 1    
    23   14   13 1    
    24   22   13 1    
    25   15   14 2    
    26   51   14 1    
    27   16   15 1    
    28   17   16 ar   
    29   22   16 ar   
    30   18   17 1    
    31   19   17 ar   
    32   52   18 1    
    33   53   18 1    
    34   20   19 ar   
    35   21   20 ar   
    36   54   20 1    
    37   22   21 ar   
    38   24   23 1    
    39   25   24 ar   
    40   26   24 ar   
    41   27   24 1    
    42   28   27 1    
    43   29   28 1    
    44   55   28 1    
    45   56   28 1    
    46   30   29 1    
    47   31   29 1    
    48   57   29 1    
    49   35   30 1    
    50   32   31 1    
    51   33   31 1    
    52   58   31 1    
    53   69   32 1    
    54   34   33 1    
    55   35   33 1    
    56   59   33 1    
    57   70   34 1    
    58   36   35 1    
    59   60   35 1    
    60   37   36 ar   
    61   44   36 ar   
    62   38   37 ar   
    63   61   37 1    
    64   39   38 1    
    65   42   38 ar   
    66   40   39 2    
    67   41   39 am   
    68   62   41 1    
    69   63   41 1    
    70   43   42 ar   
    71   64   42 1    
    72   44   43 ar   
    73   65   43 1    
    74   66   44 1    
@<TRIPOS>SUBSTRUCTURE
     1 NAD334      1 GROUP   
@<TRIPOS>SET

