#    Name: 2np7_NEA_1_INTS_M
#    Modification time : Tue Mar 25 21:26:06 2014

@<TRIPOS>MOLECULE
2np7_NEA_1_INTS_M
   60     0     9     0     0
SMALL
NO_CHARGES


@<TRIPOS>ATOM
      1 O         -48.3265    4.3480   11.1160 O.2       1 ALC1        0.0000 
      2 O         -47.2060    5.1280   11.3240 O.2       7 ALL1        0.0000 
      3 O         -49.4470    3.5680   10.9080 O.2       4 ALP1        0.0000 
      4 O         -45.9465    4.4910   11.2655 O.2       1 ALC1        0.0000 
      5 O         -44.6870    3.8540   11.2070 O.2       4 ALP1        0.0000 
      6 CA        -45.1605    6.0185   11.0330 C.3       3 GLC5        0.0000 
      7 CA        -46.9670    6.1770   12.3530 C.3       9 GLL5        0.0000 
      8 CA        -43.3540    5.8600    9.7130 C.3       6 GLP5        0.0000 
      9 CA        -47.5465    2.6180   13.0330 C.3       3 GLC5        0.0000 
     10 CA        -46.5420    4.0720   14.1780 C.3       9 GLL5        0.0000 
     11 CA        -48.5510    1.1640   11.8880 C.3       6 GLP5        0.0000 
     12 CA        -45.2805    2.7640   14.7900 C.3       3 GLC5        0.0000 
     13 CA        -44.0190    1.4560   15.4020 C.3       6 GLP5        0.0000 
     14 CA        -48.9335    2.6445   13.3230 C.3       3 GLC5        0.0000 
     15 CA        -49.3160    4.1250   14.7580 C.3       9 GLL5        0.0000 
     16 O         -52.2035    4.1660   14.0930 O.2       1 ALC1        0.0000 
     17 O         -51.4950    4.9540   15.0290 O.2       7 ALL1        0.0000 
     18 O         -52.9120    3.3780   13.1570 O.2       4 ALP1        0.0000 
     19 O         -52.9780    2.5320   15.7340 O.2       1 ALC1        0.0000 
     20 O         -52.1320    2.8160   16.6580 O.2       7 ALL1        0.0000 
     21 O         -53.8240    2.2480   14.8100 O.2       4 ALP1        0.0000 
     22 CA        -49.4760    1.6200   13.5465 C.3       3 GLC5        0.0000 
     23 CA        -50.4010    2.0760   15.2050 C.3       9 GLL5        0.0000 
     24 CA        -51.7650    0.6530   16.1285 C.3       3 GLC5        0.0000 
     25 CA        -53.1290   -0.7700   17.0520 C.3       6 GLP5        0.0000 
     26 CA        -47.7880   -0.8560   15.3830 C.3       3 GLC5        0.0000 
     27 CA        -49.8350   -1.5300   15.5200 C.3       9 GLL5        0.0000 
     28 CA        -45.7410   -0.1820   15.2460 C.3       6 GLP5        0.0000 
     29 CA        -51.8755   -2.3375   15.5620 C.3       3 GLC5        0.0000 
     30 CA        -50.0590   -2.8140   14.9920 C.3       9 GLL5        0.0000 
     31 CA        -53.6920   -1.8610   16.1320 C.3       6 GLP5        0.0000 
     32 CA        -51.5265   -4.4245   14.6955 C.3       3 GLC5        0.0000 
     33 CA        -52.9940   -6.0350   14.3990 C.3       6 GLP5        0.0000 
     34 CA        -50.0355   -3.6565   12.9110 C.3       3 GLC5        0.0000 
     35 CA        -50.0120   -4.4990   10.8300 C.3       6 GLP5        0.0000 
     36 O         -49.9560   -5.3035   15.3705 O.2       1 ALC1        0.0000 
     37 O         -49.5380   -3.9050   15.5560 O.2       7 ALL1        0.0000 
     38 O         -50.3740   -6.7020   15.1850 O.2       4 ALP1        0.0000 
     39 N         -51.1915   -4.2175   13.1895 N.am      2 SEC2        0.0000 
     40 N         -50.8320   -2.9560   13.8660 N.am      8 SEL2        0.0000 
     41 N         -51.5510   -5.4790   12.5130 N.am      5 SEP2        0.0000 
     42 CA        -50.6345   -0.3285   12.1740 C.3       3 GLC5        0.0000 
     43 CA        -51.3860   -1.8630   13.2430 C.3       9 GLL5        0.0000 
     44 CA        -49.8830    1.2060   11.1050 C.3       6 GLP5        0.0000 
     45 CA        -52.9370   -0.7725   12.5655 C.3       3 GLC5        0.0000 
     46 CA        -54.4880    0.3180   11.8880 C.3       6 GLP5        0.0000 
     47 CA        -52.5390   -1.8620   14.6875 C.3       3 GLC5        0.0000 
     48 CA        -50.6990   -3.1810   12.0365 C.3       3 GLC5        0.0000 
     49 N         -52.8060   -0.5510   13.9740 N.am      2 SEC2        0.0000 
     50 N         -51.1520   -0.6080   13.7700 N.am      8 SEL2        0.0000 
     51 N         -54.4600   -0.4940   14.1780 N.am      5 SEP2        0.0000 
     52 CA        -49.4705    0.3675   13.3855 C.3       3 GLC5        0.0000 
     53 CA        -50.3900   -0.4290   14.8830 C.3       9 GLL5        0.0000 
     54 CA        -46.4038    7.2765   14.1637 C.3       3 GLC5        0.0000 
     55 CA        -46.1000    5.7010   13.5300 C.3       9 GLL5        0.0000 
     56 CA        -46.2740    8.6140   15.3860 C.3       6 GLP5        0.0000 
     57 CA        -49.1560    6.2541   15.3782 C.3       3 GLC5        0.0000 
     58 CA        -47.9380    4.6420   15.2080 C.3       9 GLL5        0.0000 
     59 CA        -48.7800    8.1260   15.3810 C.3       6 GLP5        0.0000 
     60 CA        -51.6208   -0.8747   16.1268 C.3       3 GLC5        0.0000 
@<TRIPOS>BOND
@<TRIPOS>SUBSTRUCTURE
     1 ALC1        1 GROUP        1 X    ALC  0     ROOT ALC X 1
     2 SEC2       39 GROUP        1 X    SEC  0     **** SEC X 2
     3 GLC5        6 GROUP        1 X    GLC  0     **** GLC X 6
     4 ALP1        3 GROUP        1 Y    ALP  0     ROOT ALP Y 8
     5 SEP2       41 GROUP        1 Y    SEP  0     **** SEP Y 9
     6 GLP5        8 GROUP        1 Y    GLP  0     **** GLP Y 13
     7 ALL1        2 GROUP        1 Z    ALL  0     ROOT ALL Z 15
     8 SEL2       40 GROUP        1 Z    SEL  0     **** SEL Z 16
     9 GLL5        7 GROUP        1 Z    GLL  0     **** GLL Z 20
@<TRIPOS>SET

