#    Name: 2np7_NEA_1_ligand
#    Modification time : Tue Mar 25 21:26:06 2014

@<TRIPOS>MOLECULE
2np7_NEA_1_ligand
   41    43     1     0     0
SMALL
NO_CHARGES


@<TRIPOS>ATOM
      1 N         -47.2060    5.1280   11.3240 N.4       1 NEA601      0.0000 
      2 CB        -46.9670    6.1770   12.3530 C.3       1 NEA601      0.0000 
      3 CG        -46.1000    5.7010   13.5300 C.3       1 NEA601      0.0000 
      4 SD        -46.5420    4.0720   14.1780 S.3       1 NEA601      0.0000 
      5 C5'       -47.9380    4.6420   15.2080 C.3       1 NEA601      0.0000 
      6 C4'       -49.3160    4.1250   14.7580 C.3       1 NEA601      0.0000 
      7 O4'       -49.3030    2.7190   14.5680 O.3       1 NEA601      0.0000 
      8 C3'       -50.4370    4.3810   15.7680 C.3       1 NEA601      0.0000 
      9 O3'       -51.4950    4.9540   15.0290 O.3       1 NEA601      0.0000 
     10 C2'       -50.7760    3.0060   16.3340 C.3       1 NEA601      0.0000 
     11 O2'       -52.1320    2.8160   16.6580 O.3       1 NEA601      0.0000 
     12 C1'       -50.4010    2.0760   15.2050 C.3       1 NEA601      0.0000 
     13 N9        -50.0240    0.7000   15.5880 N.pl3     1 NEA601      0.0000 
     14 C8        -49.2450    0.2890   16.6460 C.2       1 NEA601      0.0000 
     15 N7        -49.1330   -1.0650   16.5780 N.2       1 NEA601      0.0000 
     16 C5        -49.8350   -1.5300   15.5200 C.ar      1 NEA601      0.0000 
     17 C6        -50.0590   -2.8140   14.9920 C.ar      1 NEA601      0.0000 
     18 N6        -49.5380   -3.9050   15.5560 N.pl3     1 NEA601      0.0000 
     19 N1        -50.8320   -2.9560   13.8660 N.ar      1 NEA601      0.0000 
     20 C2        -51.3860   -1.8630   13.2430 C.ar      1 NEA601      0.0000 
     21 N3        -51.1520   -0.6080   13.7700 N.ar      1 NEA601      0.0000 
     22 C4        -50.3900   -0.4290   14.8830 C.ar      1 NEA601      0.0000 
     23 H         -47.9299    6.5348   12.7589 H         1 NEA601      0.0000 
     24 H         -46.4721    7.0511   11.8939 H         1 NEA601      0.0000 
     25 H         -46.1883    6.3318   14.4023 H         1 NEA601      0.0000 
     26 H         -45.0607    5.5735   13.2650 H         1 NEA601      0.0000 
     27 H         -47.8436    5.7145   15.1444 H         1 NEA601      0.0000 
     28 H         -47.6523    4.2958   16.1887 H         1 NEA601      0.0000 
     29 H         -49.5915    4.6242   13.8336 H         1 NEA601      0.0000 
     30 H         -50.0541    4.9979   16.5262 H         1 NEA601      0.0000 
     31 H         -50.1032    2.8054   17.1435 H         1 NEA601      0.0000 
     32 H         -51.2416    2.0524   14.5060 H         1 NEA601      0.0000 
     33 H         -48.8570    0.8599   17.3048 H         1 NEA601      0.0000 
     34 H         -49.7863   -4.7783   15.1369 H         1 NEA601      0.0000 
     35 H         -48.9460   -3.7514   16.3471 H         1 NEA601      0.0000 
     36 H         -51.9619   -1.9741   12.4036 H         1 NEA601      0.0000 
     37 H         -48.0300    4.5963   11.5200 H         1 NEA601      0.0000 
     38 H         -47.3213    5.5218   10.4120 H         1 NEA601      0.0000 
     39 H         -46.4456    4.4809   11.2698 H         1 NEA601      0.0000 
     40 H         -51.7527    4.2551   14.3617 H         1 NEA601      0.0000 
     41 H         -52.5806    2.6161   15.7869 H         1 NEA601      0.0000 
@<TRIPOS>BOND
     1    2    1 1    
     2   37    1 1    
     3   38    1 1    
     4   39    1 1    
     5    3    2 1    
     6   23    2 1    
     7   24    2 1    
     8    4    3 1    
     9   25    3 1    
    10   26    3 1    
    11    5    4 1    
    12    6    5 1    
    13   27    5 1    
    14   28    5 1    
    15    7    6 1    
    16    8    6 1    
    17   29    6 1    
    18   12    7 1    
    19    9    8 1    
    20   10    8 1    
    21   30    8 1    
    22   40    9 1    
    23   11   10 1    
    24   12   10 1    
    25   31   10 1    
    26   41   11 1    
    27   13   12 1    
    28   32   12 1    
    29   14   13 1    
    30   22   13 1    
    31   15   14 2    
    32   33   14 1    
    33   16   15 1    
    34   17   16 ar   
    35   22   16 ar   
    36   18   17 1    
    37   19   17 ar   
    38   34   18 1    
    39   35   18 1    
    40   20   19 ar   
    41   21   20 ar   
    42   36   20 1    
    43   22   21 ar   
@<TRIPOS>SUBSTRUCTURE
     1 NEA601      1 GROUP   
@<TRIPOS>SET

