#    Name: 1kt8_ILP_1_INTS_M
#    Modification time : Mon Apr  7 13:48:18 2014

@<TRIPOS>MOLECULE
1kt8_ILP_1_INTS_M
   64     0     9     0     0
SMALL
NO_CHARGES


@<TRIPOS>ATOM
      1 N          -8.6315   38.4900   15.6140 N.am      1 SEC2        0.0000 
      2 N          -7.2590   38.3530   15.3980 N.am      7 SEL2        0.0000 
      3 N         -10.0040   38.6270   15.8300 N.am      4 SEP2        0.0000 
      4 N          -7.9550   37.2270   15.3305 N.am      1 SEC2        0.0000 
      5 N          -8.6510   36.1010   15.2630 N.am      4 SEP2        0.0000 
      6 NZ         -4.3925   37.3000   14.1435 N.4       2 LYC4        0.0000 
      7 NZ         -5.7190   38.0010   13.5720 N.4       8 LYL4        0.0000 
      8 NZ         -2.2790   37.2180   13.8500 N.4       5 LYP4        0.0000 
      9 N          -4.2450   38.1305   13.3625 N.am      1 SEC2        0.0000 
     10 N          -5.7190   38.0010   13.5720 N.am      7 SEL2        0.0000 
     11 N          -2.7710   38.2600   13.1530 N.am      4 SEP2        0.0000 
     12 N          -4.3925   37.3000   14.1435 N.am      1 SEC2        0.0000 
     13 N          -3.0660   36.5990   14.7150 N.am      4 SEP2        0.0000 
     14 N          -5.6695   38.3510   12.1590 N.am      1 SEC2        0.0000 
     15 N          -5.6200   38.7010   10.7460 N.am      4 SEP2        0.0000 
     16 N          -6.0230   36.6680   13.6890 N.am      1 SEC2        0.0000 
     17 N          -6.3270   35.3350   13.8060 N.am      4 SEP2        0.0000 
     18 N          -8.0080   39.1380   11.7550 N.am      1 SEC2        0.0000 
     19 N          -7.6010   39.4690   13.1530 N.am      7 SEL2        0.0000 
     20 N          -8.4150   38.8070   10.3570 N.am      4 SEP2        0.0000 
     21 CA         -5.4525   41.0820   13.3245 C.3       3 GLC5        0.0000 
     22 CA         -6.2500   41.4090   15.1240 C.3       9 GLL5        0.0000 
     23 CA         -4.6550   40.7550   11.5250 C.3       6 GLP5        0.0000 
     24 CA         -8.1550   41.1995   15.1845 C.3       3 GLC5        0.0000 
     25 CA        -10.0600   40.9900   15.2450 C.3       6 GLP5        0.0000 
     26 CA         -3.5000   41.3500   15.2715 C.3       3 GLC5        0.0000 
     27 CA         -5.3250   42.0640   16.1080 C.3       9 GLL5        0.0000 
     28 CA         -1.6750   40.6360   14.4350 C.3       6 GLP5        0.0000 
     29 CA         -2.7755   43.0710   15.2955 C.3       3 GLC5        0.0000 
     30 CA         -4.7150   43.2220   15.7010 C.3       9 GLL5        0.0000 
     31 CA         -0.8360   42.9200   14.8900 C.3       6 GLP5        0.0000 
     32 CA         -2.2025   43.0850   20.3755 C.3       3 GLC5        0.0000 
     33 CA         -2.5740   44.2780   18.6050 C.3       9 GLL5        0.0000 
     34 CA         -1.8310   41.8920   22.1460 C.3       6 GLP5        0.0000 
     35 CA         -2.7245   46.2795   17.6365 C.3       3 GLC5        0.0000 
     36 CA         -2.8750   48.2810   16.6680 C.3       6 GLP5        0.0000 
     37 N          -2.5295   41.4575   19.7520 N.am      1 SEC2        0.0000 
     38 N          -3.8680   41.8630   19.4940 N.am      7 SEL2        0.0000 
     39 N          -1.1910   41.0520   20.0100 N.am      4 SEP2        0.0000 
     40 CA         -6.2495   41.5830   19.5065 C.3       3 GLC5        0.0000 
     41 CA         -5.8000   40.2440   17.9430 C.3       9 GLL5        0.0000 
     42 CA         -6.6990   42.9220   21.0700 C.3       6 GLP5        0.0000 
     43 CA         -3.1785   40.5430   21.5820 C.3       3 GLC5        0.0000 
     44 CA         -4.5260   39.1940   21.0180 C.3       9 GLL5        0.0000 
     45 CA         -5.1965   41.0980   21.7285 C.3       3 GLC5        0.0000 
     46 CA         -5.8670   43.0020   22.4390 C.3       6 GLP5        0.0000 
     47 N          -6.8320   35.5715   20.0915 N.am      1 SEC2        0.0000 
     48 N          -7.1780   36.3850   18.9540 N.am      7 SEL2        0.0000 
     49 N          -6.4860   34.7580   21.2290 N.am      4 SEP2        0.0000 
     50 CA         -6.6436   43.7181   16.2353 C.3       3 GLC5        0.0000 
     51 CA         -8.0360   44.9570   16.8120 C.3       6 GLP5        0.0000 
     52 CA         -4.7462   43.9988   19.1885 C.3       3 GLC5        0.0000 
     53 CA         -3.5630   43.4570   17.7830 C.3       9 GLL5        0.0000 
     54 CA         -6.4240   44.1300   20.1830 C.3       6 GLP5        0.0000 
     55 CA         -1.9522   43.3938   16.5420 C.3       3 GLC5        0.0000 
     56 CA         -5.5217   43.0202   19.0098 C.3       3 GLC5        0.0000 
     57 CA         -4.1540   42.2680   18.2520 C.3       9 GLL5        0.0000 
     58 CA         -3.4553   37.6762   21.3777 C.3       3 GLC5        0.0000 
     59 CA         -5.5810   38.2590   20.4510 C.3       9 GLL5        0.0000 
     60 CA         -1.8570   36.6260   22.0210 C.3       6 GLP5        0.0000 
     61 CA         -3.6696   37.8324   19.5265 C.3       3 GLC5        0.0000 
     62 CA         -2.3080   36.9860   18.7080 C.3       6 GLP5        0.0000 
     63 CA         -6.8890   40.8847   21.3640 C.3       3 GLC5        0.0000 
     64 CA         -7.0170   38.6120   20.9100 C.3       9 GLL5        0.0000 
@<TRIPOS>BOND
@<TRIPOS>SUBSTRUCTURE
     1 SEC2        1 GROUP        1 X    SEC  0     ROOT SEC X 2
     2 LYC4        6 GROUP        1 X    LYC  0     **** LYC X 4
     3 GLC5       21 GROUP        1 X    GLC  0     **** GLC X 6
     4 SEP2        3 GROUP        1 Y    SEP  0     ROOT SEP Y 9
     5 LYP4        8 GROUP        1 Y    LYP  0     **** LYP Y 11
     6 GLP5       23 GROUP        1 Y    GLP  0     **** GLP Y 13
     7 SEL2        2 GROUP        1 Z    SEL  0     ROOT SEL Z 16
     8 LYL4        7 GROUP        1 Z    LYL  0     **** LYL Z 18
     9 GLL5       22 GROUP        1 Z    GLL  0     **** GLL Z 20
@<TRIPOS>SET

