#    Name: 1kt8_ILP_1_ligand
#    Modification time : Mon Apr  7 13:48:18 2014

@<TRIPOS>MOLECULE
1kt8_ILP_1_ligand
   43    43     1     0     0
SMALL
NO_CHARGES


@<TRIPOS>ATOM
      1 P          -6.7130   39.0100   14.2240 P.3       1 ILP400      0.0000 
      2 O1P        -7.2590   38.3530   15.3980 O.co2     1 ILP400      0.0000 
      3 O2P        -5.7190   38.0010   13.5720 O.co2     1 ILP400      0.0000 
      4 O3P        -7.6010   39.4690   13.1530 O.co2     1 ILP400      0.0000 
      5 O4P        -5.7370   40.2120   14.6060 O.3       1 ILP400      0.0000 
      6 C5A        -6.2500   41.4090   15.1240 C.3       1 ILP400      0.0000 
      7 C5         -5.3250   42.0640   16.1080 C.ar      1 ILP400      0.0000 
      8 N1         -3.8470   43.8740   16.5360 N.ar      1 ILP400      0.0000 
      9 C6         -4.7150   43.2220   15.7010 C.ar      1 ILP400      0.0000 
     10 C2         -3.5630   43.4570   17.7830 C.ar      1 ILP400      0.0000 
     11 C2A        -2.5740   44.2780   18.6050 C.3       1 ILP400      0.0000 
     12 C3         -4.1540   42.2680   18.2520 C.ar      1 ILP400      0.0000 
     13 O3         -3.8680   41.8630   19.4940 O.3       1 ILP400      0.0000 
     14 C4         -5.0850   41.5530   17.4210 C.ar      1 ILP400      0.0000 
     15 C4A        -5.8000   40.2440   17.9430 C.3       1 ILP400      0.0000 
     16 N          -5.0380   39.0910   18.0810 N.4       1 ILP400      0.0000 
     17 CA         -5.4920   38.0680   18.8930 C.3       1 ILP400      0.0000 
     18 CB         -5.5810   38.2590   20.4510 C.3       1 ILP400      0.0000 
     19 CG2        -4.5260   39.1940   21.0180 C.3       1 ILP400      0.0000 
     20 CG1        -7.0170   38.6120   20.9100 C.3       1 ILP400      0.0000 
     21 CD1        -7.1410   39.0830   22.4060 C.3       1 ILP400      0.0000 
     22 C          -6.2310   36.8830   18.2680 C.2       1 ILP400      0.0000 
     23 O          -7.1780   36.3850   18.9540 O.co2     1 ILP400      0.0000 
     24 OXT        -5.9010   36.4640   17.1060 O.co2     1 ILP400      0.0000 
     25 H          -7.2280   41.2484   15.6358 H         1 ILP400      0.0000 
     26 H          -6.4611   42.1483   14.3159 H         1 ILP400      0.0000 
     27 H          -4.9116   43.6051   14.7581 H         1 ILP400      0.0000 
     28 H          -6.6817   40.0959   17.2463 H         1 ILP400      0.0000 
     29 H          -6.2959   40.5506   18.9150 H         1 ILP400      0.0000 
     30 H          -4.3080   37.3985   18.9682 H         1 ILP400      0.0000 
     31 H          -5.3716   37.2321   20.8831 H         1 ILP400      0.0000 
     32 H          -7.6638   37.7324   20.7744 H         1 ILP400      0.0000 
     33 H          -7.4133   39.4115   20.2665 H         1 ILP400      0.0000 
     34 H          -1.6791   44.3336   18.1621 H         1 ILP400      0.0000 
     35 H          -2.8926   45.2161   18.7408 H         1 ILP400      0.0000 
     36 H          -2.4280   43.8838   19.5124 H         1 ILP400      0.0000 
     37 H          -3.6001   38.8614   20.8389 H         1 ILP400      0.0000 
     38 H          -4.5901   40.1100   20.6220 H         1 ILP400      0.0000 
     39 H          -4.6142   39.2962   22.0088 H         1 ILP400      0.0000 
     40 H          -6.8270   38.3799   23.0440 H         1 ILP400      0.0000 
     41 H          -6.5975   39.9035   22.5833 H         1 ILP400      0.0000 
     42 H          -8.0863   39.2992   22.6502 H         1 ILP400      0.0000 
     43 H          -4.0487   42.6578   20.0733 H         1 ILP400      0.0000 
@<TRIPOS>BOND
     1    2    1 ar   
     2    3    1 ar   
     3    4    1 ar   
     4    5    1 1    
     5    6    5 1    
     6    7    6 1    
     7   25    6 1    
     8   26    6 1    
     9    9    7 ar   
    10   14    7 ar   
    11    9    8 ar   
    12   10    8 ar   
    13   27    9 1    
    14   11   10 1    
    15   12   10 ar   
    16   34   11 1    
    17   35   11 1    
    18   36   11 1    
    19   13   12 1    
    20   14   12 ar   
    21   43   13 1    
    22   15   14 1    
    23   16   15 1    
    24   28   15 1    
    25   29   15 1    
    26   17   16 1    
    27   18   17 1    
    28   22   17 1    
    29   30   17 1    
    30   19   18 1    
    31   20   18 1    
    32   31   18 1    
    33   37   19 1    
    34   38   19 1    
    35   39   19 1    
    36   21   20 1    
    37   32   20 1    
    38   33   20 1    
    39   40   21 1    
    40   41   21 1    
    41   42   21 1    
    42   23   22 ar   
    43   24   22 ar   
@<TRIPOS>SUBSTRUCTURE
     1 ILP400      1 GROUP   
@<TRIPOS>SET

