#    Name: 3EGK_1_CAVITY_N1_ALL.mol2
#    Modification time : Mon Mar 10 13:19:00 2014

@<TRIPOS>MOLECULE
3EGK_1_CAVITY_N1_ALL.mol2
  117     0     6     0     0
SMALL
NO_CHARGES


@<TRIPOS>ATOM
      1 OG         19.4406  -15.2785   22.4028 O.2       1 SER1        0.0000 
      2 CZ         18.9670  -15.7875   20.3986 C.ar      4 PHE5        0.0000 
      3 N          14.1717  -16.4263   22.8167 N.2       2 ALA2        0.0000 
      4 CA         11.6853  -17.2926   21.3789 C.3       5 GLY6        0.0000 
      5 DU         19.1058  -13.8444   22.1176 H         6 CUB7        0.0000 
      6 OG         19.8754  -13.9203   20.8324 O.2       1 SER1        0.0000 
      7 N          17.0930  -14.2017   22.6840 N.2       2 ALA2        0.0000 
      8 DU         17.8626  -14.2776   21.3988 H         6 CUB7        0.0000 
      9 CZ         18.6322  -14.3534   20.1135 C.ar      4 PHE5        0.0000 
     10 N          15.8498  -14.6349   21.9652 N.2       2 ALA2        0.0000 
     11 CZ         16.6194  -14.7107   20.6799 C.ar      4 PHE5        0.0000 
     12 N          14.6066  -15.0680   21.2463 N.2       2 ALA2        0.0000 
     13 CZ         15.3762  -15.1439   19.9610 C.ar      4 PHE5        0.0000 
     14 N          12.5937  -15.4254   21.8127 N.2       2 ALA2        0.0000 
     15 DU         13.3633  -15.5012   20.5274 H         6 CUB7        0.0000 
     16 CA         12.1201  -15.9344   19.8085 C.3       5 GLY6        0.0000 
     17 CA         18.7710  -12.4103   21.8325 C.3       5 GLY6        0.0000 
     18 CA         19.5406  -12.4862   20.5472 C.3       5 GLY6        0.0000 
     19 CZ         20.3103  -12.5620   19.2620 C.ar      4 PHE5        0.0000 
     20 CA         16.7582  -12.7676   22.3989 C.3       5 GLY6        0.0000 
     21 DU         17.5278  -12.8435   21.1136 H         6 CUB7        0.0000 
     22 CZ         18.2974  -12.9193   19.8284 C.ar      4 PHE5        0.0000 
     23 CZ         19.0671  -12.9952   18.5431 C.ar      4 PHE5        0.0000 
     24 N          15.5150  -13.2008   21.6800 N.2       2 ALA2        0.0000 
     25 DU         16.2846  -13.2767   20.3947 H         6 CUB7        0.0000 
     26 CZ         17.0542  -13.3525   19.1095 C.ar      4 PHE5        0.0000 
     27 N          13.5021  -13.5581   22.2464 N.2       2 ALA2        0.0000 
     28 N          14.2718  -13.6340   20.9611 N.2       2 ALA2        0.0000 
     29 DU         15.0414  -13.7098   19.6759 H         6 CUB7        0.0000 
     30 CZ         15.8110  -13.7857   18.3906 C.ar      4 PHE5        0.0000 
     31 CZ         18.8895  -14.0892   13.2495 C.ar      4 PHE5        0.0000 
     32 CZ         19.6591  -14.1650   11.9643 C.ar      4 PHE5        0.0000 
     33 N          12.2589  -13.9913   21.5275 N.2       2 ALA2        0.0000 
     34 DU         13.0285  -14.0671   20.2423 H         6 CUB7        0.0000 
     35 CA         13.7982  -14.1430   18.9570 C.3       5 GLY6        0.0000 
     36 CA         14.5678  -14.2189   17.6717 C.3       5 GLY6        0.0000 
     37 CA         11.7853  -14.5003   19.5234 C.3       5 GLY6        0.0000 
     38 CA         19.2058  -11.0521   20.2621 C.3       5 GLY6        0.0000 
     39 N          17.1930  -11.4094   20.8285 N.2       2 ALA2        0.0000 
     40 N          17.9626  -11.4853   19.5432 N.2       2 ALA2        0.0000 
     41 CA         18.7323  -11.5611   18.2579 C.3       5 GLY6        0.0000 
     42 CA         15.1802  -11.7667   21.3949 C.3       5 GLY6        0.0000 
     43 OG         15.9498  -11.8426   20.1096 O.2       1 SER1        0.0000 
     44 N          16.7194  -11.9184   18.8243 N.2       2 ALA2        0.0000 
     45 CZ         17.4890  -11.9943   17.5391 C.ar      4 PHE5        0.0000 
     46 CZ         18.2587  -12.0702   16.2538 C.ar      4 PHE5        0.0000 
     47 CZ         19.0283  -12.1460   14.9685 C.ar      4 PHE5        0.0000 
     48 OD1        19.7979  -12.2219   13.6833 O.3       3 ASP3        0.0000 
     49 O          12.3977  -12.0481   23.2466 O.2       2 ALA2        0.0000 
     50 O          13.1673  -12.1240   21.9613 O.2       2 ALA2        0.0000 
     51 DU         13.9369  -12.1999   20.6760 H         6 CUB7        0.0000 
     52 DU         14.7066  -12.2757   19.3907 H         6 CUB7        0.0000 
     53 DU         15.4762  -12.3516   18.1055 H         6 CUB7        0.0000 
     54 CZ         16.2458  -12.4275   16.8202 C.ar      4 PHE5        0.0000 
     55 CZ         17.0154  -12.5033   15.5349 C.ar      4 PHE5        0.0000 
     56 CZ         17.7851  -12.5792   14.2497 C.ar      4 PHE5        0.0000 
     57 OD1        18.5547  -12.6551   12.9644 O.3       3 ASP3        0.0000 
     58 CA         19.3243  -12.7310   11.6791 C.3       5 GLY6        0.0000 
     59 N          11.1545  -12.4813   22.5277 N.2       2 ALA2        0.0000 
     60 O          11.9241  -12.5572   21.2424 O.2       2 ALA2        0.0000 
     61 O          12.6937  -12.6330   19.9571 O.2       2 ALA2        0.0000 
     62 CA         13.4634  -12.7089   18.6719 C.3       5 GLY6        0.0000 
     63 CA         14.2330  -12.7848   17.3866 C.3       5 GLY6        0.0000 
     64 CA         15.0026  -12.8607   16.1013 C.3       5 GLY6        0.0000 
     65 CZ         15.7722  -12.9365   14.8161 C.ar      4 PHE5        0.0000 
     66 CZ         16.5419  -13.0124   13.5308 C.ar      4 PHE5        0.0000 
     67 DU         17.3115  -13.0883   12.2455 H         6 CUB7        0.0000 
     68 DU         18.0811  -13.1641   10.9602 H         6 CUB7        0.0000 
     69 CA         13.7594  -13.2938   15.3825 C.3       5 GLY6        0.0000 
     70 CA         14.5290  -13.3697   14.0972 C.3       5 GLY6        0.0000 
     71 CA         14.0757  -10.2567   22.3950 C.3       5 GLY6        0.0000 
     72 N          14.8454  -10.3326   21.1097 N.2       2 ALA2        0.0000 
     73 CA         17.9239  -10.6361   15.9687 C.3       5 GLY6        0.0000 
     74 O          12.0629  -10.6140   22.9614 O.2       2 ALA2        0.0000 
     75 O          12.8325  -10.6899   21.6761 O.2       2 ALA2        0.0000 
     76 OG         13.6021  -10.7658   20.3909 O.2       1 SER1        0.0000 
     77 OG         14.3718  -10.8417   19.1056 O.2       1 SER1        0.0000 
     78 OG         15.1414  -10.9175   17.8203 O.2       1 SER1        0.0000 
     79 OG         15.9110  -10.9934   16.5351 O.2       1 SER1        0.0000 
     80 OD1        16.6806  -11.0693   15.2498 O.3       3 ASP3        0.0000 
     81 OD1        17.4503  -11.1451   13.9645 O.3       3 ASP3        0.0000 
     82 OD1        18.2199  -11.2210   12.6793 O.3       3 ASP3        0.0000 
     83 CA         18.9895  -11.2969   11.3940 C.3       5 GLY6        0.0000 
     84 N          10.8197  -11.0472   22.2425 N.2       2 ALA2        0.0000 
     85 CA         11.5893  -11.1231   20.9573 C.3       5 GLY6        0.0000 
     86 O          12.3589  -11.1990   19.6720 O.2       2 ALA2        0.0000 
     87 CA         13.8982  -11.3507   17.1015 C.3       5 GLY6        0.0000 
     88 O          14.6678  -11.4266   15.8162 O.2       2 ALA2        0.0000 
     89 DU         15.4374  -11.5024   14.5309 H         6 CUB7        0.0000 
     90 DU         16.2071  -11.5783   13.2457 H         6 CUB7        0.0000 
     91 DU         16.9767  -11.6542   11.9604 H         6 CUB7        0.0000 
     92 DU         17.7463  -11.7300   10.6751 H         6 CUB7        0.0000 
     93 O          13.4246  -11.8597   15.0973 O.2       2 ALA2        0.0000 
     94 O          14.1942  -11.9356   13.8120 O.2       2 ALA2        0.0000 
     95 DU         14.9638  -12.0115   12.5268 H         6 CUB7        0.0000 
     96 DU         15.7335  -12.0873   11.2415 H         6 CUB7        0.0000 
     97 DU         16.5031  -12.1632    9.9562 H         6 CUB7        0.0000 
     98 O          12.9510  -12.3688   13.0932 O.2       2 ALA2        0.0000 
     99 O          13.7409   -8.8227   22.1099 O.2       2 ALA2        0.0000 
    100 CA         11.7281   -9.1800   22.6763 C.3       5 GLY6        0.0000 
    101 CA         12.4977   -9.2558   21.3910 C.3       5 GLY6        0.0000 
    102 OG         13.2673   -9.3317   20.1057 O.2       1 SER1        0.0000 
    103 CA         16.3458   -9.6352   14.9647 C.3       5 GLY6        0.0000 
    104 OD1        17.1155   -9.7110   13.6794 O.3       3 ASP3        0.0000 
    105 OD1        17.8851   -9.7869   12.3941 O.3       3 ASP3        0.0000 
    106 O          14.3330   -9.9925   15.5311 O.2       2 ALA2        0.0000 
    107 N          15.1026  -10.0683   14.2458 N.2       2 ALA2        0.0000 
    108 N          15.8723  -10.1442   12.9605 N.2       2 ALA2        0.0000 
    109 N          16.6419  -10.2201   11.6752 N.2       2 ALA2        0.0000 
    110 CA         17.4115  -10.2960   10.3900 C.3       5 GLY6        0.0000 
    111 O          13.8594  -10.5015   13.5269 O.2       2 ALA2        0.0000 
    112 N          14.6290  -10.5774   12.2416 N.2       2 ALA2        0.0000 
    113 N          15.3987  -10.6533   10.9564 N.2       2 ALA2        0.0000 
    114 N          16.1683  -10.7291    9.6711 N.2       2 ALA2        0.0000 
    115 CA         12.6162  -10.9347   12.8080 C.3       5 GLY6        0.0000 
    116 N          13.3858  -11.0106   11.5228 N.2       2 ALA2        0.0000 
    117 N          14.1554  -11.0864   10.2375 N.2       2 ALA2        0.0000 
@<TRIPOS>BOND
@<TRIPOS>SUBSTRUCTURE
     1 SER1        1 GROUP   
     2 ALA2        3 GROUP   
     3 ASP3       48 GROUP   
     4 PHE5        2 GROUP   
     5 GLY6        4 GROUP   
     6 CUB7        5 GROUP   
@<TRIPOS>SET

