#    Name: 3egk_M18_1_INTS_M
#    Modification time : Tue Mar 25 01:49:07 2014

@<TRIPOS>MOLECULE
3egk_M18_1_INTS_M
   60     0     6     0     0
SMALL
NO_CHARGES


@<TRIPOS>ATOM
      1 N          14.7780  -12.0150   23.4680 N.am      1 SEC2        0.0000 
      2 N          15.0840  -12.3190   22.1040 N.am      5 SEL2        0.0000 
      3 N          14.4720  -11.7110   24.8320 N.am      3 SEP2        0.0000 
      4 CA         17.5185  -11.6515   22.5675 C.3       2 GLC5        0.0000 
      5 CA         17.7270  -12.7070   20.6530 C.3       6 GLL5        0.0000 
      6 CA         17.3100  -10.5960   24.4820 C.3       4 GLP5        0.0000 
      7 CA         19.1505  -14.5710   18.9440 C.3       2 GLC5        0.0000 
      8 CA         19.9700  -13.7450   20.3340 C.3       6 GLL5        0.0000 
      9 CA         18.3310  -15.3970   17.5540 C.3       4 GLP5        0.0000 
     10 CA         19.1445  -16.3220   19.7735 C.3       2 GLC5        0.0000 
     11 CA         19.1740  -16.1940   21.6060 C.3       6 GLL5        0.0000 
     12 CA         19.1150  -16.4500   17.9410 C.3       4 GLP5        0.0000 
     13 CA         20.3770  -11.6360   23.2270 C.3       2 GLC5        0.0000 
     14 CA         19.7880  -13.1950   23.6880 C.3       6 GLL5        0.0000 
     15 CA         20.9660  -10.0770   22.7660 C.3       4 GLP5        0.0000 
     16 CA         18.5490  -11.8955   24.0850 C.3       2 GLC5        0.0000 
     17 CA         10.5985   -7.4555   23.4805 C.3       2 GLC5        0.0000 
     18 CA         12.1260   -7.6280   24.6940 C.3       6 GLL5        0.0000 
     19 CA          9.0710   -7.2830   22.2670 C.3       4 GLP5        0.0000 
     20 CA         12.1845   -6.6830   23.0760 C.3       2 GLC5        0.0000 
     21 CA         12.2430   -5.7380   21.4580 C.3       4 GLP5        0.0000 
     22 CA         13.3370   -7.4305   26.5475 C.3       2 GLC5        0.0000 
     23 CA         14.5480   -7.2330   28.4010 C.3       4 GLP5        0.0000 
     24 CA         11.2065   -6.1250   25.4305 C.3       2 GLC5        0.0000 
     25 CA         10.2870   -4.6220   26.1670 C.3       4 GLP5        0.0000 
     26 CA         14.6907  -10.1570   22.6643 C.3       2 GLC5        0.0000 
     27 CA         12.8970  -10.2950   21.7520 C.3       6 GLL5        0.0000 
     28 CA         15.9660   -9.9580   24.1380 C.3       4 GLP5        0.0000 
     29 CA         19.3343  -10.4940   19.1262 C.3       2 GLC5        0.0000 
     30 CA         18.7180  -11.7070   20.0080 C.3       6 GLL5        0.0000 
     31 CA         19.2450   -9.0290   18.0600 C.3       4 GLP5        0.0000 
     32 CA         18.1224  -13.8356   18.8295 C.3       2 GLC5        0.0000 
     33 CA         20.1947  -11.0180   21.4793 C.3       2 GLC5        0.0000 
     34 CA         21.6358  -13.4995   20.0448 C.3       2 GLC5        0.0000 
     35 CA         20.1290  -12.2110   20.3770 C.3       6 GLL5        0.0000 
     36 CA         23.2220  -14.0210   19.7340 C.3       4 GLP5        0.0000 
     37 CA         18.6025  -12.9857   26.4365 C.3       2 GLC5        0.0000 
     38 CA         19.9230  -13.3640   26.1210 C.3       6 GLL5        0.0000 
     39 CA         17.1230  -12.2550   27.4140 C.3       4 GLP5        0.0000 
     40 CA         20.5712  -14.7381   26.8483 C.3       2 GLC5        0.0000 
     41 CA         20.2410  -14.0690   24.7970 C.3       6 GLL5        0.0000 
     42 CA         20.2280  -15.4830   28.6280 C.3       4 GLP5        0.0000 
     43 CA         10.7820   -8.1977   22.6973 C.3       2 GLC5        0.0000 
     44 CA         12.9510   -9.1850   22.6030 C.3       6 GLL5        0.0000 
     45 CA         12.3680   -7.4253   22.2927 C.3       2 GLC5        0.0000 
     46 CA         12.0350   -9.0400   23.6520 C.3       6 GLL5        0.0000 
     47 CA         14.2295   -9.5352   23.6328 C.3       2 GLC5        0.0000 
     48 CA         12.5710  -10.9975   24.7213 C.3       2 GLC5        0.0000 
     49 CA         13.6160  -12.4840   25.7090 C.3       4 GLP5        0.0000 
     50 CA         10.0328   -8.9125   22.8323 C.3       2 GLC5        0.0000 
     51 CA         11.0170   -9.9820   23.8150 C.3       6 GLL5        0.0000 
     52 CA         11.3569   -9.0030   25.8860 C.3       2 GLC5        0.0000 
     53 CA         11.1650   -8.8480   27.7780 C.3       4 GLP5        0.0000 
     54 CA         10.2744  -10.9811   21.1623 C.3       2 GLC5        0.0000 
     55 CA         10.9720  -11.1020   22.9800 C.3       6 GLL5        0.0000 
     56 CA          8.8580  -11.0180   19.9060 C.3       4 GLP5        0.0000 
     57 CA         12.5315  -11.8370   24.0900 C.3       2 GLC5        0.0000 
     58 CA         11.9220  -11.2780   21.9620 C.3       6 GLL5        0.0000 
     59 CA         10.1235  -12.6810   21.7355 C.3       2 GLC5        0.0000 
     60 CA          8.8000  -14.1720   21.0000 C.3       4 GLP5        0.0000 
@<TRIPOS>BOND
@<TRIPOS>SUBSTRUCTURE
     1 SEC2        1 GROUP        1 X    SEC  0     ROOT SEC X 2
     2 GLC5        4 GROUP        1 X    GLC  0     **** GLC X 6
     3 SEP2        3 GROUP        1 Y    SEP  0     ROOT SEP Y 9
     4 GLP5        6 GROUP        1 Y    GLP  0     **** GLP Y 13
     5 SEL2        2 GROUP        1 Z    SEL  0     ROOT SEL Z 16
     6 GLL5        5 GROUP        1 Z    GLL  0     **** GLL Z 20
@<TRIPOS>SET

