#    Name: 3egk_M18_1_ligand
#    Modification time : Tue Mar 25 01:49:07 2014

@<TRIPOS>MOLECULE
3egk_M18_1_ligand
   55    56     1     0     0
SMALL
NO_CHARGES


@<TRIPOS>ATOM
      1 C1         13.9340  -10.4170   20.6290 C.3       1 M18601      0.0000 
      2 C2         14.9190  -11.5260   20.8010 C.2       1 M18601      0.0000 
      3 O1         15.0840  -12.3190   22.1040 O.2       1 M18601      0.0000 
      4 O2         15.6860  -11.7850   19.6640 O.3       1 M18601      0.0000 
      5 C3         16.4920  -12.9760   19.7510 C.3       1 M18601      0.0000 
      6 C4         17.7270  -12.7070   20.6530 C.3       1 M18601      0.0000 
      7 C5         18.7180  -11.7070   20.0080 C.3       1 M18601      0.0000 
      8 C6         20.1290  -12.2110   20.3770 C.3       1 M18601      0.0000 
      9 C7         19.9700  -13.7450   20.3340 C.3       1 M18601      0.0000 
     10 N1         18.5810  -13.8930   20.7550 N.am      1 M18601      0.0000 
     11 C8         18.2180  -15.0190   21.4400 C.2       1 M18601      0.0000 
     12 C9         19.1740  -16.1940   21.6060 C.3       1 M18601      0.0000 
     13 N2         19.9790  -16.0540   22.8170 N.am      1 M18601      0.0000 
     14 C10        19.3760  -16.1830   24.0180 C.2       1 M18601      0.0000 
     15 O3         19.7330  -15.2940   24.9400 O.3       1 M18601      0.0000 
     16 C11        20.2410  -14.0690   24.7970 C.3       1 M18601      0.0000 
     17 C12        19.9230  -13.3640   26.1210 C.3       1 M18601      0.0000 
     18 C13        21.7470  -14.2700   24.6780 C.3       1 M18601      0.0000 
     19 C14        19.7880  -13.1950   23.6880 C.3       1 M18601      0.0000 
     20 O4         18.5540  -17.0720   24.2370 O.2       1 M18601      0.0000 
     21 O5         17.3360  -14.9830   22.2930 O.2       1 M18601      0.0000 
     22 C15        12.8970  -10.2950   21.7520 C.ar      1 M18601      0.0000 
     23 C16        12.9510   -9.1850   22.6030 C.ar      1 M18601      0.0000 
     24 C17        12.0350   -9.0400   23.6520 C.ar      1 M18601      0.0000 
     25 CL1        12.1260   -7.6280   24.6940 Cl        1 M18601      0.0000 
     26 C18        11.0170   -9.9820   23.8150 C.ar      1 M18601      0.0000 
     27 C19        10.9720  -11.1020   22.9800 C.ar      1 M18601      0.0000 
     28 C20        11.9220  -11.2780   21.9620 C.ar      1 M18601      0.0000 
     29 H          13.3905  -10.5450   19.6700 H         1 M18601      0.0000 
     30 H          14.4709   -9.4491   20.5486 H         1 M18601      0.0000 
     31 H          16.8644  -13.2875   18.7730 H         1 M18601      0.0000 
     32 H          15.9410  -13.8087   20.1928 H         1 M18601      0.0000 
     33 H          17.4540  -12.3535   21.5928 H         1 M18601      0.0000 
     34 H          18.5642  -10.7390   20.4236 H         1 M18601      0.0000 
     35 H          18.5981  -11.7229   18.9503 H         1 M18601      0.0000 
     36 H          20.3701  -11.9062   21.3563 H         1 M18601      0.0000 
     37 H          20.8190  -11.9046   19.6421 H         1 M18601      0.0000 
     38 H          20.6414  -14.1714   21.0296 H         1 M18601      0.0000 
     39 H          20.1184  -14.0698   19.3396 H         1 M18601      0.0000 
     40 H          19.8156  -16.2436   20.7156 H         1 M18601      0.0000 
     41 H          18.5807  -17.1181   21.6376 H         1 M18601      0.0000 
     42 H          20.9707  -15.8632   22.7038 H         1 M18601      0.0000 
     43 H          13.6742   -8.4651   22.4558 H         1 M18601      0.0000 
     44 H          10.3077   -9.8535   24.5415 H         1 M18601      0.0000 
     45 H          10.2333  -11.8085   23.1114 H         1 M18601      0.0000 
     46 H          11.9012  -12.1164   21.3801 H         1 M18601      0.0000 
     47 H          20.3361  -13.8344   26.9008 H         1 M18601      0.0000 
     48 H          20.2631  -12.4237   26.1321 H         1 M18601      0.0000 
     49 H          18.9387  -13.3217   26.2921 H         1 M18601      0.0000 
     50 H          22.2298  -13.4016   24.5645 H         1 M18601      0.0000 
     51 H          22.1278  -14.7131   25.4895 H         1 M18601      0.0000 
     52 H          21.9844  -14.8422   23.8930 H         1 M18601      0.0000 
     53 H          20.2508  -12.3086   23.7009 H         1 M18601      0.0000 
     54 H          19.9670  -13.6062   22.7942 H         1 M18601      0.0000 
     55 H          18.8058  -13.0135   23.7357 H         1 M18601      0.0000 
@<TRIPOS>BOND
     1    2    1 1    
     2   22    1 1    
     3   29    1 1    
     4   30    1 1    
     5    3    2 2    
     6    4    2 1    
     7    5    4 1    
     8    6    5 1    
     9   31    5 1    
    10   32    5 1    
    11    7    6 1    
    12   10    6 1    
    13   33    6 1    
    14    8    7 1    
    15   34    7 1    
    16   35    7 1    
    17    9    8 1    
    18   36    8 1    
    19   37    8 1    
    20   10    9 1    
    21   38    9 1    
    22   39    9 1    
    23   11   10 am   
    24   12   11 1    
    25   21   11 2    
    26   13   12 1    
    27   40   12 1    
    28   41   12 1    
    29   14   13 am   
    30   42   13 1    
    31   15   14 1    
    32   20   14 2    
    33   16   15 1    
    34   17   16 1    
    35   18   16 1    
    36   19   16 1    
    37   47   17 1    
    38   48   17 1    
    39   49   17 1    
    40   50   18 1    
    41   51   18 1    
    42   52   18 1    
    43   53   19 1    
    44   54   19 1    
    45   55   19 1    
    46   23   22 ar   
    47   28   22 ar   
    48   24   23 ar   
    49   43   23 1    
    50   25   24 1    
    51   26   24 ar   
    52   27   26 ar   
    53   44   26 1    
    54   28   27 ar   
    55   45   27 1    
    56   46   28 1    
@<TRIPOS>SUBSTRUCTURE
     1 M18601      1 GROUP   
@<TRIPOS>SET

