#    Name: 3tfj_THG_1_INTS_M
#    Modification time : Mon Mar 24 20:00:15 2014

@<TRIPOS>MOLECULE
3tfj_THG_1_INTS_M
   47     0     9     0     0
SMALL
NO_CHARGES


@<TRIPOS>ATOM
      1 O          13.2395    7.3275   11.3680 O.2       1 ALC1        0.0000 
      2 O          12.8610    6.4830   12.4410 O.2       7 ALL1        0.0000 
      3 O          13.6180    8.1720   10.2950 O.2       4 ALP1        0.0000 
      4 N          10.4490    4.4770   11.0375 N.am      2 SEC2        0.0000 
      5 N          11.1920    4.8170   12.2010 N.am      8 SEL2        0.0000 
      6 N           9.7060    4.1370    9.8740 N.am      5 SEP2        0.0000 
      7 CA         10.3925    5.8445   13.9630 C.3       3 GLC5        0.0000 
      8 CA         11.4920    4.1200   13.3330 C.3       9 GLL5        0.0000 
      9 CA          9.2930    7.5690   14.5930 C.3       6 GLP5        0.0000 
     10 CA          9.9315    4.2840   11.7685 C.3       3 GLC5        0.0000 
     11 CA          8.3710    4.4480   10.2040 C.3       6 GLP5        0.0000 
     12 O           9.5165    3.0200   13.2085 O.2       1 ALC1        0.0000 
     13 O          10.8610    3.0040   13.6650 O.2       7 ALL1        0.0000 
     14 O           8.1720    3.0360   12.7520 O.2       4 ALP1        0.0000 
     15 CA         12.8285    1.9100   12.6390 C.3       3 GLC5        0.0000 
     16 CA         11.6280    2.0250   14.4800 C.3       9 GLL5        0.0000 
     17 CA         14.0290    1.7950   10.7980 C.3       6 GLP5        0.0000 
     18 CA          9.8480    1.1245   13.6100 C.3       3 GLC5        0.0000 
     19 CA          8.0680    0.2240   12.7400 C.3       6 GLP5        0.0000 
     20 CA         11.0390    0.3980   14.9100 C.3       3 GLC5        0.0000 
     21 CA         10.4500   -1.2290   15.3400 C.3       6 GLP5        0.0000 
     22 CA         13.9945    3.9470   16.4170 C.3       3 GLC5        0.0000 
     23 CA         12.3270    2.7250   15.6430 C.3       9 GLL5        0.0000 
     24 CA         15.6620    5.1690   17.1910 C.3       6 GLP5        0.0000 
     25 CA         14.5380    7.7870   19.7330 C.3       3 GLC5        0.0000 
     26 CA         12.8190    7.1470   19.0140 C.3       9 GLL5        0.0000 
     27 CA         16.2570    8.4270   20.4520 C.3       6 GLP5        0.0000 
     28 CA          9.0085   10.4100   19.3565 C.3       3 GLC5        0.0000 
     29 CA         10.8100   11.5450   19.7870 C.3       9 GLL5        0.0000 
     30 CA          7.2070    9.2750   18.9260 C.3       6 GLP5        0.0000 
     31 CA         11.3205   14.0950   18.0275 C.3       3 GLC5        0.0000 
     32 CA         10.4540   12.9160   19.2580 C.3       9 GLL5        0.0000 
     33 CA         12.1870   15.2740   16.7970 C.3       6 GLP5        0.0000 
     34 N           8.5445   12.0815   21.8730 N.am      2 SEC2        0.0000 
     35 N           8.6300   12.6930   20.7430 N.am      8 SEL2        0.0000 
     36 N           8.4590   11.4700   23.0030 N.am      5 SEP2        0.0000 
     37 O          10.5285    5.3335   10.2865 O.2       1 ALC1        0.0000 
     38 O          11.3510    6.5300   10.6990 O.2       7 ALL1        0.0000 
     39 O           9.7060    4.1370    9.8740 O.2       4 ALP1        0.0000 
     40 O          12.4845    7.3510   10.4970 O.2       1 ALC1        0.0000 
     41 CA         13.0550    3.0682   12.2475 C.3       3 GLC5        0.0000 
     42 CA         11.0643    1.0190   16.4653 C.3       3 GLC5        0.0000 
     43 CA         10.3490   -0.9220   16.8120 C.3       6 GLP5        0.0000 
     44 CA         10.5595    7.1630   15.6610 C.3       3 GLC5        0.0000 
     45 CA         11.7110    6.0740   16.6830 C.3       9 GLL5        0.0000 
     46 CA         10.4540   11.7423   17.5478 C.3       3 GLC5        0.0000 
     47 CA         10.2760   11.2540   15.5730 C.3       6 GLP5        0.0000 
@<TRIPOS>BOND
@<TRIPOS>SUBSTRUCTURE
     1 ALC1        1 GROUP        1 X    ALC  0     ROOT ALC X 1
     2 SEC2        4 GROUP        1 X    SEC  0     **** SEC X 2
     3 GLC5        7 GROUP        1 X    GLC  0     **** GLC X 6
     4 ALP1        3 GROUP        1 Y    ALP  0     ROOT ALP Y 8
     5 SEP2        6 GROUP        1 Y    SEP  0     **** SEP Y 9
     6 GLP5        9 GROUP        1 Y    GLP  0     **** GLP Y 13
     7 ALL1        2 GROUP        1 Z    ALL  0     ROOT ALL Z 15
     8 SEL2        5 GROUP        1 Z    SEL  0     **** SEL Z 16
     9 GLL5        8 GROUP        1 Z    GLL  0     **** GLL Z 20
@<TRIPOS>SET

