#    Name: 3tfj_THG_1_ligand
#    Modification time : Mon Mar 24 20:00:16 2014

@<TRIPOS>MOLECULE
3tfj_THG_1_ligand
   52    54     1     0     0
SMALL
NO_CHARGES


@<TRIPOS>ATOM
      1 N3         12.8610    6.4830   12.4410 N.am      1 THG370      0.0000 
      2 C2         11.8070    5.9520   11.7990 C.2       1 THG370      0.0000 
      3 N1         11.1920    4.8170   12.2010 N.2       1 THG370      0.0000 
      4 C8A        11.4920    4.1200   13.3330 C.2       1 THG370      0.0000 
      5 C4A        12.6700    4.5630   14.0610 C.2       1 THG370      0.0000 
      6 C4         13.3110    5.8120   13.5620 C.2       1 THG370      0.0000 
      7 N8         10.8610    3.0040   13.6650 N.pl3     1 THG370      0.0000 
      8 C7         11.6280    2.0250   14.4800 C.3       1 THG370      0.0000 
      9 C6         12.3270    2.7250   15.6430 C.3       1 THG370      0.0000 
     10 N5         13.0750    3.8900   15.1820 N.3       1 THG370      0.0000 
     11 C9         11.2320    3.1950   16.5940 C.3       1 THG370      0.0000 
     12 N10        11.8360    3.8920   17.7310 N.pl3     1 THG370      0.0000 
     13 C4'        12.0440    5.2620   17.7480 C.ar      1 THG370      0.0000 
     14 C3'        12.5940    5.7990   18.9000 C.ar      1 THG370      0.0000 
     15 C2'        12.8190    7.1470   19.0140 C.ar      1 THG370      0.0000 
     16 C1'        12.4950    7.9450   17.9280 C.ar      1 THG370      0.0000 
     17 C6'        11.9410    7.4400   16.7750 C.ar      1 THG370      0.0000 
     18 C5'        11.7110    6.0740   16.6830 C.ar      1 THG370      0.0000 
     19 C11        12.7320    9.3850   18.0440 C.2       1 THG370      0.0000 
     20 N          12.2890    9.8750   19.2070 N.am      1 THG370      0.0000 
     21 CA         12.2950   11.2490   19.6290 C.3       1 THG370      0.0000 
     22 C          12.9970   11.4290   20.9760 C.2       1 THG370      0.0000 
     23 OX2        13.7400   12.4370   21.2210 O.co2     1 THG370      0.0000 
     24 OX1        12.7890   10.5420   21.8480 O.co2     1 THG370      0.0000 
     25 CB         10.8100   11.5450   19.7870 C.3       1 THG370      0.0000 
     26 CG         10.4540   12.9160   19.2580 C.3       1 THG370      0.0000 
     27 CD          9.0270   13.1430   19.6530 C.2       1 THG370      0.0000 
     28 OE1         8.2960   13.7760   18.8770 O.co2     1 THG370      0.0000 
     29 OE2         8.6300   12.6930   20.7430 O.co2     1 THG370      0.0000 
     30 O11        13.2830    9.9540   17.0970 O.2       1 THG370      0.0000 
     31 O4         14.2880    6.2400   14.2080 O.2       1 THG370      0.0000 
     32 N2         11.3510    6.5300   10.6990 N.pl3     1 THG370      0.0000 
     33 H          13.3182    7.3362   12.1319 H         1 THG370      0.0000 
     34 H           9.9212    2.7594   13.4199 H         1 THG370      0.0000 
     35 H          12.3835    1.5305   13.8649 H         1 THG370      0.0000 
     36 H          10.9584    1.2617   14.8832 H         1 THG370      0.0000 
     37 H          12.9434    2.0295   16.1514 H         1 THG370      0.0000 
     38 H          10.6672    2.3231   16.9279 H         1 THG370      0.0000 
     39 H          10.5589    3.8560   16.0456 H         1 THG370      0.0000 
     40 H          12.1089    3.3065   18.5433 H         1 THG370      0.0000 
     41 H          12.8381    5.1655   19.6873 H         1 THG370      0.0000 
     42 H          13.2082    7.5522   19.8596 H         1 THG370      0.0000 
     43 H          11.7000    8.0564   15.9939 H         1 THG370      0.0000 
     44 H          11.2987    5.6771   15.8328 H         1 THG370      0.0000 
     45 H          11.8737    9.1923   19.9352 H         1 THG370      0.0000 
     46 H          12.6929   11.8880   18.9036 H         1 THG370      0.0000 
     47 H          10.5441   11.4828   20.8472 H         1 THG370      0.0000 
     48 H          10.2349   10.7854   19.2478 H         1 THG370      0.0000 
     49 H          10.5486   12.9257   18.1896 H         1 THG370      0.0000 
     50 H          11.0861   13.6532   19.7134 H         1 THG370      0.0000 
     51 H          10.5614    6.0936   10.2676 H         1 THG370      0.0000 
     52 H          11.8374    7.3506   10.3991 H         1 THG370      0.0000 
@<TRIPOS>BOND
     1    2    1 1    
     2    6    1 am   
     3   33    1 1    
     4    3    2 2    
     5   32    2 1    
     6    4    3 1    
     7    5    4 2    
     8    7    4 1    
     9    6    5 1    
    10   10    5 1    
    11   31    6 2    
    12    8    7 1    
    13   34    7 1    
    14    9    8 1    
    15   35    8 1    
    16   36    8 1    
    17   10    9 1    
    18   11    9 1    
    19   37    9 1    
    20   12   11 1    
    21   38   11 1    
    22   39   11 1    
    23   13   12 1    
    24   40   12 1    
    25   14   13 ar   
    26   18   13 ar   
    27   15   14 ar   
    28   41   14 1    
    29   16   15 ar   
    30   42   15 1    
    31   17   16 ar   
    32   19   16 1    
    33   18   17 ar   
    34   43   17 1    
    35   44   18 1    
    36   20   19 am   
    37   30   19 2    
    38   21   20 1    
    39   45   20 1    
    40   22   21 1    
    41   25   21 1    
    42   46   21 1    
    43   23   22 ar   
    44   24   22 ar   
    45   26   25 1    
    46   47   25 1    
    47   48   25 1    
    48   27   26 1    
    49   49   26 1    
    50   50   26 1    
    51   28   27 ar   
    52   29   27 ar   
    53   51   32 1    
    54   52   32 1    
@<TRIPOS>SUBSTRUCTURE
     1 THG370      1 GROUP   
@<TRIPOS>SET

