#    Name: 3ump_ATP_1_INTS_M
#    Modification time : Mon Mar 24 22:59:32 2014

@<TRIPOS>MOLECULE
3ump_ATP_1_INTS_M
   92     0    15     0     0
SMALL
NO_CHARGES


@<TRIPOS>ATOM
      1 NZ         11.8780   58.7150   17.1425 N.4       3 LYC4        0.0000 
      2 NZ         12.4950   60.0390   17.4880 N.4      13 LYL4        0.0000 
      3 NZ         11.2610   57.3910   16.7970 N.4       8 LYP4        0.0000 
      4 Zn         11.6780   60.6370   17.7830 Zn        4 ZIC7        0.0000 
      5 Zn         12.4950   60.0390   17.4880 Zn       14 ZIL7        0.0000 
      6 Zn         10.8610   61.2350   18.0780 Zn        9 ZIP7        0.0000 
      7 N          11.8780   58.7150   17.1425 N.am      2 SEC2        0.0000 
      8 N          12.4950   60.0390   17.4880 N.am     12 SEL2        0.0000 
      9 N          11.2610   57.3910   16.7970 N.am      7 SEP2        0.0000 
     10 N          15.3255   61.2670   17.2540 N.am      2 SEC2        0.0000 
     11 N          14.7860   59.8980   16.7680 N.am     12 SEL2        0.0000 
     12 N          15.8650   62.6360   17.7400 N.am      7 SEP2        0.0000 
     13 NZ         12.1430   58.3820   15.9580 N.4       3 LYC4        0.0000 
     14 NZ         13.0250   59.3730   15.1190 N.4      13 LYL4        0.0000 
     15 Zn         12.4125   59.7140   14.3345 Zn        4 ZIC7        0.0000 
     16 Zn         13.0250   59.3730   15.1190 Zn       14 ZIL7        0.0000 
     17 Zn         11.8000   60.0550   13.5500 Zn        9 ZIP7        0.0000 
     18 N          12.1430   58.3820   15.9580 N.am      2 SEC2        0.0000 
     19 N          13.0250   59.3730   15.1190 N.am     12 SEL2        0.0000 
     20 Zn         11.6065   60.9580   13.9165 Zn        4 ZIC7        0.0000 
     21 Zn         11.4130   61.8610   14.2830 Zn       14 ZIL7        0.0000 
     22 N           9.9105   61.7660   14.0880 N.am      2 SEC2        0.0000 
     23 N          11.4130   61.8610   14.2830 N.am     12 SEL2        0.0000 
     24 N           8.4080   61.6710   13.8930 N.am      7 SEP2        0.0000 
     25 NZ         10.7725   63.8925   17.4125 N.4       3 LYC4        0.0000 
     26 NZ         11.2240   62.6970   16.7810 N.4      13 LYL4        0.0000 
     27 NZ         10.3210   65.0880   18.0440 N.4       8 LYP4        0.0000 
     28 Zn         11.0425   61.9660   17.4295 Zn        4 ZIC7        0.0000 
     29 Zn         11.2240   62.6970   16.7810 Zn       14 ZIL7        0.0000 
     30 N          10.7725   63.8925   17.4125 N.am      2 SEC2        0.0000 
     31 N          11.2240   62.6970   16.7810 N.am     12 SEL2        0.0000 
     32 N          10.3210   65.0880   18.0440 N.am      7 SEP2        0.0000 
     33 N          11.8385   66.1505   14.4380 N.am      2 SEC2        0.0000 
     34 N          12.7340   65.7450   13.3720 N.am     12 SEL2        0.0000 
     35 N          10.9430   66.5560   15.5040 N.am      7 SEP2        0.0000 
     36 N          12.8565   66.2395   12.0935 N.am      2 SEC2        0.0000 
     37 N          12.9790   66.7340   10.8150 N.am      7 SEP2        0.0000 
     38 N          11.7905   65.2610   15.3090 N.am      2 SEC2        0.0000 
     39 N          12.6380   63.9660   15.1140 N.am     12 SEL2        0.0000 
     40 CA         13.3050   66.8420   15.3505 C.3       5 GLC5        0.0000 
     41 CA         15.1090   65.8300   15.3330 C.3      15 GLL5        0.0000 
     42 CA         11.5010   67.8540   15.3680 C.3      10 GLP5        0.0000 
     43 CA         14.9355   64.5225   16.9180 C.3       5 GLC5        0.0000 
     44 CA         14.7620   63.2150   18.5030 C.3      10 GLP5        0.0000 
     45 CA         14.5975   67.3185   16.5635 C.3       5 GLC5        0.0000 
     46 CA         14.0860   68.8070   17.7940 C.3      10 GLP5        0.0000 
     47 CA         17.8250   66.7895   15.9875 C.3       5 GLC5        0.0000 
     48 CA         16.1180   66.8310   14.9610 C.3      15 GLL5        0.0000 
     49 CA         19.5320   66.7480   17.0140 C.3      10 GLP5        0.0000 
     50 CA         14.9155   66.7635   11.9930 C.3       5 GLC5        0.0000 
     51 CA         15.7720   67.5840   13.7500 C.3      15 GLL5        0.0000 
     52 CA         14.0590   65.9430   10.2360 C.3      10 GLP5        0.0000 
     53 O          14.2305   69.4610   13.2820 O.2       1 ALC1        0.0000 
     54 O          15.0070   68.6860   14.0450 O.2      11 ALL1        0.0000 
     55 O          13.4540   70.2360   12.5190 O.2       6 ALP1        0.0000 
     56 CA         16.1595   69.6765   12.2900 C.3       5 GLC5        0.0000 
     57 CA         17.0920   67.9610   13.2040 C.3      15 GLL5        0.0000 
     58 CA         15.2270   71.3920   11.3760 C.3      10 GLP5        0.0000 
     59 O          19.0140   68.9550   13.3575 O.2       1 ALC1        0.0000 
     60 O          17.6720   68.9340   13.9720 O.2      11 ALL1        0.0000 
     61 O          20.3560   68.9760   12.7430 O.2       6 ALP1        0.0000 
     62 CA         17.8130   64.7655   14.3530 C.3       5 GLC5        0.0000 
     63 CA         17.8680   66.7320   13.4100 C.3      15 GLL5        0.0000 
     64 CA         17.7580   62.7990   15.2960 C.3      10 GLP5        0.0000 
     65 CA         18.7000   66.7400   15.2120 C.3       5 GLC5        0.0000 
     66 CA         19.7815   67.0475   13.6870 C.3       5 GLC5        0.0000 
     67 CA         21.6950   67.3630   13.9640 C.3      10 GLP5        0.0000 
     68 CA         19.3810   65.1570   12.9940 C.3       5 GLC5        0.0000 
     69 CA         20.8940   63.5820   12.5780 C.3      10 GLP5        0.0000 
     70 CA         16.1350   65.4665   10.2615 C.3       5 GLC5        0.0000 
     71 CA         18.2110   64.9900   10.2870 C.3      15 GLL5        0.0000 
     72 CA         20.5345   63.8250    8.5775 C.3       5 GLC5        0.0000 
     73 CA         18.8670   64.9170    9.0550 C.3      15 GLL5        0.0000 
     74 CA         22.2020   62.7330    8.1000 C.3      10 GLP5        0.0000 
     75 CA         18.3990   67.1465    8.7505 C.3       5 GLC5        0.0000 
     76 CA         20.1240   66.8140    9.6200 C.3      15 GLL5        0.0000 
     77 CA         16.6740   67.4790    7.8810 C.3      10 GLP5        0.0000 
     78 CA         19.6935   68.8335    9.7835 C.3       5 GLC5        0.0000 
     79 CA         19.2630   70.8530    9.9470 C.3      10 GLP5        0.0000 
     80 CA         20.9045   67.7300   11.3750 C.3       5 GLC5        0.0000 
     81 CA         21.6850   68.6460   13.1300 C.3      10 GLP5        0.0000 
     82 CA         20.5090   65.1980   11.0990 C.3       5 GLC5        0.0000 
     83 N          19.9375   67.9445   11.7755 N.am      2 SEC2        0.0000 
     84 N          19.5190   66.9130   10.8080 N.am     12 SEL2        0.0000 
     85 N          20.3560   68.9760   12.7430 N.am      7 SEP2        0.0000 
     86 CA         20.1335   66.6910   12.5585 C.3       5 GLC5        0.0000 
     87 CA         18.5720   66.0190   11.1530 C.3      15 GLL5        0.0000 
     88 CA         16.6857   64.5648   15.2215 C.3       5 GLC5        0.0000 
     89 CA         15.5565   68.5853   15.6582 C.3       5 GLC5        0.0000 
     90 CA         15.1680   69.9630   16.9610 C.3      10 GLP5        0.0000 
     91 CA         17.6147   66.4826    9.1465 C.3       5 GLC5        0.0000 
     92 CA         19.7247   64.5341   11.4950 C.3       5 GLC5        0.0000 
@<TRIPOS>BOND
@<TRIPOS>SUBSTRUCTURE
     1 ALC1       53 GROUP        1 X    ALC  0     ROOT ALC X 1
     2 SEC2        7 GROUP        1 X    SEC  0     **** SEC X 2
     3 LYC4        1 GROUP        1 X    LYC  0     **** LYC X 4
     4 ZIC7        4 GROUP        1 X    ZIC  0     **** ZIC X 5
     5 GLC5       40 GROUP        1 X    GLC  0     **** GLC X 6
     6 ALP1       55 GROUP        1 Y    ALP  0     ROOT ALP Y 8
     7 SEP2        9 GROUP        1 Y    SEP  0     **** SEP Y 9
     8 LYP4        3 GROUP        1 Y    LYP  0     **** LYP Y 11
     9 ZIP7        6 GROUP        1 Y    ZIP  0     **** ZIP Y 12
    10 GLP5       42 GROUP        1 Y    GLP  0     **** GLP Y 13
    11 ALL1       54 GROUP        1 Z    ALL  0     ROOT ALL Z 15
    12 SEL2        8 GROUP        1 Z    SEL  0     **** SEL Z 16
    13 LYL4        2 GROUP        1 Z    LYL  0     **** LYL Z 18
    14 ZIL7        5 GROUP        1 Z    ZIL  0     **** ZIL Z 19
    15 GLL5       41 GROUP        1 Z    GLL  0     **** GLL Z 20
@<TRIPOS>SET

