#    Name: 3ump_ATP_1_ligand
#    Modification time : Mon Mar 24 22:59:32 2014

@<TRIPOS>MOLECULE
3ump_ATP_1_ligand
   43    45     1     0     0
SMALL
NO_CHARGES


@<TRIPOS>ATOM
      1 PG         13.3670   60.2200   16.2880 P.3       1 ATP313      0.0000 
      2 O1G        12.4950   60.0390   17.4880 O.co2     1 ATP313      0.0000 
      3 O2G        14.7860   59.8980   16.7680 O.co2     1 ATP313      0.0000 
      4 O3G        13.0250   59.3730   15.1190 O.co2     1 ATP313      0.0000 
      5 PB         12.1060   62.5210   15.5120 P.3       1 ATP313      0.0000 
      6 O1B        11.4130   61.8610   14.2830 O.co2     1 ATP313      0.0000 
      7 O2B        11.2240   62.6970   16.7810 O.co2     1 ATP313      0.0000 
      8 O3B        13.4210   61.7130   15.8940 O.3       1 ATP313      0.0000 
      9 PA         13.4030   64.4790   13.8650 P.3       1 ATP313      0.0000 
     10 O1A        13.5420   63.4080   12.8100 O.co2     1 ATP313      0.0000 
     11 O2A        12.7340   65.7450   13.3720 O.co2     1 ATP313      0.0000 
     12 O3A        12.6380   63.9660   15.1140 O.3       1 ATP313      0.0000 
     13 O5'        14.8880   64.8000   14.4230 O.3       1 ATP313      0.0000 
     14 C5'        15.1090   65.8300   15.3330 C.3       1 ATP313      0.0000 
     15 C4'        16.1180   66.8310   14.9610 C.3       1 ATP313      0.0000 
     16 O4'        17.3000   66.1000   14.5460 O.3       1 ATP313      0.0000 
     17 C3'        15.7720   67.5840   13.7500 C.3       1 ATP313      0.0000 
     18 O3'        15.0070   68.6860   14.0450 O.3       1 ATP313      0.0000 
     19 C2'        17.0920   67.9610   13.2040 C.3       1 ATP313      0.0000 
     20 O2'        17.6720   68.9340   13.9720 O.3       1 ATP313      0.0000 
     21 C1'        17.8680   66.7320   13.4100 C.3       1 ATP313      0.0000 
     22 N9         17.8010   65.8570   12.2520 N.pl3     1 ATP313      0.0000 
     23 C8         16.9900   64.7860   12.1160 C.2       1 ATP313      0.0000 
     24 N7         17.2490   64.2500   10.9010 N.2       1 ATP313      0.0000 
     25 C5         18.2110   64.9900   10.2870 C.ar      1 ATP313      0.0000 
     26 C6         18.8670   64.9170    9.0550 C.ar      1 ATP313      0.0000 
     27 N6         18.5260   63.8380    8.0820 N.pl3     1 ATP313      0.0000 
     28 N1         19.8070   65.8350    8.7600 N.ar      1 ATP313      0.0000 
     29 C2         20.1240   66.8140    9.6200 C.ar      1 ATP313      0.0000 
     30 N3         19.5190   66.9130   10.8080 N.ar      1 ATP313      0.0000 
     31 C4         18.5720   66.0190   11.1530 C.ar      1 ATP313      0.0000 
     32 H          15.3960   65.4127   16.3495 H         1 ATP313      0.0000 
     33 H          14.1421   66.3820   15.5568 H         1 ATP313      0.0000 
     34 H          16.3543   67.4749   15.7540 H         1 ATP313      0.0000 
     35 H          15.3070   66.9052   13.0543 H         1 ATP313      0.0000 
     36 H          17.0190   68.1656   12.1863 H         1 ATP313      0.0000 
     37 H          18.8960   67.0040   13.6158 H         1 ATP313      0.0000 
     38 H          16.3551   64.4669   12.7538 H         1 ATP313      0.0000 
     39 H          19.0214   63.8560    7.2135 H         1 ATP313      0.0000 
     40 H          17.8295   63.1837    8.3767 H         1 ATP313      0.0000 
     41 H          20.8624   67.5159    9.3532 H         1 ATP313      0.0000 
     42 H          14.5815   68.9452   13.1779 H         1 ATP313      0.0000 
     43 H          18.6096   69.0073   13.6320 H         1 ATP313      0.0000 
@<TRIPOS>BOND
     1    2    1 ar   
     2    3    1 ar   
     3    4    1 ar   
     4    8    1 1    
     5    6    5 ar   
     6    7    5 ar   
     7    8    5 1    
     8   12    5 1    
     9   10    9 ar   
    10   11    9 ar   
    11   12    9 1    
    12   13    9 1    
    13   14   13 1    
    14   15   14 1    
    15   32   14 1    
    16   33   14 1    
    17   16   15 1    
    18   17   15 1    
    19   34   15 1    
    20   21   16 1    
    21   18   17 1    
    22   19   17 1    
    23   35   17 1    
    24   42   18 1    
    25   20   19 1    
    26   21   19 1    
    27   36   19 1    
    28   43   20 1    
    29   22   21 1    
    30   37   21 1    
    31   23   22 1    
    32   31   22 1    
    33   24   23 2    
    34   38   23 1    
    35   25   24 1    
    36   26   25 ar   
    37   31   25 ar   
    38   27   26 1    
    39   28   26 ar   
    40   39   27 1    
    41   40   27 1    
    42   29   28 ar   
    43   30   29 ar   
    44   41   29 1    
    45   31   30 ar   
@<TRIPOS>SUBSTRUCTURE
     1 ATP313      1 GROUP   
@<TRIPOS>SET

