#    Name: 4g2t_TYD_1_INTS_M
#    Modification time : Mon Mar 24 21:16:58 2014

@<TRIPOS>MOLECULE
4g2t_TYD_1_INTS_M
   53     0     9     0     0
SMALL
NO_CHARGES


@<TRIPOS>ATOM
      1 N          -8.0405  -37.7015   -0.9545 N.am      2 SEC2        0.0000 
      2 N          -6.7560  -37.4750   -1.0670 N.am      8 SEL2        0.0000 
      3 N          -9.3250  -37.9280   -0.8420 N.am      5 SEP2        0.0000 
      4 N          -7.0620  -38.7000   -0.6020 N.am      2 SEC2        0.0000 
      5 N          -7.3680  -39.9250   -0.1370 N.am      5 SEP2        0.0000 
      6 N          -7.4370  -35.2485   -1.6120 N.am      2 SEC2        0.0000 
      7 N          -5.8760  -35.2780   -1.7760 N.am      8 SEL2        0.0000 
      8 N          -8.9980  -35.2190   -1.4480 N.am      5 SEP2        0.0000 
      9 N          -3.8945  -37.4100    0.4465 N.am      2 SEC2        0.0000 
     10 N          -4.3070  -37.0500   -0.8870 N.am      8 SEL2        0.0000 
     11 N          -3.4820  -37.7700    1.7800 N.am      5 SEP2        0.0000 
     12 N          -2.7690  -37.0305    0.8195 N.am      2 SEC2        0.0000 
     13 N          -2.0560  -36.2910   -0.1410 N.am      8 SEL2        0.0000 
     14 N          -1.5735  -38.7570   -2.2110 N.am      2 SEC2        0.0000 
     15 N          -2.2660  -37.4870   -2.2900 N.am      8 SEL2        0.0000 
     16 N          -0.8810  -40.0270   -2.1320 N.am      5 SEP2        0.0000 
     17 N          -1.3405  -37.8370   -3.3355 N.am      2 SEC2        0.0000 
     18 N          -0.4150  -38.1870   -4.3810 N.am      5 SEP2        0.0000 
     19 CA         -3.8885  -39.7540   -1.9840 C.3       3 GLC5        0.0000 
     20 CA         -5.2210  -38.6610   -3.3720 C.3       9 GLL5        0.0000 
     21 CA         -2.5560  -40.8470   -0.5960 C.3       6 GLP5        0.0000 
     22 CA         -3.3235  -39.4790   -4.1655 C.3       3 GLC5        0.0000 
     23 CA         -1.4260  -40.2970   -4.9590 C.3       6 GLP5        0.0000 
     24 CA         -6.0605  -39.1115   -6.5505 C.3       3 GLC5        0.0000 
     25 CA         -5.9970  -39.0580   -4.5780 C.3       9 GLL5        0.0000 
     26 CA         -6.1240  -39.1650   -8.5230 C.3       6 GLP5        0.0000 
     27 CA         -8.5310  -37.7510   -3.2885 C.3       3 GLC5        0.0000 
     28 CA         -7.4100  -39.3970   -4.1850 C.3       9 GLL5        0.0000 
     29 CA         -9.6520  -36.1050   -2.3920 C.3       6 GLP5        0.0000 
     30 N          -9.5745  -39.8225   -5.4285 N.am      2 SEC2        0.0000 
     31 N          -8.2720  -39.0540   -5.2020 N.am      8 SEL2        0.0000 
     32 N         -10.8770  -40.5910   -5.6550 N.am      5 SEP2        0.0000 
     33 CA         -8.5580  -41.9220   -2.6965 C.3       3 GLC5        0.0000 
     34 CA         -7.4400  -40.8680   -3.9300 C.3       9 GLL5        0.0000 
     35 CA         -9.6760  -42.9760   -1.4630 C.3       6 GLP5        0.0000 
     36 CA         -6.2320  -40.2570   -6.7350 C.3       3 GLC5        0.0000 
     37 CA         -6.3400  -41.3490   -4.9470 C.3       9 GLL5        0.0000 
     38 N          -8.9435  -44.6015   -5.2080 N.am      2 SEC2        0.0000 
     39 N          -7.6230  -43.9380   -5.1900 N.am      8 SEL2        0.0000 
     40 N         -10.2640  -45.2650   -5.2260 N.am      5 SEP2        0.0000 
     41 O          -6.7650  -46.1065   -4.8150 O.2       1 ALC1        0.0000 
     42 O          -5.8540  -45.2280   -4.6270 O.2       7 ALL1        0.0000 
     43 O          -7.6760  -46.9850   -5.0030 O.2       4 ALP1        0.0000 
     44 N          -4.7440  -47.5935   -4.9810 N.am      2 SEC2        0.0000 
     45 N          -3.9830  -46.4040   -4.0420 N.am      8 SEL2        0.0000 
     46 N          -5.5050  -48.7830   -5.9200 N.am      5 SEP2        0.0000 
     47 CA         -1.6715  -45.7080   -2.8045 C.3       3 GLC5        0.0000 
     48 CA         -2.2970  -44.1210   -3.6750 C.3       9 GLL5        0.0000 
     49 CA         -1.0460  -47.2950   -1.9340 C.3       6 GLP5        0.0000 
     50 CA         -8.3735  -41.7323   -5.6978 C.3       3 GLC5        0.0000 
     51 CA         -9.8570  -42.3560   -6.9570 C.3       6 GLP5        0.0000 
     52 CA         -2.5430  -41.8716   -4.5258 C.3       3 GLC5        0.0000 
     53 CA         -4.3070  -42.8110   -4.3060 C.3       9 GLL5        0.0000 
@<TRIPOS>BOND
@<TRIPOS>SUBSTRUCTURE
     1 ALC1       41 GROUP        1 X    ALC  0     ROOT ALC X 1
     2 SEC2        1 GROUP        1 X    SEC  0     **** SEC X 2
     3 GLC5       19 GROUP        1 X    GLC  0     **** GLC X 6
     4 ALP1       43 GROUP        1 Y    ALP  0     ROOT ALP Y 8
     5 SEP2        3 GROUP        1 Y    SEP  0     **** SEP Y 9
     6 GLP5       21 GROUP        1 Y    GLP  0     **** GLP Y 13
     7 ALL1       42 GROUP        1 Z    ALL  0     ROOT ALL Z 15
     8 SEL2        2 GROUP        1 Z    SEL  0     **** SEL Z 16
     9 GLL5       20 GROUP        1 Z    GLL  0     **** GLL Z 20
@<TRIPOS>SET

