#    Name: 4g2t_TYD_1_ligand
#    Modification time : Mon Mar 24 21:16:59 2014

@<TRIPOS>MOLECULE
4g2t_TYD_1_ligand
   38    39     1     0     0
SMALL
NO_CHARGES


@<TRIPOS>ATOM
      1 PA         -5.5970  -36.7630   -1.7200 P.3       1 TYD401      0.0000 
      2 O1A        -6.7560  -37.4750   -1.0670 O.co2     1 TYD401      0.0000 
      3 O2A        -5.8760  -35.2780   -1.7760 O.co2     1 TYD401      0.0000 
      4 O3A        -4.3070  -37.0500   -0.8870 O.3       1 TYD401      0.0000 
      5 PB         -2.9250  -36.4960   -1.3590 P.3       1 TYD401      0.0000 
      6 O1B        -3.1070  -35.1810   -2.0780 O.co2     1 TYD401      0.0000 
      7 O2B        -2.0560  -36.2910   -0.1410 O.co2     1 TYD401      0.0000 
      8 O3B        -2.2660  -37.4870   -2.2900 O.co2     1 TYD401      0.0000 
      9 O5'        -5.3830  -37.3080   -3.1650 O.3       1 TYD401      0.0000 
     10 C5'        -5.2210  -38.6610   -3.3720 C.3       1 TYD401      0.0000 
     11 C4'        -5.9970  -39.0580   -4.5780 C.3       1 TYD401      0.0000 
     12 O4'        -5.4460  -40.1990   -5.1440 O.3       1 TYD401      0.0000 
     13 C3'        -7.4100  -39.3970   -4.1850 C.3       1 TYD401      0.0000 
     14 O3'        -8.2720  -39.0540   -5.2020 O.3       1 TYD401      0.0000 
     15 C2'        -7.4400  -40.8680   -3.9300 C.3       1 TYD401      0.0000 
     16 C1'        -6.3400  -41.3490   -4.9470 C.3       1 TYD401      0.0000 
     17 N1         -5.7060  -42.7350   -4.7020 N.am      1 TYD401      0.0000 
     18 C2         -6.4520  -43.9670   -4.8580 C.2       1 TYD401      0.0000 
     19 O2         -7.6230  -43.9380   -5.1900 O.2       1 TYD401      0.0000 
     20 N3         -5.8540  -45.2280   -4.6270 N.am      1 TYD401      0.0000 
     21 C4         -4.5070  -45.3050   -4.2420 C.2       1 TYD401      0.0000 
     22 O4         -3.9830  -46.4040   -4.0420 O.2       1 TYD401      0.0000 
     23 C5         -3.7290  -44.0420   -4.0830 C.2       1 TYD401      0.0000 
     24 C5M        -2.2970  -44.1210   -3.6750 C.3       1 TYD401      0.0000 
     25 C6         -4.3070  -42.8110   -4.3060 C.2       1 TYD401      0.0000 
     26 H          -5.5811  -39.2634   -2.5215 H         1 TYD401      0.0000 
     27 H          -4.1669  -38.9385   -3.5385 H         1 TYD401      0.0000 
     28 H          -6.0290  -38.2380   -5.2696 H         1 TYD401      0.0000 
     29 H          -7.6226  -38.8881   -3.2589 H         1 TYD401      0.0000 
     30 H          -8.3549  -41.2887   -4.2135 H         1 TYD401      0.0000 
     31 H          -7.1145  -41.0972   -2.9626 H         1 TYD401      0.0000 
     32 H          -6.9386  -41.4385   -5.9343 H         1 TYD401      0.0000 
     33 H          -6.4072  -46.0796   -4.7418 H         1 TYD401      0.0000 
     34 H          -3.7895  -41.9414   -4.2040 H         1 TYD401      0.0000 
     35 H          -1.7511  -44.6386   -4.3339 H         1 TYD401      0.0000 
     36 H          -1.8820  -43.2144   -3.5986 H         1 TYD401      0.0000 
     37 H          -2.1878  -44.5690   -2.7877 H         1 TYD401      0.0000 
     38 H          -8.1407  -38.0712   -5.3320 H         1 TYD401      0.0000 
@<TRIPOS>BOND
     1    2    1 ar   
     2    3    1 ar   
     3    4    1 1    
     4    9    1 1    
     5    5    4 1    
     6    6    5 ar   
     7    7    5 ar   
     8    8    5 ar   
     9   10    9 1    
    10   11   10 1    
    11   26   10 1    
    12   27   10 1    
    13   12   11 1    
    14   13   11 1    
    15   28   11 1    
    16   16   12 1    
    17   14   13 1    
    18   15   13 1    
    19   29   13 1    
    20   38   14 1    
    21   16   15 1    
    22   30   15 1    
    23   31   15 1    
    24   17   16 1    
    25   32   16 1    
    26   18   17 1    
    27   25   17 1    
    28   19   18 2    
    29   20   18 1    
    30   21   20 1    
    31   33   20 1    
    32   22   21 2    
    33   23   21 1    
    34   24   23 1    
    35   25   23 2    
    36   35   24 1    
    37   36   24 1    
    38   37   24 1    
    39   34   25 1    
@<TRIPOS>SUBSTRUCTURE
     1 TYD401      1 GROUP   
@<TRIPOS>SET

