#    Name: 2yne_YNE_6_INTS_M
#    Modification time : Tue Mar 25 09:32:00 2014

@<TRIPOS>MOLECULE
2yne_YNE_6_INTS_M
   73     0     6     0     0
SMALL
NO_CHARGES


@<TRIPOS>ATOM
      1 CA          7.2955  -12.4205   92.2760 C.3       2 GLC5        0.0000 
      2 CA          5.6820  -12.0320   92.8160 C.3       6 GLL5        0.0000 
      3 CA          8.9090  -12.8090   91.7360 C.3       4 GLP5        0.0000 
      4 CA          6.6815  -13.2800   94.2005 C.3       2 GLC5        0.0000 
      5 CA          7.6810  -14.5280   95.5850 C.3       4 GLP5        0.0000 
      6 CA          4.9830  -12.5025   91.1870 C.3       2 GLC5        0.0000 
      7 CA          4.2840  -12.9730   89.5580 C.3       4 GLP5        0.0000 
      8 CA          3.9870  -12.7145   95.2075 C.3       2 GLC5        0.0000 
      9 CA          3.6210  -14.2180   93.5760 C.3       6 GLL5        0.0000 
     10 CA          4.3530  -11.2110   96.8390 C.3       4 GLP5        0.0000 
     11 CA          2.8030  -14.7445   95.1985 C.3       2 GLC5        0.0000 
     12 CA          1.9850  -15.2710   96.8210 C.3       4 GLP5        0.0000 
     13 CA          4.3370  -16.0100   94.2730 C.3       2 GLC5        0.0000 
     14 CA          5.0530  -17.8020   94.9700 C.3       4 GLP5        0.0000 
     15 CA          3.5010  -14.7030   91.8665 C.3       2 GLC5        0.0000 
     16 CA          3.3810  -15.1880   90.1570 C.3       4 GLP5        0.0000 
     17 CA          3.8735  -10.9540   94.7380 C.3       2 GLC5        0.0000 
     18 CA          3.3940  -10.6970   92.6370 C.3       6 GLL5        0.0000 
     19 CA          3.8305   -7.6395   92.2465 C.3       2 GLC5        0.0000 
     20 CA          3.8920   -9.3580   92.2770 C.3       6 GLL5        0.0000 
     21 CA          3.7690   -5.9210   92.2160 C.3       4 GLP5        0.0000 
     22 CA          0.4080   -6.7865   88.9120 C.3       2 GLC5        0.0000 
     23 CA          0.5580   -8.3710   88.1380 C.3       6 GLL5        0.0000 
     24 CA          0.2580   -5.2020   89.6860 C.3       4 GLP5        0.0000 
     25 CA         -2.4595   -8.8740   87.3110 C.3       2 GLC5        0.0000 
     26 CA         -1.2860   -8.2120   86.0330 C.3       6 GLL5        0.0000 
     27 CA         -3.6330   -9.5360   88.5890 C.3       4 GLP5        0.0000 
     28 CA          1.2695   -7.2995   83.8445 C.3       2 GLC5        0.0000 
     29 CA          0.7280   -9.0040   84.1590 C.3       6 GLL5        0.0000 
     30 CA          1.8110   -5.5950   83.5300 C.3       4 GLP5        0.0000 
     31 CA          3.8575   -7.9805   85.4355 C.3       2 GLC5        0.0000 
     32 CA          2.2560   -9.1350   86.3470 C.3       6 GLL5        0.0000 
     33 CA          5.4590   -6.8260   84.5240 C.3       4 GLP5        0.0000 
     34 CA          1.2450  -11.2060   85.5510 C.3       2 GLC5        0.0000 
     35 CA          3.2950  -10.7290   84.9050 C.3       6 GLL5        0.0000 
     36 CA         -0.8050  -11.6830   86.1970 C.3       4 GLP5        0.0000 
     37 CA          4.0600  -12.1270   82.3010 C.3       2 GLC5        0.0000 
     38 CA          4.2440  -10.5900   83.7560 C.3       6 GLL5        0.0000 
     39 CA          3.8760  -13.6640   80.8460 C.3       4 GLP5        0.0000 
     40 OD1         5.8250  -12.5945   83.6925 O.co2     1 ASC3        0.0000 
     41 OD1         5.9840  -11.8050   84.8610 O.co2     5 ASL3        0.0000 
     42 OD1         5.6660  -13.3840   82.5240 O.co2     3 ASP3        0.0000 
     43 OD1         4.9100  -13.1360   83.9670 O.co2     1 ASC3        0.0000 
     44 OD1         3.8360  -14.4670   83.0730 O.co2     3 ASP3        0.0000 
     45 CA          5.3225  -12.7915   87.6635 C.3       2 GLC5        0.0000 
     46 CA          5.1460  -11.9960   86.0820 C.3       6 GLL5        0.0000 
     47 CA          5.4990  -13.5870   89.2450 C.3       4 GLP5        0.0000 
     48 CA          3.9570  -12.4775   87.6450 C.3       2 GLC5        0.0000 
     49 CA          3.6300  -11.9820   85.7320 C.3       6 GLL5        0.0000 
     50 CA          2.7370  -13.6875   86.1440 C.3       2 GLC5        0.0000 
     51 CA          1.8440  -15.3930   86.5560 C.3       4 GLP5        0.0000 
     52 CA          1.7030  -11.9475   86.5830 C.3       2 GLC5        0.0000 
     53 CA         -0.2240  -11.9130   87.4340 C.3       4 GLP5        0.0000 
     54 CA          5.3835  -11.6288   94.6458 C.3       2 GLC5        0.0000 
     55 CA          4.2000  -11.8490   92.8950 C.3       6 GLL5        0.0000 
     56 CA          5.8260  -11.3170   96.4360 C.3       4 GLP5        0.0000 
     57 CA         -1.6803   -8.9785   87.9642 C.3       2 GLC5        0.0000 
     58 CA         -2.7462   -7.0793   85.6778 C.3       2 GLC5        0.0000 
     59 CA         -1.5610   -8.3370   84.6600 C.3       6 GLL5        0.0000 
     60 CA         -4.0690   -5.8840   86.0090 C.3       4 GLP5        0.0000 
     61 CA         -0.0772   -6.8673   84.4600 C.3       2 GLC5        0.0000 
     62 CA          0.9240   -5.2180   84.7230 C.3       4 GLP5        0.0000 
     63 CA         -1.8129  -10.3321   84.5036 C.3       2 GLC5        0.0000 
     64 CA         -0.5960   -8.6960   83.7340 C.3       6 GLL5        0.0000 
     65 CA         -2.6160  -12.1790   84.4670 C.3       4 GLP5        0.0000 
     66 CA          0.2920   -8.7320   82.1442 C.3       2 GLC5        0.0000 
     67 CA          0.5180   -8.6140   80.3420 C.3       4 GLP5        0.0000 
     68 CA          0.5526   -6.9204   85.3215 C.3       2 GLC5        0.0000 
     69 CA          1.0120   -8.9040   85.5530 C.3       6 GLL5        0.0000 
     70 CA          1.7857   -6.9009   86.5784 C.3       2 GLC5        0.0000 
     71 CA          1.7650   -4.9030   86.0030 C.3       4 GLP5        0.0000 
     72 CA          5.1061   -8.7206   84.3731 C.3       2 GLC5        0.0000 
     73 CA          5.7370  -10.5710   84.1140 C.3       6 GLL5        0.0000 
@<TRIPOS>BOND
@<TRIPOS>SUBSTRUCTURE
     1 ASC3       40 GROUP        1 X    ASC  0     ROOT ASC X 3
     2 GLC5        1 GROUP        1 X    GLC  0     **** GLC X 6
     3 ASP3       42 GROUP        1 Y    ASP  0     ROOT ASP Y 10
     4 GLP5        3 GROUP        1 Y    GLP  0     **** GLP Y 13
     5 ASL3       41 GROUP        1 Z    ASL  0     ROOT ASL Z 17
     6 GLL5        2 GROUP        1 Z    GLL  0     **** GLL Z 20
@<TRIPOS>SET

