#    Name: 2yne_YNE_6_ligand
#    Modification time : Tue Mar 25 09:32:00 2014

@<TRIPOS>MOLECULE
2yne_YNE_6_ligand
   54    58     1     0     0
SMALL
NO_CHARGES


@<TRIPOS>ATOM
      1 C4          5.6820  -12.0320   92.8160 C.3       1 YNE1001     0.0000 
      2 C3          4.2000  -11.8490   92.8950 C.2       1 YNE1001     0.0000 
      3 N1          3.3530  -12.8390   93.2060 N.pl3     1 YNE1001     0.0000 
      4 C2          3.6210  -14.2180   93.5760 C.3       1 YNE1001     0.0000 
      5 N           2.0550  -12.4650   93.2500 N.2       1 YNE1001     0.0000 
      6 C5          3.3940  -10.6970   92.6370 C.2       1 YNE1001     0.0000 
      7 C1          1.9860  -11.1390   92.8610 C.2       1 YNE1001     0.0000 
      8 C           0.7200  -10.3180   92.7510 C.3       1 YNE1001     0.0000 
      9 C6          3.8920   -9.3580   92.2770 C.3       1 YNE1001     0.0000 
     10 C7          3.8920   -9.3110   90.7660 C.2       1 YNE1001     0.0000 
     11 O           2.7070   -9.2020   90.0570 O.3       1 YNE1001     0.0000 
     12 C8          3.1970   -9.0950   88.7940 C.2       1 YNE1001     0.0000 
     13 N3          4.5330   -9.1700   88.6170 N.2       1 YNE1001     0.0000 
     14 N2          4.9670   -9.3030   89.9670 N.2       1 YNE1001     0.0000 
     15 C9          2.1560   -8.9540   87.7830 C.2       1 YNE1001     0.0000 
     16 S           0.5580   -8.3710   88.1380 S.3       1 YNE1001     0.0000 
     17 C21        -0.0130   -8.4710   86.5410 C.ar      1 YNE1001     0.0000 
     18 C20        -1.2860   -8.2120   86.0330 C.ar      1 YNE1001     0.0000 
     19 C19        -1.5610   -8.3370   84.6600 C.ar      1 YNE1001     0.0000 
     20 C18        -0.5960   -8.6960   83.7340 C.ar      1 YNE1001     0.0000 
     21 C17         0.7280   -9.0040   84.1590 C.ar      1 YNE1001     0.0000 
     22 C16         1.0120   -8.9040   85.5530 C.ar      1 YNE1001     0.0000 
     23 C10         2.2560   -9.1350   86.3470 C.2       1 YNE1001     0.0000 
     24 O1          3.3740   -9.5660   85.7630 O.3       1 YNE1001     0.0000 
     25 C11         3.2950  -10.7290   84.9050 C.3       1 YNE1001     0.0000 
     26 C15         4.2440  -10.5900   83.7560 C.3       1 YNE1001     0.0000 
     27 C14         5.7370  -10.5710   84.1140 C.3       1 YNE1001     0.0000 
     28 N4          5.9840  -11.8050   84.8610 N.4       1 YNE1001     0.0000 
     29 C13         5.1460  -11.9960   86.0820 C.3       1 YNE1001     0.0000 
     30 C12         3.6300  -11.9820   85.7320 C.3       1 YNE1001     0.0000 
     31 H           4.8964   -9.2144   92.6361 H         1 YNE1001     0.0000 
     32 H           3.2373   -8.5922   92.6555 H         1 YNE1001     0.0000 
     33 H          -2.0437   -7.9228   86.6734 H         1 YNE1001     0.0000 
     34 H          -2.5365   -8.1494   84.3335 H         1 YNE1001     0.0000 
     35 H          -0.8183   -8.7454   82.7338 H         1 YNE1001     0.0000 
     36 H           1.4318   -9.2797   83.5060 H         1 YNE1001     0.0000 
     37 H           2.2904  -10.8481   84.5245 H         1 YNE1001     0.0000 
     38 H           4.0132   -9.6559   83.1941 H         1 YNE1001     0.0000 
     39 H           4.0746  -11.4194   83.0315 H         1 YNE1001     0.0000 
     40 H           5.9321   -9.7020   84.7161 H         1 YNE1001     0.0000 
     41 H           6.3058  -10.5436   83.2021 H         1 YNE1001     0.0000 
     42 H           5.3330  -11.1980   86.8026 H         1 YNE1001     0.0000 
     43 H           5.3737  -12.9523   86.5561 H         1 YNE1001     0.0000 
     44 H           3.3962  -12.8672   85.1580 H         1 YNE1001     0.0000 
     45 H           3.0600  -11.9724   86.6500 H         1 YNE1001     0.0000 
     46 H           6.1485  -11.1824   92.5701 H         1 YNE1001     0.0000 
     47 H           6.0658  -12.3353   93.6882 H         1 YNE1001     0.0000 
     48 H           5.9359  -12.7147   92.1308 H         1 YNE1001     0.0000 
     49 H           4.1109  -14.7076   92.8547 H         1 YNE1001     0.0000 
     50 H           4.1798  -14.2787   94.4031 H         1 YNE1001     0.0000 
     51 H           2.7778  -14.7253   93.7540 H         1 YNE1001     0.0000 
     52 H           0.9085   -9.3833   92.4496 H         1 YNE1001     0.0000 
     53 H           0.0768  -10.7133   92.0953 H         1 YNE1001     0.0000 
     54 H           0.2424  -10.2527   93.6271 H         1 YNE1001     0.0000 
@<TRIPOS>BOND
     1    2    1 1    
     2   46    1 1    
     3   47    1 1    
     4   48    1 1    
     5    3    2 1    
     6    6    2 2    
     7    4    3 1    
     8    5    3 1    
     9   49    4 1    
    10   50    4 1    
    11   51    4 1    
    12    7    5 2    
    13    7    6 1    
    14    9    6 1    
    15    8    7 1    
    16   52    8 1    
    17   53    8 1    
    18   54    8 1    
    19   10    9 1    
    20   31    9 1    
    21   32    9 1    
    22   11   10 1    
    23   14   10 2    
    24   12   11 1    
    25   13   12 2    
    26   15   12 1    
    27   14   13 1    
    28   16   15 1    
    29   23   15 2    
    30   17   16 1    
    31   18   17 ar   
    32   22   17 ar   
    33   19   18 ar   
    34   33   18 1    
    35   20   19 ar   
    36   34   19 1    
    37   21   20 ar   
    38   35   20 1    
    39   22   21 ar   
    40   36   21 1    
    41   23   22 1    
    42   24   23 1    
    43   25   24 1    
    44   26   25 1    
    45   30   25 1    
    46   37   25 1    
    47   27   26 1    
    48   38   26 1    
    49   39   26 1    
    50   28   27 1    
    51   40   27 1    
    52   41   27 1    
    53   29   28 1    
    54   30   29 1    
    55   42   29 1    
    56   43   29 1    
    57   44   30 1    
    58   45   30 1    
@<TRIPOS>SUBSTRUCTURE
     1 YNE1001     1 GROUP   
@<TRIPOS>SET

