#    Name: 3ey4_352_3_INTS_M
#    Modification time : Tue Mar 25 02:46:51 2014

@<TRIPOS>MOLECULE
3ey4_352_3_INTS_M
   69     0     9     0     0
SMALL
NO_CHARGES


@<TRIPOS>ATOM
      1 CA         -0.3240   -6.8655  111.0910 C.3       3 GLC5        0.0000 
      2 CA         -2.5630   -7.0330  110.9780 C.3       9 GLL5        0.0000 
      3 CA          1.9150   -6.6980  111.2040 C.3       6 GLP5        0.0000 
      4 CA         -3.0065   -5.5495  110.2075 C.3       3 GLC5        0.0000 
      5 CA         -3.4500   -4.0660  109.4370 C.3       6 GLP5        0.0000 
      6 CA         -0.3025   -6.2155  116.7450 C.3       3 GLC5        0.0000 
      7 CA         -0.1730   -7.8920  117.9220 C.3       9 GLL5        0.0000 
      8 CA         -0.4320   -4.5390  115.5680 C.3       6 GLP5        0.0000 
      9 CA         -2.4825   -6.2300  118.0150 C.3       3 GLC5        0.0000 
     10 CA         -1.4480   -7.8780  118.5160 C.3       9 GLL5        0.0000 
     11 CA         -3.5170   -4.5820  117.5140 C.3       6 GLP5        0.0000 
     12 CA         -3.3960   -9.0820  120.1145 C.3       3 GLC5        0.0000 
     13 CA         -2.3790   -8.9200  118.3010 C.3       9 GLL5        0.0000 
     14 CA         -4.4130   -9.2440  121.9280 C.3       6 GLP5        0.0000 
     15 CA         -4.3910   -8.9965  117.6105 C.3       3 GLC5        0.0000 
     16 CA         -6.4030   -9.0730  116.9200 C.3       6 GLP5        0.0000 
     17 CA         -2.8600  -11.8335  117.8265 C.3       3 GLC5        0.0000 
     18 CA         -1.9970   -9.9960  117.4650 C.3       9 GLL5        0.0000 
     19 CA         -3.7230  -13.6710  118.1880 C.3       6 GLP5        0.0000 
     20 O           1.6785  -11.3050  114.7805 O.2       1 ALC1        0.0000 
     21 O           0.2330  -11.1080  114.7910 O.2       7 ALL1        0.0000 
     22 O           3.1240  -11.5020  114.7700 O.2       4 ALP1        0.0000 
     23 CA         -0.4445  -13.0285  115.1365 C.3       3 GLC5        0.0000 
     24 CA         -0.3390  -11.3360  116.0900 C.3       9 GLL5        0.0000 
     25 CA         -0.5500  -14.7210  114.1830 C.3       6 GLP5        0.0000 
     26 CA          1.2600  -10.7895  112.4220 C.3       3 GLC5        0.0000 
     27 CA         -0.4690  -10.3880  113.8030 C.3       9 GLL5        0.0000 
     28 CA          2.9890  -11.1910  111.0410 C.3       6 GLP5        0.0000 
     29 CA          1.1600   -9.7760  114.1000 C.3       3 GLC5        0.0000 
     30 CA          2.7890   -9.1640  114.3970 C.3       6 GLP5        0.0000 
     31 CA         -4.0275  -11.3055  113.9425 C.3       3 GLC5        0.0000 
     32 CA         -2.2140  -10.1800  113.6670 C.3       9 GLL5        0.0000 
     33 CA         -5.8410  -12.4310  114.2180 C.3       6 GLP5        0.0000 
     34 N           0.8060   -8.4540  109.8890 N.am      2 SEC2        0.0000 
     35 N          -0.2030   -8.8980  110.6140 N.am      8 SEL2        0.0000 
     36 N           1.8150   -8.0100  109.1640 N.am      5 SEP2        0.0000 
     37 CA         -2.6605  -10.3465  108.9845 C.3       3 GLC5        0.0000 
     38 CA         -2.9390  -10.1210  111.0310 C.3       9 GLL5        0.0000 
     39 CA         -2.3820  -10.5720  106.9380 C.3       6 GLP5        0.0000 
     40 CA         -2.7960  -11.7480  109.7600 C.3       3 GLC5        0.0000 
     41 CA         -2.6530  -13.3750  108.4890 C.3       6 GLP5        0.0000 
     42 CA         -3.8975  -11.8215  111.2885 C.3       3 GLC5        0.0000 
     43 CA         -4.8560  -13.5220  111.5460 C.3       6 GLP5        0.0000 
     44 CA         -4.4895   -8.8570  110.6515 C.3       3 GLC5        0.0000 
     45 CA         -6.0400   -7.5930  110.2720 C.3       6 GLP5        0.0000 
     46 CA         -3.0945   -5.8605  119.0250 C.3       3 GLC5        0.0000 
     47 CA         -1.7910   -6.8680  119.3300 C.3       9 GLL5        0.0000 
     48 CA         -4.3980   -4.8530  118.7200 C.3       6 GLP5        0.0000 
     49 CA         -3.1020   -8.0560  120.6290 C.3       3 GLC5        0.0000 
     50 CA          2.1415  -12.5640  117.9980 C.3       3 GLC5        0.0000 
     51 CA          0.6370  -12.2620  116.8100 C.3       9 GLL5        0.0000 
     52 CA          3.6460  -12.8660  119.1860 C.3       6 GLP5        0.0000 
     53 CA          0.6510  -13.7820  115.7030 C.3       3 GLC5        0.0000 
     54 CA          0.6650  -15.3020  114.5960 C.3       6 GLP5        0.0000 
     55 CA          0.0455   -6.8490  112.1970 C.3       3 GLC5        0.0000 
     56 CA         -1.8240   -7.0000  113.1900 C.3       9 GLL5        0.0000 
     57 CA         -1.1280   -5.7695  114.3790 C.3       3 GLC5        0.0000 
     58 CA         -4.3355   -7.5267  110.9380 C.3       3 GLC5        0.0000 
     59 CA         -2.6990   -7.8880  112.2300 C.3       9 GLL5        0.0000 
     60 CA          1.0743   -8.0650  119.0383 C.3       3 GLC5        0.0000 
     61 CA          0.1960   -8.9940  117.1130 C.3       9 GLL5        0.0000 
     62 CA          2.1370   -7.6870  120.5590 C.3       6 GLP5        0.0000 
     63 CA          0.2588   -7.5300  119.7410 C.3       3 GLC5        0.0000 
     64 CA         -1.4367   -6.5535  120.6075 C.3       3 GLC5        0.0000 
     65 CA         -1.2540   -5.7340  122.2920 C.3       6 GLP5        0.0000 
     66 CA          1.7295  -10.9955  115.8055 C.3       3 GLC5        0.0000 
     67 CA          3.3100  -10.1920  115.1610 C.3       6 GLP5        0.0000 
     68 CA         -0.9452  -12.0545  113.4085 C.3       3 GLC5        0.0000 
     69 CA         -0.5490  -13.8250  113.0820 C.3       6 GLP5        0.0000 
@<TRIPOS>BOND
@<TRIPOS>SUBSTRUCTURE
     1 ALC1       20 GROUP        1 X    ALC  0     ROOT ALC X 1
     2 SEC2       34 GROUP        1 X    SEC  0     **** SEC X 2
     3 GLC5        1 GROUP        1 X    GLC  0     **** GLC X 6
     4 ALP1       22 GROUP        1 Y    ALP  0     ROOT ALP Y 8
     5 SEP2       36 GROUP        1 Y    SEP  0     **** SEP Y 9
     6 GLP5        3 GROUP        1 Y    GLP  0     **** GLP Y 13
     7 ALL1       21 GROUP        1 Z    ALL  0     ROOT ALL Z 15
     8 SEL2       35 GROUP        1 Z    SEL  0     **** SEL Z 16
     9 GLL5        2 GROUP        1 Z    GLL  0     **** GLL Z 20
@<TRIPOS>SET

