#    Name: 3ey4_352_3_ligand
#    Modification time : Tue Mar 25 02:46:51 2014

@<TRIPOS>MOLECULE
3ey4_352_3_ligand
   41    42     1     0     0
SMALL
NO_CHARGES


@<TRIPOS>ATOM
      1 C1         -2.6990   -7.8880  112.2300 C.3       1 352602      0.0000 
      2 C2         -2.5630   -7.0330  110.9780 C.3       1 352602      0.0000 
      3 C3          0.1960   -8.9940  117.1130 C.ar      1 352602      0.0000 
      4 C4         -0.1730   -7.8920  117.9220 C.ar      1 352602      0.0000 
      5 C5         -1.4480   -7.8780  118.5160 C.ar      1 352602      0.0000 
      6 C6         -2.3790   -8.9200  118.3010 C.ar      1 352602      0.0000 
      7 C7         -1.9970   -9.9960  117.4650 C.ar      1 352602      0.0000 
      8 C8         -0.6970  -10.0690  116.8830 C.ar      1 352602      0.0000 
      9 N9          0.2330  -11.1080  114.7910 N.pl3     1 352602      0.0000 
     10 C10        -0.3390  -11.3360  116.0900 C.3       1 352602      0.0000 
     11 C11        -0.4690  -10.3880  113.8030 C.2       1 352602      0.0000 
     12 S12        -2.2140  -10.1800  113.6670 S.3       1 352602      0.0000 
     13 C13        -2.1360   -9.3190  112.0690 C.3       1 352602      0.0000 
     14 C14        -0.6270   -9.3240  111.6920 C.2       1 352602      0.0000 
     15 N15         0.1230   -9.8550  112.7020 N.pl3     1 352602      0.0000 
     16 O16        -0.2030   -8.8980  110.6140 O.2       1 352602      0.0000 
     17 C17        -2.9390  -10.1210  111.0310 C.3       1 352602      0.0000 
     18 F18        -1.7910   -6.8680  119.3300 F         1 352602      0.0000 
     19 C19         0.6370  -12.2620  116.8100 C.3       1 352602      0.0000 
     20 O20        -4.1010   -8.2070  112.4310 O.3       1 352602      0.0000 
     21 C21        -1.8240   -7.0000  113.1900 C.3       1 352602      0.0000 
     22 H           1.1309   -9.0143  116.6839 H         1 352602      0.0000 
     23 H           0.4757   -7.1259  118.0685 H         1 352602      0.0000 
     24 H          -3.2899   -8.8977  118.7310 H         1 352602      0.0000 
     25 H          -2.6727  -10.7492  117.2686 H         1 352602      0.0000 
     26 H           1.1672  -11.4799  114.5917 H         1 352602      0.0000 
     27 H          -1.2734  -11.9297  115.9627 H         1 352602      0.0000 
     28 H           1.1636   -9.8501  112.6247 H         1 352602      0.0000 
     29 H          -1.6073   -6.9241  110.7047 H         1 352602      0.0000 
     30 H          -3.0465   -7.4342  110.2000 H         1 352602      0.0000 
     31 H          -2.9357   -6.1149  111.1129 H         1 352602      0.0000 
     32 H          -2.9141   -9.6905  110.1288 H         1 352602      0.0000 
     33 H          -2.5832  -11.0493  110.9227 H         1 352602      0.0000 
     34 H          -3.9014  -10.2042  111.2895 H         1 352602      0.0000 
     35 H           1.5046  -11.8057  117.0079 H         1 352602      0.0000 
     36 H           0.2691  -12.5833  117.6826 H         1 352602      0.0000 
     37 H           0.8500  -13.0731  116.2652 H         1 352602      0.0000 
     38 H          -0.9437   -6.7643  112.7783 H         1 352602      0.0000 
     39 H          -2.2801   -6.1401  113.4190 H         1 352602      0.0000 
     40 H          -1.6286   -7.4669  114.0525 H         1 352602      0.0000 
     41 H          -4.1091   -9.1620  112.7274 H         1 352602      0.0000 
@<TRIPOS>BOND
     1    2    1 1    
     2   13    1 1    
     3   20    1 1    
     4   21    1 1    
     5   29    2 1    
     6   30    2 1    
     7   31    2 1    
     8    4    3 ar   
     9    8    3 ar   
    10   22    3 1    
    11    5    4 ar   
    12   23    4 1    
    13    6    5 ar   
    14   18    5 1    
    15    7    6 ar   
    16   24    6 1    
    17    8    7 ar   
    18   25    7 1    
    19   10    8 1    
    20   10    9 1    
    21   11    9 2    
    22   26    9 1    
    23   19   10 1    
    24   27   10 1    
    25   12   11 1    
    26   15   11 1    
    27   13   12 1    
    28   14   13 1    
    29   17   13 1    
    30   15   14 1    
    31   16   14 2    
    32   28   15 1    
    33   32   17 1    
    34   33   17 1    
    35   34   17 1    
    36   35   19 1    
    37   36   19 1    
    38   37   19 1    
    39   41   20 1    
    40   38   21 1    
    41   39   21 1    
    42   40   21 1    
@<TRIPOS>SUBSTRUCTURE
     1 352602      1 GROUP   
@<TRIPOS>SET

