#    Name: 3T70_1_CAVITY_N1_6.mol2
#    Modification time : Tue Mar 11 02:48:32 2014

@<TRIPOS>MOLECULE
3T70_1_CAVITY_N1_6.mol2
   97     0     6     0     0
SMALL
NO_CHARGES


@<TRIPOS>ATOM
      1 CA        -10.1653   24.6180   -4.2644 C.3       5 GLY6        0.0000 
      2 CA         -9.6016   25.2395   -5.5078 C.3       5 GLY6        0.0000 
      3 CZ         -9.0379   25.8609   -6.7512 C.ar      4 PHE5        0.0000 
      4 CA         -9.3317   27.6938   -7.7779 C.3       5 GLY6        0.0000 
      5 DU         -9.9287   26.4589   -3.2371 H         6 CUB7        0.0000 
      6 OG         -9.0712   25.2474   -3.4539 O.2       1 SER1        0.0000 
      7 CA         -8.2137   24.0359   -3.6707 C.3       5 GLY6        0.0000 
      8 DU         -9.3650   27.0803   -4.4806 H         6 CUB7        0.0000 
      9 CA         -8.5075   25.8688   -4.6973 C.3       5 GLY6        0.0000 
     10 CA         -7.6500   24.6573   -4.9141 C.3       5 GLY6        0.0000 
     11 DU         -8.8013   27.7018   -5.7240 H         6 CUB7        0.0000 
     12 CZ         -7.9438   26.4902   -5.9407 C.ar      4 PHE5        0.0000 
     13 CA         -7.0863   25.2787   -6.1575 C.3       5 GLY6        0.0000 
     14 CZ         -8.2376   28.3232   -6.9674 C.ar      4 PHE5        0.0000 
     15 CZ         -7.3801   27.1117   -7.1841 C.ar      4 PHE5        0.0000 
     16 CZ         -9.3983   26.4668   -1.1832 C.ar      4 PHE5        0.0000 
     17 OG         -8.5408   25.2553   -1.4000 O.2       1 SER1        0.0000 
     18 OG         -7.6833   24.0438   -1.6167 O.2       1 SER1        0.0000 
     19 DU         -8.8346   27.0882   -2.4266 H         6 CUB7        0.0000 
     20 DU         -7.9771   25.8767   -2.6434 H         6 CUB7        0.0000 
     21 CA         -7.1196   24.6652   -2.8601 C.3       5 GLY6        0.0000 
     22 OG         -8.2709   27.7097   -3.6700 O.2       1 SER1        0.0000 
     23 DU         -7.4134   26.4982   -3.8868 H         6 CUB7        0.0000 
     24 CA         -6.5560   25.2867   -4.1036 C.3       5 GLY6        0.0000 
     25 OG         -7.7072   28.3311   -4.9135 O.2       1 SER1        0.0000 
     26 DU         -6.8497   27.1196   -5.1302 H         6 CUB7        0.0000 
     27 CA         -5.9923   25.9081   -5.3470 C.3       5 GLY6        0.0000 
     28 N          -7.1435   28.9525   -6.1569 N.2       2 ALA2        0.0000 
     29 CZ         -6.2861   27.7410   -6.3736 C.ar      4 PHE5        0.0000 
     30 CZ         -5.4286   26.5295   -6.5904 C.ar      4 PHE5        0.0000 
     31 CZ         -9.7254   27.6862    1.0875 C.ar      4 PHE5        0.0000 
     32 CZ         -8.8679   26.4747    0.8707 C.ar      4 PHE5        0.0000 
     33 CZ         -8.0104   25.2632    0.6540 C.ar      4 PHE5        0.0000 
     34 CZ         -7.1530   24.0517    0.4372 C.ar      4 PHE5        0.0000 
     35 DU         -9.1617   28.3077   -0.1559 H         6 CUB7        0.0000 
     36 CZ         -8.3042   27.0962   -0.3727 C.ar      4 PHE5        0.0000 
     37 CZ         -7.4467   25.8847   -0.5895 C.ar      4 PHE5        0.0000 
     38 CA         -6.5893   24.6731   -0.8062 C.3       5 GLY6        0.0000 
     39 CA         -5.7318   23.4616   -1.0230 C.3       5 GLY6        0.0000 
     40 OG         -8.5980   28.9291   -1.3994 O.2       1 SER1        0.0000 
     41 OG         -7.7405   27.7176   -1.6161 O.2       1 SER1        0.0000 
     42 DU         -6.8831   26.5061   -1.8329 H         6 CUB7        0.0000 
     43 N          -6.0256   25.2946   -2.0496 N.2       2 ALA2        0.0000 
     44 N          -5.1681   24.0831   -2.2664 N.2       2 ALA2        0.0000 
     45 CA         -6.3194   27.1275   -3.0763 C.3       5 GLY6        0.0000 
     46 N          -5.4619   25.9160   -3.2930 N.2       2 ALA2        0.0000 
     47 CA         -5.7557   27.7489   -4.3197 C.3       5 GLY6        0.0000 
     48 N          -4.8982   26.5374   -4.5365 N.2       2 ALA2        0.0000 
     49 N          -4.0407   25.3259   -4.7532 N.2       2 ALA2        0.0000 
     50 N          -5.1920   28.3704   -5.5631 N.2       2 ALA2        0.0000 
     51 CA         -4.3345   27.1589   -5.7799 C.3       5 GLY6        0.0000 
     52 CA         -3.4770   25.9474   -5.9966 C.3       5 GLY6        0.0000 
     53 CA         -9.1950   27.6942    3.1414 C.3       5 GLY6        0.0000 
     54 CA         -8.3375   26.4827    2.9246 C.3       5 GLY6        0.0000 
     55 NZ         -8.6313   28.3156    1.8980 N.2       3 LYS4        0.0000 
     56 CZ         -7.7738   27.1041    1.6812 C.ar      4 PHE5        0.0000 
     57 CA         -6.9164   25.8926    1.4645 C.3       5 GLY6        0.0000 
     58 DU         -8.9251   30.1485    0.8713 H         6 CUB7        0.0000 
     59 DU         -8.0676   28.9370    0.6546 H         6 CUB7        0.0000 
     60 N          -7.2101   27.7255    0.4378 N.2       2 ALA2        0.0000 
     61 CA         -6.3527   26.5140    0.2211 C.3       5 GLY6        0.0000 
     62 OG         -8.3614   30.7700   -0.3721 O.2       1 SER1        0.0000 
     63 OG         -7.5039   29.5584   -0.5888 O.2       1 SER1        0.0000 
     64 OG         -6.6465   28.3469   -0.8056 O.2       1 SER1        0.0000 
     65 CA         -5.7890   27.1354   -1.0224 C.3       5 GLY6        0.0000 
     66 CA         -4.9315   25.9239   -1.2391 C.3       5 GLY6        0.0000 
     67 CA         -4.0740   24.7124   -1.4559 C.3       5 GLY6        0.0000 
     68 OG         -8.6552   32.6029   -1.3988 O.2       1 SER1        0.0000 
     69 CA         -5.2253   27.7569   -2.2658 C.3       5 GLY6        0.0000 
     70 O          -4.3678   26.5453   -2.4825 O.2       2 ALA2        0.0000 
     71 N          -3.5103   25.3338   -2.6993 N.2       2 ALA2        0.0000 
     72 O          -3.8041   27.1668   -3.7259 O.2       2 ALA2        0.0000 
     73 O          -2.9467   25.9553   -3.9427 O.2       2 ALA2        0.0000 
     74 NZ         -8.6885   31.9894    1.8986 N.2       3 LYS4        0.0000 
     75 NZ         -7.8310   30.7779    1.6818 N.2       3 LYS4        0.0000 
     76 N          -6.9736   29.5664    1.4651 N.2       2 ALA2        0.0000 
     77 O          -8.9823   33.8223    0.8719 O.2       2 ALA2        0.0000 
     78 DU         -8.1248   32.6108    0.6552 H         6 CUB7        0.0000 
     79 OG         -7.2673   31.3993    0.4384 O.2       1 SER1        0.0000 
     80 OG         -6.4099   30.1878    0.2217 O.2       1 SER1        0.0000 
     81 N          -5.5524   28.9763    0.0049 N.2       2 ALA2        0.0000 
     82 N          -4.6949   27.7648   -0.2118 N.2       2 ALA2        0.0000 
     83 CA         -3.8374   26.5533   -0.4286 C.3       5 GLY6        0.0000 
     84 OG         -7.5611   33.2322   -0.5882 O.2       1 SER1        0.0000 
     85 CA         -4.1312   28.3862   -1.4553 C.3       5 GLY6        0.0000 
     86 O          -3.2737   27.1747   -1.6720 O.2       2 ALA2        0.0000 
     87 CA         -2.4163   25.9632   -1.8888 C.3       5 GLY6        0.0000 
     88 NZ         -7.5944   32.6187    2.7091 N.2       3 LYS4        0.0000 
     89 NZ         -6.7370   31.4072    2.4924 N.2       3 LYS4        0.0000 
     90 N          -7.0308   33.2402    1.4657 N.2       2 ALA2        0.0000 
     91 O          -6.1733   32.0286    1.2489 O.2       2 ALA2        0.0000 
     92 N          -5.3158   30.8171    1.0322 N.2       2 ALA2        0.0000 
     93 O          -5.6096   32.6501    0.0055 O.2       2 ALA2        0.0000 
     94 O          -4.7521   31.4386   -0.2112 O.2       2 ALA2        0.0000 
     95 CA         -3.8946   30.2271   -0.4280 C.3       5 GLY6        0.0000 
     96 O          -3.0372   29.0155   -0.6447 O.2       2 ALA2        0.0000 
     97 CA         -4.2217   31.4465    1.8427 C.3       5 GLY6        0.0000 
@<TRIPOS>BOND
@<TRIPOS>SUBSTRUCTURE
     1 SER1        6 GROUP   
     2 ALA2       28 GROUP   
     3 LYS4       55 GROUP   
     4 PHE5        3 GROUP   
     5 GLY6        1 GROUP   
     6 CUB7        5 GROUP   
@<TRIPOS>SET

