#    Name: 3t70_DU4_1_INTS_M
#    Modification time : Mon Mar 24 19:14:17 2014

@<TRIPOS>MOLECULE
3t70_DU4_1_INTS_M
   47     0     9     0     0
SMALL
NO_CHARGES


@<TRIPOS>ATOM
      1 N          -6.0445   22.3175   -2.5390 N.am      2 SEC2        0.0000 
      2 N          -6.2290   23.6150   -1.8780 N.am      8 SEL2        0.0000 
      3 N          -5.8600   21.0200   -3.2000 N.am      5 SEP2        0.0000 
      4 O          -4.0435   23.7235   -3.1405 O.2       1 ALC1        0.0000 
      5 O          -4.2700   24.7090   -2.2370 O.2       7 ALL1        0.0000 
      6 O          -3.8170   22.7380   -4.0440 O.2       4 ALP1        0.0000 
      7 N          -2.0430   27.3030   -3.0290 N.am      2 SEC2        0.0000 
      8 N          -2.3670   25.8690   -2.5650 N.am      8 SEL2        0.0000 
      9 N          -1.7190   28.7370   -3.4930 N.am      5 SEP2        0.0000 
     10 CA         -2.2380   27.2380   -0.9890 C.3       3 GLC5        0.0000 
     11 CA         -4.0420   27.0140   -1.4960 C.3       9 GLL5        0.0000 
     12 CA         -0.4340   27.4620   -0.4820 C.3       6 GLP5        0.0000 
     13 CA         -5.9060   25.0970    0.4565 C.3       3 GLC5        0.0000 
     14 CA         -7.5370   25.6960   -0.6470 C.3       9 GLL5        0.0000 
     15 CA         -4.2750   24.4980    1.5600 C.3       6 GLP5        0.0000 
     16 CA         -8.9135   24.6600   -0.1555 C.3       3 GLC5        0.0000 
     17 CA        -10.2900   23.6240    0.3360 C.3       6 GLP5        0.0000 
     18 CA         -4.3750   29.0000   -7.3820 C.3       3 GLC5        0.0000 
     19 CA         -5.0400   27.9450   -5.7610 C.3       9 GLL5        0.0000 
     20 CA         -3.7100   30.0550   -9.0030 C.3       6 GLP5        0.0000 
     21 CA         -7.2160   29.1285   -3.0905 C.3       3 GLC5        0.0000 
     22 CA         -9.0360   27.8470   -3.1120 C.3       9 GLL5        0.0000 
     23 CA         -5.3960   30.4100   -3.0690 C.3       6 GLP5        0.0000 
     24 CA         -4.4865   25.7435    0.1548 C.3       3 GLC5        0.0000 
     25 CA         -5.3540   26.9640   -1.0050 C.3       9 GLL5        0.0000 
     26 CA         -5.0470   28.6995   -2.1597 C.3       3 GLC5        0.0000 
     27 CA        -10.0610   29.0657   -8.6920 C.3       3 GLC5        0.0000 
     28 CA         -9.4790   27.5730   -7.9960 C.3       9 GLL5        0.0000 
     29 CA        -10.3940   30.8340   -8.7980 C.3       6 GLP5        0.0000 
     30 CA         -8.7041   24.6461   -9.3966 C.3       3 GLC5        0.0000 
     31 CA        -10.3820   25.6890   -9.1930 C.3       9 GLL5        0.0000 
     32 CA         -7.1730   23.6590  -10.1820 C.3       6 GLP5        0.0000 
     33 CA         -9.6363   23.6290   -6.5315 C.3       3 GLC5        0.0000 
     34 CA        -10.2910   24.9110   -8.0380 C.3       9 GLL5        0.0000 
     35 CA         -9.2310   22.0690   -5.6150 C.3       6 GLP5        0.0000 
     36 CA         -6.1315   29.0382   -4.3565 C.3       3 GLC5        0.0000 
     37 CA         -7.3180   27.1660   -5.4650 C.3       9 GLL5        0.0000 
     38 CA         -5.0968   28.8680   -4.3105 C.3       3 GLC5        0.0000 
     39 CA         -4.5550   26.7070   -5.3430 C.3       9 GLL5        0.0000 
     40 CA         -6.4087   23.9015   -5.1765 C.3       3 GLC5        0.0000 
     41 CA         -5.4560   25.7020   -4.9940 C.3       9 GLL5        0.0000 
     42 CA         -6.6720   21.9910   -5.3320 C.3       6 GLP5        0.0000 
     43 CA         -3.9694   26.3985   -6.8480 C.3       3 GLC5        0.0000 
     44 CA         -2.8120   26.2830   -8.4230 C.3       6 GLP5        0.0000 
     45 CA         -9.9270   25.9075   -0.0950 C.3       3 GLC5        0.0000 
     46 CA         -9.1570   27.0080   -1.8140 C.3       9 GLL5        0.0000 
     47 CA        -11.0970   24.6590    0.7910 C.3       6 GLP5        0.0000 
@<TRIPOS>BOND
@<TRIPOS>SUBSTRUCTURE
     1 ALC1        4 GROUP        1 X    ALC  0     ROOT ALC X 1
     2 SEC2        1 GROUP        1 X    SEC  0     **** SEC X 2
     3 GLC5       10 GROUP        1 X    GLC  0     **** GLC X 6
     4 ALP1        6 GROUP        1 Y    ALP  0     ROOT ALP Y 8
     5 SEP2        3 GROUP        1 Y    SEP  0     **** SEP Y 9
     6 GLP5       12 GROUP        1 Y    GLP  0     **** GLP Y 13
     7 ALL1        5 GROUP        1 Z    ALL  0     ROOT ALL Z 15
     8 SEL2        2 GROUP        1 Z    SEL  0     **** SEL Z 16
     9 GLL5       11 GROUP        1 Z    GLL  0     **** GLL Z 20
@<TRIPOS>SET

