#    Name: 3t70_DU4_1_ligand
#    Modification time : Mon Mar 24 19:14:18 2014

@<TRIPOS>MOLECULE
3t70_DU4_1_ligand
   56    59     1     0     0
SMALL
NO_CHARGES


@<TRIPOS>ATOM
      1 N1         -6.1200   25.7830   -1.1280 N.am      1 DU4400      0.0000 
      2 C2         -5.5760   24.6530   -1.7560 C.2       1 DU4400      0.0000 
      3 O2         -6.2290   23.6150   -1.8780 O.2       1 DU4400      0.0000 
      4 N3         -4.2700   24.7090   -2.2370 N.am      1 DU4400      0.0000 
      5 C4         -3.5100   25.8750   -2.1140 C.2       1 DU4400      0.0000 
      6 O4         -2.3670   25.8690   -2.5650 O.2       1 DU4400      0.0000 
      7 C5         -4.0420   27.0140   -1.4960 C.2       1 DU4400      0.0000 
      8 C6         -5.3540   26.9640   -1.0050 C.2       1 DU4400      0.0000 
      9 C1'        -7.5370   25.6960   -0.6470 C.3       1 DU4400      0.0000 
     10 C17        -8.8280   27.4690   -5.5480 C.3       1 DU4400      0.0000 
     11 C18        -9.3890   26.8000   -6.8320 C.ar      1 DU4400      0.0000 
     12 C19        -9.4790   27.5730   -7.9960 C.ar      1 DU4400      0.0000 
     13 C2'        -8.0200   26.7940    0.2990 C.3       1 DU4400      0.0000 
     14 C20        -9.9770   27.0220   -9.1760 C.ar      1 DU4400      0.0000 
     15 C21       -10.3820   25.6890   -9.1930 C.ar      1 DU4400      0.0000 
     16 C22       -10.2910   24.9110   -8.0380 C.ar      1 DU4400      0.0000 
     17 C23        -9.7920   25.4670   -6.8580 C.ar      1 DU4400      0.0000 
     18 C24        -7.3180   27.1660   -5.4650 C.ar      1 DU4400      0.0000 
     19 C25        -6.4160   28.1670   -5.8230 C.ar      1 DU4400      0.0000 
     20 C26        -5.0400   27.9450   -5.7610 C.ar      1 DU4400      0.0000 
     21 C27        -4.5550   26.7070   -5.3430 C.ar      1 DU4400      0.0000 
     22 C28        -5.4560   25.7020   -4.9940 C.ar      1 DU4400      0.0000 
     23 C29        -6.8350   25.9220   -5.0480 C.ar      1 DU4400      0.0000 
     24 C3'        -8.6940   27.8140   -0.5950 C.3       1 DU4400      0.0000 
     25 O3'        -9.8360   28.3330    0.1050 O.3       1 DU4400      0.0000 
     26 C4'        -9.1570   27.0080   -1.8140 C.3       1 DU4400      0.0000 
     27 O4'        -8.3140   25.8140   -1.8790 O.3       1 DU4400      0.0000 
     28 C41       -11.0080   27.4910   -4.4110 C.3       1 DU4400      0.0000 
     29 C5'        -9.0360   27.8470   -3.1120 C.3       1 DU4400      0.0000 
     30 N5'        -9.5750   27.1260   -4.2960 N.4       1 DU4400      0.0000 
     31 H          -3.8561   23.8786   -2.6909 H         1 DU4400      0.0000 
     32 H          -3.4878   27.8606   -1.4051 H         1 DU4400      0.0000 
     33 H          -5.7653   27.7877   -0.5525 H         1 DU4400      0.0000 
     34 H          -7.7207   24.7333   -0.2204 H         1 DU4400      0.0000 
     35 H          -8.9070   28.5687   -5.7219 H         1 DU4400      0.0000 
     36 H          -9.1741   28.5566   -7.9777 H         1 DU4400      0.0000 
     37 H          -7.1826   27.2349    0.7908 H         1 DU4400      0.0000 
     38 H          -8.7261   26.3869    0.9870 H         1 DU4400      0.0000 
     39 H         -10.0444   27.5928  -10.0230 H         1 DU4400      0.0000 
     40 H         -10.7499   25.2754  -10.0604 H         1 DU4400      0.0000 
     41 H         -10.5910   23.9292   -8.0552 H         1 DU4400      0.0000 
     42 H          -9.7229   24.8915   -6.0103 H         1 DU4400      0.0000 
     43 H          -6.7704   29.0844   -6.1381 H         1 DU4400      0.0000 
     44 H          -4.3870   28.6919   -6.0227 H         1 DU4400      0.0000 
     45 H          -3.5477   26.5372   -5.2927 H         1 DU4400      0.0000 
     46 H          -5.1004   24.7804   -4.6907 H         1 DU4400      0.0000 
     47 H          -7.4860   25.1790   -4.7846 H         1 DU4400      0.0000 
     48 H          -8.0085   28.5351   -0.8897 H         1 DU4400      0.0000 
     49 H         -10.1832   26.7375   -1.6693 H         1 DU4400      0.0000 
     50 H          -7.9770   28.0891   -3.2603 H         1 DU4400      0.0000 
     51 H          -9.5769   28.7881   -2.9576 H         1 DU4400      0.0000 
     52 H          -9.5041   26.0589   -4.1141 H         1 DU4400      0.0000 
     53 H         -11.1300   28.4702   -4.5733 H         1 DU4400      0.0000 
     54 H         -11.4541   27.0109   -5.1663 H         1 DU4400      0.0000 
     55 H         -11.5164   27.2661   -3.5798 H         1 DU4400      0.0000 
     56 H          -9.7396   29.3271    0.0561 H         1 DU4400      0.0000 
@<TRIPOS>BOND
     1    2    1 1    
     2    8    1 1    
     3    9    1 1    
     4    3    2 2    
     5    4    2 1    
     6    5    4 1    
     7   31    4 1    
     8    6    5 2    
     9    7    5 1    
    10    8    7 2    
    11   32    7 1    
    12   33    8 1    
    13   13    9 1    
    14   27    9 1    
    15   34    9 1    
    16   11   10 1    
    17   18   10 1    
    18   30   10 1    
    19   35   10 1    
    20   12   11 ar   
    21   17   11 ar   
    22   14   12 ar   
    23   36   12 1    
    24   24   13 1    
    25   37   13 1    
    26   38   13 1    
    27   15   14 ar   
    28   39   14 1    
    29   16   15 ar   
    30   40   15 1    
    31   17   16 ar   
    32   41   16 1    
    33   42   17 1    
    34   19   18 ar   
    35   23   18 ar   
    36   20   19 ar   
    37   43   19 1    
    38   21   20 ar   
    39   44   20 1    
    40   22   21 ar   
    41   45   21 1    
    42   23   22 ar   
    43   46   22 1    
    44   47   23 1    
    45   25   24 1    
    46   26   24 1    
    47   48   24 1    
    48   56   25 1    
    49   27   26 1    
    50   29   26 1    
    51   49   26 1    
    52   30   28 1    
    53   53   28 1    
    54   54   28 1    
    55   55   28 1    
    56   30   29 1    
    57   50   29 1    
    58   51   29 1    
    59   52   30 1    
@<TRIPOS>SUBSTRUCTURE
     1 DU4400      1 GROUP   
@<TRIPOS>SET

