#    Name: 3o8p_BMU_1_INTS_M
#    Modification time : Tue Mar 25 03:22:42 2014

@<TRIPOS>MOLECULE
3o8p_BMU_1_INTS_M
   75     0     9     0     0
SMALL
NO_CHARGES


@<TRIPOS>ATOM
      1 N           1.4520   -2.4265  -15.3325 N.am      2 SEC2        0.0000 
      2 N           0.0310   -2.3730  -15.2310 N.am      8 SEL2        0.0000 
      3 N           2.8730   -2.4800  -15.4340 N.am      5 SEP2        0.0000 
      4 N           0.8220   -3.3765  -16.0875 N.am      2 SEC2        0.0000 
      5 N           1.6130   -4.3800  -16.9440 N.am      5 SEP2        0.0000 
      6 O          -3.0140   -3.7690  -14.0980 O.2       1 ALC1        0.0000 
      7 O          -2.1040   -3.0490  -14.8690 O.2       7 ALL1        0.0000 
      8 O          -3.9240   -4.4890  -13.3270 O.2       4 ALP1        0.0000 
      9 CA         -6.1565   -0.3425  -20.9295 C.3       3 GLC5        0.0000 
     10 CA         -5.0820   -0.2270  -19.2070 C.3       9 GLL5        0.0000 
     11 CA         -7.2310   -0.4580  -22.6520 C.3       6 GLP5        0.0000 
     12 CA         -6.0310    1.4325  -20.0020 C.3       3 GLC5        0.0000 
     13 CA         -6.9800    3.0920  -20.7970 C.3       6 GLP5        0.0000 
     14 CA         -6.6965   -1.4475  -18.8690 C.3       3 GLC5        0.0000 
     15 CA         -8.3110   -2.6680  -18.5310 C.3       6 GLP5        0.0000 
     16 CA         -5.0965    1.3475  -18.2975 C.3       3 GLC5        0.0000 
     17 CA         -5.1110    2.9220  -17.3880 C.3       6 GLP5        0.0000 
     18 CA         -1.0060   -0.0510  -18.0940 C.3       3 GLC5        0.0000 
     19 CA         -2.8090   -1.3880  -18.0990 C.3       9 GLL5        0.0000 
     20 CA          0.7970    1.2860  -18.0890 C.3       6 GLP5        0.0000 
     21 O          -1.4415   -4.3940  -12.6470 O.2       1 ALC1        0.0000 
     22 O          -0.4560   -3.5630  -13.3910 O.2       7 ALL1        0.0000 
     23 O          -2.4270   -5.2250  -11.9030 O.2       4 ALP1        0.0000 
     24 CA          1.0010   -0.5305  -13.0595 C.3       3 GLC5        0.0000 
     25 CA          1.4390   -2.2490  -12.3970 C.3       9 GLL5        0.0000 
     26 CA          0.5630    1.1880  -13.7220 C.3       6 GLP5        0.0000 
     27 CA          1.0310   -5.3515  -10.3825 C.3       3 GLC5        0.0000 
     28 CA          1.0360   -5.9370  -12.2970 C.3       9 GLL5        0.0000 
     29 CA          1.0260   -4.7660   -8.4680 C.3       6 GLP5        0.0000 
     30 CA          2.1320   -4.9105  -13.7530 C.3       3 GLC5        0.0000 
     31 CA          3.2280   -3.8840  -15.2090 C.3       6 GLP5        0.0000 
     32 CA         -0.1960   -6.7200  -13.3585 C.3       3 GLC5        0.0000 
     33 CA         -1.4280   -7.5030  -14.4200 C.3       6 GLP5        0.0000 
     34 CA          2.3870   -2.2135   -8.2475 C.3       3 GLC5        0.0000 
     35 CA          3.0350   -1.0780  -10.0050 C.3       9 GLL5        0.0000 
     36 CA          1.7390   -3.3490   -6.4900 C.3       6 GLP5        0.0000 
     37 CA          2.2480    0.3015   -9.0770 C.3       3 GLC5        0.0000 
     38 CA          1.4610    1.6810   -8.1490 C.3       6 GLP5        0.0000 
     39 CA          3.2585    1.1130  -10.4400 C.3       3 GLC5        0.0000 
     40 CA          3.4820    3.3040  -10.8750 C.3       6 GLP5        0.0000 
     41 CA          5.6655    0.1250  -11.4580 C.3       3 GLC5        0.0000 
     42 CA          4.2430   -1.0760  -12.2520 C.3       9 GLL5        0.0000 
     43 CA          7.0880    1.3260  -10.6640 C.3       6 GLP5        0.0000 
     44 CA          5.8215   -1.8175  -12.8870 C.3       3 GLC5        0.0000 
     45 CA          7.4000   -2.5590  -13.5220 C.3       6 GLP5        0.0000 
     46 CA          5.6000   -0.1735  -13.4690 C.3       3 GLC5        0.0000 
     47 CA          6.9570    0.7290  -14.6860 C.3       6 GLP5        0.0000 
     48 CA          3.7055   -0.6615  -14.2975 C.3       3 GLC5        0.0000 
     49 CA          3.1680   -0.2470  -16.3430 C.3       6 GLP5        0.0000 
     50 CA          3.7355   -2.4800  -13.7305 C.3       3 GLC5        0.0000 
     51 CA          5.5465   -3.1260   -8.6725 C.3       3 GLC5        0.0000 
     52 CA          4.7300   -2.7900  -10.5330 C.3       9 GLL5        0.0000 
     53 CA          6.3630   -3.4620   -6.8120 C.3       6 GLP5        0.0000 
     54 CA          6.0650   -2.6745  -12.0275 C.3       3 GLC5        0.0000 
     55 CA         -3.8975   -1.8952  -13.8455 C.3       3 GLC5        0.0000 
     56 CA         -2.7360   -2.3890  -15.8820 C.3       9 GLL5        0.0000 
     57 CA         -4.3790   -1.5540  -11.8920 C.3       6 GLP5        0.0000 
     58 CA         -2.6960   -0.4908  -15.7715 C.3       3 GLC5        0.0000 
     59 CA         -4.0960   -2.0840  -15.7160 C.3       9 GLL5        0.0000 
     60 CA         -1.9760    1.2550  -15.7440 C.3       6 GLP5        0.0000 
     61 CA         -1.4093   -3.9255  -17.0330 C.3       3 GLC5        0.0000 
     62 CA         -0.4030   -5.6350  -17.5850 C.3       6 GLP5        0.0000 
     63 CA         -5.8345   -2.4737  -14.9707 C.3       3 GLC5        0.0000 
     64 CA         -4.8160   -1.4230  -16.7190 C.3       9 GLL5        0.0000 
     65 CA         -7.2130   -3.1940  -13.7240 C.3       6 GLP5        0.0000 
     66 CA         -3.2328    0.0047  -16.5297 C.3       3 GLC5        0.0000 
     67 CA         -4.8003    0.8383  -17.3517 C.3       3 GLC5        0.0000 
     68 CA         -4.1630   -1.0680  -17.9120 C.3       9 GLL5        0.0000 
     69 CA         -5.3403   -2.8284  -17.6714 C.3       3 GLC5        0.0000 
     70 CA         -6.3710   -4.2460  -18.2780 C.3       6 GLP5        0.0000 
     71 CA         -2.2140   -0.2303  -16.6668 C.3       3 GLC5        0.0000 
     72 CA         -0.5403   -1.6675  -12.0640 C.3       3 GLC5        0.0000 
     73 CA          0.7040   -3.3750  -12.7410 C.3       9 GLL5        0.0000 
     74 CA         -2.1520   -0.5230  -11.5590 C.3       6 GLP5        0.0000 
     75 CA          2.1498   -3.3480  -13.8890 C.3       3 GLC5        0.0000 
@<TRIPOS>BOND
@<TRIPOS>SUBSTRUCTURE
     1 ALC1        6 GROUP        1 X    ALC  0     ROOT ALC X 1
     2 SEC2        1 GROUP        1 X    SEC  0     **** SEC X 2
     3 GLC5        9 GROUP        1 X    GLC  0     **** GLC X 6
     4 ALP1        8 GROUP        1 Y    ALP  0     ROOT ALP Y 8
     5 SEP2        3 GROUP        1 Y    SEP  0     **** SEP Y 9
     6 GLP5       11 GROUP        1 Y    GLP  0     **** GLP Y 13
     7 ALL1        7 GROUP        1 Z    ALL  0     ROOT ALL Z 15
     8 SEL2        2 GROUP        1 Z    SEL  0     **** SEL Z 16
     9 GLL5       10 GROUP        1 Z    GLL  0     **** GLL Z 20
@<TRIPOS>SET

