#    Name: 3o8p_BMU_1_ligand
#    Modification time : Tue Mar 25 03:22:42 2014

@<TRIPOS>MOLECULE
3o8p_BMU_1_ligand
   40    41     1     0     0
SMALL
NO_CHARGES


@<TRIPOS>ATOM
      1 C1         -0.8030   -2.9520  -14.5390 C.2       1 BMU361      0.0000 
      2 O1          0.0310   -2.3730  -15.2310 O.2       1 BMU361      0.0000 
      3 N2         -2.1040   -3.0490  -14.8690 N.am      1 BMU361      0.0000 
      4 C3         -2.7360   -2.3890  -15.8820 C.ar      1 BMU361      0.0000 
      5 C4         -4.0960   -2.0840  -15.7160 C.ar      1 BMU361      0.0000 
      6 C5         -4.8160   -1.4230  -16.7190 C.ar      1 BMU361      0.0000 
      7 C6         -4.1630   -1.0680  -17.9120 C.ar      1 BMU361      0.0000 
      8 CL6        -5.0820   -0.2270  -19.2070 Cl        1 BMU361      0.0000 
      9 C7         -2.8090   -1.3880  -18.0990 C.ar      1 BMU361      0.0000 
     10 C8         -2.0950   -2.0430  -17.0800 C.ar      1 BMU361      0.0000 
     11 N9         -0.4560   -3.5630  -13.3910 N.am      1 BMU361      0.0000 
     12 C10         0.7040   -3.3750  -12.7410 C.2       1 BMU361      0.0000 
     13 C14         1.4390   -2.2490  -12.3970 C.2       1 BMU361      0.0000 
     14 C13         2.5270   -2.7860  -11.7150 C.2       1 BMU361      0.0000 
     15 N12         2.4910   -4.1290  -11.5890 N.2       1 BMU361      0.0000 
     16 N11         1.3080   -4.4800  -12.2600 N.pl3     1 BMU361      0.0000 
     17 C15         1.0360   -5.9370  -12.2970 C.3       1 BMU361      0.0000 
     18 C17         3.0350   -1.0780  -10.0050 C.3       1 BMU361      0.0000 
     19 C18         4.2430   -1.0760  -12.2520 C.3       1 BMU361      0.0000 
     20 C19         4.7300   -2.7900  -10.5330 C.3       1 BMU361      0.0000 
     21 C16         3.6270   -1.9280  -11.1360 C.3       1 BMU361      0.0000 
     22 H          -2.7180   -3.7175  -14.2739 H         1 BMU361      0.0000 
     23 H          -4.5718   -2.3517  -14.8403 H         1 BMU361      0.0000 
     24 H          -5.8015   -1.2010  -16.5877 H         1 BMU361      0.0000 
     25 H          -2.3410   -1.1452  -18.9759 H         1 BMU361      0.0000 
     26 H          -1.1042   -2.2671  -17.2150 H         1 BMU361      0.0000 
     27 H          -1.1624   -4.2542  -12.9626 H         1 BMU361      0.0000 
     28 H           1.2560   -1.3710  -12.5735 H         1 BMU361      0.0000 
     29 H           1.0135   -6.2869  -13.2335 H         1 BMU361      0.0000 
     30 H           1.7345   -6.4578  -11.8062 H         1 BMU361      0.0000 
     31 H           0.1556   -6.1612  -11.8791 H         1 BMU361      0.0000 
     32 H           3.7238   -0.4871   -9.5849 H         1 BMU361      0.0000 
     33 H           2.2998   -0.4844  -10.3323 H         1 BMU361      0.0000 
     34 H           2.6513   -1.6450   -9.2761 H         1 BMU361      0.0000 
     35 H           4.9780   -0.4906  -11.9097 H         1 BMU361      0.0000 
     36 H           4.6331   -1.6415  -12.9787 H         1 BMU361      0.0000 
     37 H           3.5656   -0.4767  -12.6786 H         1 BMU361      0.0000 
     38 H           5.1448   -3.3927  -11.2146 H         1 BMU361      0.0000 
     39 H           5.4661   -2.2344  -10.1463 H         1 BMU361      0.0000 
     40 H           4.3854   -3.3730   -9.7972 H         1 BMU361      0.0000 
@<TRIPOS>BOND
     1    2    1 2    
     2    3    1 am   
     3   11    1 am   
     4    4    3 1    
     5   22    3 1    
     6    5    4 ar   
     7   10    4 ar   
     8    6    5 ar   
     9   23    5 1    
    10    7    6 ar   
    11   24    6 1    
    12    8    7 1    
    13    9    7 ar   
    14   10    9 ar   
    15   25    9 1    
    16   26   10 1    
    17   12   11 1    
    18   27   11 1    
    19   13   12 2    
    20   16   12 1    
    21   14   13 1    
    22   28   13 1    
    23   15   14 2    
    24   21   14 1    
    25   16   15 1    
    26   17   16 1    
    27   29   17 1    
    28   30   17 1    
    29   31   17 1    
    30   21   18 1    
    31   32   18 1    
    32   33   18 1    
    33   34   18 1    
    34   21   19 1    
    35   35   19 1    
    36   36   19 1    
    37   37   19 1    
    38   21   20 1    
    39   38   20 1    
    40   39   20 1    
    41   40   20 1    
@<TRIPOS>SUBSTRUCTURE
     1 BMU361      1 GROUP   
@<TRIPOS>SET

