#    Name: 1jtx_CVI_1_INTS_M
#    Modification time : Mon Apr  7 13:02:02 2014

@<TRIPOS>MOLECULE
1jtx_CVI_1_INTS_M
   50     0     3     0     0
SMALL
NO_CHARGES


@<TRIPOS>ATOM
      1 CA        -73.8035  -50.7905    3.0795 C.3       1 GLC5        0.0000 
      2 CA        -72.1730  -50.2220    4.4950 C.3       3 GLL5        0.0000 
      3 CA        -75.4340  -51.3590    1.6640 C.3       2 GLP5        0.0000 
      4 CA        -74.8225  -45.2155    7.3805 C.3       1 GLC5        0.0000 
      5 CA        -72.8200  -44.7540    6.8010 C.3       3 GLL5        0.0000 
      6 CA        -76.8250  -45.6770    7.9600 C.3       2 GLP5        0.0000 
      7 CA        -69.3870  -42.1760    7.3075 C.3       1 GLC5        0.0000 
      8 CA        -70.6190  -43.7780    7.2680 C.3       3 GLL5        0.0000 
      9 CA        -68.1550  -40.5740    7.3470 C.3       2 GLP5        0.0000 
     10 CA        -63.4485  -48.7650    2.7975 C.3       1 GLC5        0.0000 
     11 CA        -63.8560  -47.0920    2.9630 C.3       3 GLL5        0.0000 
     12 CA        -63.0410  -50.4380    2.6320 C.3       2 GLP5        0.0000 
     13 CA        -63.9635  -43.9060    0.6735 C.3       1 GLC5        0.0000 
     14 CA        -64.8680  -45.3000    1.5460 C.3       3 GLL5        0.0000 
     15 CA        -63.0590  -42.5120   -0.1990 C.3       2 GLP5        0.0000 
     16 CA        -71.4205  -54.3485    7.1795 C.3       1 GLC5        0.0000 
     17 CA        -72.7980  -52.8320    7.3130 C.3       3 GLL5        0.0000 
     18 CA        -70.0430  -55.8650    7.0460 C.3       2 GLP5        0.0000 
     19 CA        -72.6705  -52.5165    8.8940 C.3       1 GLC5        0.0000 
     20 CA        -72.5430  -52.2010   10.4750 C.3       2 GLP5        0.0000 
     21 CA        -74.1055  -54.1880    4.2025 C.3       1 GLC5        0.0000 
     22 CA        -73.5280  -52.8360    4.9570 C.3       3 GLL5        0.0000 
     23 CA        -74.6830  -55.5400    3.4480 C.3       2 GLP5        0.0000 
     24 CA        -71.9805  -54.0395    4.8090 C.3       1 GLC5        0.0000 
     25 CA        -70.4330  -55.2430    4.6610 C.3       2 GLP5        0.0000 
     26 CA        -74.4810  -52.0975    3.3105 C.3       1 GLC5        0.0000 
     27 CA        -71.5890  -41.9725    9.7715 C.3       1 GLC5        0.0000 
     28 CA        -72.1890  -41.3340    8.0620 C.3       3 GLL5        0.0000 
     29 CA        -70.9890  -42.6110   11.4810 C.3       2 GLP5        0.0000 
     30 CA        -71.0430  -40.8745    6.7990 C.3       1 GLC5        0.0000 
     31 CA        -69.8970  -40.4150    5.5360 C.3       2 GLP5        0.0000 
     32 CA        -72.2345  -39.7230    8.5850 C.3       1 GLC5        0.0000 
     33 CA        -72.2800  -38.1120    9.1080 C.3       2 GLP5        0.0000 
     34 CA        -72.9895  -40.1550    6.8380 C.3       1 GLC5        0.0000 
     35 CA        -73.7900  -38.9760    5.6140 C.3       2 GLP5        0.0000 
     36 CA        -75.3470  -44.2895    8.4140 C.3       1 GLC5        0.0000 
     37 CA        -73.8690  -42.9020    8.8680 C.3       3 GLL5        0.0000 
     38 CA        -72.4290  -42.7565   10.1745 C.3       1 GLC5        0.0000 
     39 CA        -67.3230  -47.4787    1.4072 C.3       1 GLC5        0.0000 
     40 CA        -67.4440  -45.7080    2.8670 C.3       3 GLL5        0.0000 
     41 CA        -67.7770  -48.8320   -0.2240 C.3       2 GLP5        0.0000 
     42 CA        -69.6785  -51.0408    7.0850 C.3       1 GLC5        0.0000 
     43 CA        -70.8350  -49.0470    6.6650 C.3       3 GLL5        0.0000 
     44 CA        -68.2090  -52.4240    7.4040 C.3       2 GLP5        0.0000 
     45 CA        -73.3107  -44.9943    4.7220 C.3       1 GLC5        0.0000 
     46 CA        -72.2110  -45.8010    6.1170 C.3       3 GLL5        0.0000 
     47 CA        -74.1060  -44.7110    2.9850 C.3       2 GLP5        0.0000 
     48 CA        -71.2035  -43.9417    9.4073 C.3       1 GLC5        0.0000 
     49 CA        -72.0570  -43.7130    7.4010 C.3       3 GLL5        0.0000 
     50 CA        -71.0690  -44.1380   11.4800 C.3       2 GLP5        0.0000 
@<TRIPOS>BOND
@<TRIPOS>SUBSTRUCTURE
     1 GLC5        1 GROUP        1 X    GLC  0     ROOT GLC X 6
     2 GLP5        3 GROUP        1 Y    GLP  0     ROOT GLP Y 13
     3 GLL5        2 GROUP        1 Z    GLL  0     ROOT GLL Z 20
@<TRIPOS>SET

