#    Name: 1jtx_CVI_1_ligand
#    Modification time : Mon Apr  7 13:02:02 2014

@<TRIPOS>MOLECULE
1jtx_CVI_1_ligand
   58    60     1     0     0
SMALL
NO_CHARGES


@<TRIPOS>ATOM
      1 C1        -70.1770  -47.0560    5.2570 C.2       1 CVI200      0.0000 
      2 C2        -68.8770  -46.8910    4.5350 C.ar      1 CVI200      0.0000 
      3 C3        -68.6840  -45.8900    3.5170 C.ar      1 CVI200      0.0000 
      4 C4        -67.4440  -45.7080    2.8670 C.ar      1 CVI200      0.0000 
      5 C5        -66.2940  -46.5430    3.2100 C.ar      1 CVI200      0.0000 
      6 C6        -66.4930  -47.5640    4.2300 C.ar      1 CVI200      0.0000 
      7 C7        -67.7230  -47.7160    4.8510 C.ar      1 CVI200      0.0000 
      8 C8        -70.8390  -48.3460    5.3970 C.2       1 CVI200      0.0000 
      9 C9        -71.5320  -48.9830    4.3160 C.2       1 CVI200      0.0000 
     10 C10       -72.1730  -50.2220    4.4950 C.2       1 CVI200      0.0000 
     11 C11       -72.1590  -50.9180    5.8020 C.2       1 CVI200      0.0000 
     12 C12       -71.4610  -50.2680    6.8670 C.2       1 CVI200      0.0000 
     13 C13       -70.8350  -49.0470    6.6650 C.2       1 CVI200      0.0000 
     14 C14       -70.7730  -45.8970    5.9730 C.ar      1 CVI200      0.0000 
     15 C15       -72.2110  -45.8010    6.1170 C.ar      1 CVI200      0.0000 
     16 C16       -72.8200  -44.7540    6.8010 C.ar      1 CVI200      0.0000 
     17 C17       -72.0570  -43.7130    7.4010 C.ar      1 CVI200      0.0000 
     18 C18       -70.6190  -43.7780    7.2680 C.ar      1 CVI200      0.0000 
     19 C19       -69.9970  -44.8320    6.5810 C.ar      1 CVI200      0.0000 
     20 C20       -63.8560  -47.0920    2.9630 C.3       1 CVI200      0.0000 
     21 C21       -64.8680  -45.3000    1.5460 C.3       1 CVI200      0.0000 
     22 C22       -72.7980  -52.8320    7.3130 C.3       1 CVI200      0.0000 
     23 C23       -73.5280  -52.8360    4.9570 C.3       1 CVI200      0.0000 
     24 C24       -72.1890  -41.3340    8.0620 C.3       1 CVI200      0.0000 
     25 C25       -73.8690  -42.9020    8.8680 C.3       1 CVI200      0.0000 
     26 N1        -65.0460  -46.3370    2.5730 N.pl3     1 CVI200      0.0000 
     27 N2        -72.7960  -52.1350    6.0020 N.pl3     1 CVI200      0.0000 
     28 N3        -72.6660  -42.6950    8.0740 N.pl3     1 CVI200      0.0000 
     29 H         -69.4862  -45.2922    3.2631 H         1 CVI200      0.0000 
     30 H         -67.3274  -44.9952    2.1503 H         1 CVI200      0.0000 
     31 H         -65.6961  -48.1609    4.4694 H         1 CVI200      0.0000 
     32 H         -67.8542  -48.4465    5.5806 H         1 CVI200      0.0000 
     33 H         -71.5541  -48.5182    3.4014 H         1 CVI200      0.0000 
     34 H         -72.6678  -50.6779    3.7259 H         1 CVI200      0.0000 
     35 H         -71.4335  -50.7265    7.7870 H         1 CVI200      0.0000 
     36 H         -70.3266  -48.5874    7.4537 H         1 CVI200      0.0000 
     37 H         -72.7838  -46.5486    5.6879 H         1 CVI200      0.0000 
     38 H         -73.8499  -44.7186    6.8832 H         1 CVI200      0.0000 
     39 H         -70.0576  -43.0298    7.6908 H         1 CVI200      0.0000 
     40 H         -68.9758  -44.8688    6.4957 H         1 CVI200      0.0000 
     41 H         -63.0569  -46.8319    2.4209 H         1 CVI200      0.0000 
     42 H         -63.6199  -46.9431    3.9232 H         1 CVI200      0.0000 
     43 H         -63.9845  -48.0763    2.8420 H         1 CVI200      0.0000 
     44 H         -63.9322  -45.2827    1.1939 H         1 CVI200      0.0000 
     45 H         -65.4730  -45.4449    0.7631 H         1 CVI200      0.0000 
     46 H         -65.0639  -44.3865    1.9027 H         1 CVI200      0.0000 
     47 H         -71.8712  -53.0486    7.6199 H         1 CVI200      0.0000 
     48 H         -73.2213  -52.2762    8.0285 H         1 CVI200      0.0000 
     49 H         -73.3030  -53.6943    7.2744 H         1 CVI200      0.0000 
     50 H         -72.9414  -53.0592    4.1785 H         1 CVI200      0.0000 
     51 H         -73.9155  -53.6963    5.2882 H         1 CVI200      0.0000 
     52 H         -74.2873  -52.2890    4.6046 H         1 CVI200      0.0000 
     53 H         -71.2594  -41.2631    8.4236 H         1 CVI200      0.0000 
     54 H         -72.1735  -40.9540    7.1371 H         1 CVI200      0.0000 
     55 H         -72.7656  -40.7335    8.6160 H         1 CVI200      0.0000 
     56 H         -73.7194  -43.5628    9.6035 H         1 CVI200      0.0000 
     57 H         -74.1825  -42.0539    9.2952 H         1 CVI200      0.0000 
     58 H         -74.6255  -43.2476    8.3128 H         1 CVI200      0.0000 
@<TRIPOS>BOND
     1    2    1 1    
     2    8    1 2    
     3   14    1 1    
     4    3    2 ar   
     5    7    2 ar   
     6    4    3 ar   
     7   29    3 1    
     8    5    4 ar   
     9   30    4 1    
    10    6    5 ar   
    11   26    5 1    
    12    7    6 ar   
    13   31    6 1    
    14   32    7 1    
    15    9    8 1    
    16   13    8 1    
    17   10    9 2    
    18   33    9 1    
    19   11   10 1    
    20   34   10 1    
    21   12   11 1    
    22   27   11 2    
    23   13   12 2    
    24   35   12 1    
    25   36   13 1    
    26   15   14 ar   
    27   19   14 ar   
    28   16   15 ar   
    29   37   15 1    
    30   17   16 ar   
    31   38   16 1    
    32   18   17 ar   
    33   28   17 1    
    34   19   18 ar   
    35   39   18 1    
    36   40   19 1    
    37   26   20 1    
    38   41   20 1    
    39   42   20 1    
    40   43   20 1    
    41   26   21 1    
    42   44   21 1    
    43   45   21 1    
    44   46   21 1    
    45   27   22 1    
    46   47   22 1    
    47   48   22 1    
    48   49   22 1    
    49   27   23 1    
    50   50   23 1    
    51   51   23 1    
    52   52   23 1    
    53   28   24 1    
    54   53   24 1    
    55   54   24 1    
    56   55   24 1    
    57   28   25 1    
    58   56   25 1    
    59   57   25 1    
    60   58   25 1    
@<TRIPOS>SUBSTRUCTURE
     1 CVI200      1 GROUP   
@<TRIPOS>SET

