#    Name: 1bcp_ATP_1_INTS_M
#    Modification time : Mon Mar 24 19:29:40 2014

@<TRIPOS>MOLECULE
1bcp_ATP_1_INTS_M
   72     0    12     0     0
SMALL
NO_CHARGES


@<TRIPOS>ATOM
      1 NZ        -10.9680   13.8485   -8.4405 N.4       3 LYC4        0.0000 
      2 NZ         -9.5650   13.4250   -8.7880 N.4      11 LYL4        0.0000 
      3 NZ        -12.3710   14.2720   -8.0930 N.4       7 LYP4        0.0000 
      4 N         -10.9680   13.8485   -8.4405 N.am      2 SEC2        0.0000 
      5 N          -9.5650   13.4250   -8.7880 N.am     10 SEL2        0.0000 
      6 N         -12.3710   14.2720   -8.0930 N.am      6 SEP2        0.0000 
      7 NZ         -6.3585   13.3290   -7.8775 N.4       3 LYC4        0.0000 
      8 NZ         -7.3340   12.4010   -8.2660 N.4      11 LYL4        0.0000 
      9 NZ         -4.0900   14.4550   -7.6450 N.4       7 LYP4        0.0000 
     10 N          -6.3585   13.3290   -7.8775 N.am      2 SEC2        0.0000 
     11 N          -7.3340   12.4010   -8.2660 N.am     10 SEL2        0.0000 
     12 N          -5.3830   14.2570   -7.4890 N.am      6 SEP2        0.0000 
     13 NZ         -6.5105   14.5735   -7.8165 N.4       3 LYC4        0.0000 
     14 NZ         -7.6380   14.8900   -8.1440 N.4      11 LYL4        0.0000 
     15 N          -8.2170   15.0270   -6.7010 N.am      2 SEC2        0.0000 
     16 N          -7.6380   14.8900   -8.1440 N.am     10 SEL2        0.0000 
     17 N          -8.7960   15.1640   -5.2580 N.am      6 SEP2        0.0000 
     18 N          -6.5105   14.5735   -7.8165 N.am      2 SEC2        0.0000 
     19 N          -7.6530   11.7130  -12.7210 N.am      2 SEC2        0.0000 
     20 N          -8.6080   11.9100  -11.6300 N.am     10 SEL2        0.0000 
     21 N          -6.6980   11.5160  -13.8120 N.am      6 SEP2        0.0000 
     22 N          -6.1780   14.0355  -12.2610 N.am      2 SEC2        0.0000 
     23 N          -7.7320   14.0730  -12.7140 N.am     10 SEL2        0.0000 
     24 N          -4.6240   13.9980  -11.8080 N.am      6 SEP2        0.0000 
     25 N          -7.8790   15.0880  -13.9730 N.am      2 SEC2        0.0000 
     26 N          -8.0260   16.1030  -15.2320 N.am      6 SEP2        0.0000 
     27 N          -6.1070   13.8765  -11.0340 N.am      2 SEC2        0.0000 
     28 N          -7.5900   13.7550  -10.2600 N.am     10 SEL2        0.0000 
     29 NZ         -8.8335   16.1020  -14.0575 N.4       3 LYC4        0.0000 
     30 NZ         -9.6410   16.1010  -12.8830 N.4      11 LYL4        0.0000 
     31 NZ         -8.4200   17.1470  -15.9390 N.4       7 LYP4        0.0000 
     32 N          -8.9630   17.3720  -12.1830 N.am      2 SEC2        0.0000 
     33 N          -9.6410   16.1010  -12.8830 N.am     10 SEL2        0.0000 
     34 N          -8.2850   18.6430  -11.4830 N.am      6 SEP2        0.0000 
     35 N          -8.8335   16.1020  -14.0575 N.am      2 SEC2        0.0000 
     36 N          -9.5085   17.0170  -14.1750 N.am      2 SEC2        0.0000 
     37 N          -9.3760   17.9330  -15.4670 N.am      6 SEP2        0.0000 
     38 CA        -12.9515   11.6780  -13.0940 C.3       4 GLC5        0.0000 
     39 CA        -11.4160   12.7650  -13.8080 C.3      12 GLL5        0.0000 
     40 CA        -14.4870   10.5910  -12.3800 C.3       8 GLP5        0.0000 
     41 CA        -12.8550   14.3925  -13.2390 C.3       4 GLC5        0.0000 
     42 CA        -14.2940   16.0200  -12.6700 C.3       8 GLP5        0.0000 
     43 CA        -12.1780   11.3360  -16.8435 C.3       4 GLC5        0.0000 
     44 CA        -11.2790   11.8250  -15.0730 C.3      12 GLL5        0.0000 
     45 CA        -13.0770   10.8470  -18.6140 C.3       8 GLP5        0.0000 
     46 CA        -10.4830    9.1970  -14.9115 C.3       4 GLC5        0.0000 
     47 CA         -9.9440   11.3120  -15.3990 C.3      12 GLL5        0.0000 
     48 CA        -11.0220    7.0820  -14.4240 C.3       8 GLP5        0.0000 
     49 O          -9.3285    9.5365  -16.2005 O.2       1 ALC1        0.0000 
     50 O         -10.0160   10.5100  -16.5730 O.2       9 ALL1        0.0000 
     51 O          -8.6410    8.5630  -15.8280 O.2       5 ALP1        0.0000 
     52 O          -7.3905   12.2120  -14.9895 O.2       1 ALC1        0.0000 
     53 O          -8.0830   12.9080  -16.1670 O.2       9 ALL1        0.0000 
     54 O          -6.6980   11.5160  -13.8120 O.2       5 ALP1        0.0000 
     55 CA        -11.7445   11.8585  -17.6135 C.3       4 GLC5        0.0000 
     56 CA        -10.4120   12.8700  -16.6130 C.3      12 GLL5        0.0000 
     57 CA        -12.7210   16.7825  -20.9200 C.3       4 GLC5        0.0000 
     58 CA        -10.7160   16.2260  -20.1550 C.3      12 GLL5        0.0000 
     59 CA        -14.7260   17.3390  -21.6850 C.3       8 GLP5        0.0000 
     60 CA        -11.0320   13.1580  -22.2365 C.3       4 GLC5        0.0000 
     61 CA        -10.0580   14.1390  -20.8300 C.3      12 GLL5        0.0000 
     62 CA        -12.0060   12.1770  -23.6430 C.3       8 GLP5        0.0000 
     63 CA         -8.6120   15.1430  -20.0160 C.3       4 GLC5        0.0000 
     64 CA         -7.1660   16.1470  -19.2020 C.3       8 GLP5        0.0000 
     65 CA        -11.7210   12.6285  -18.6485 C.3       4 GLC5        0.0000 
     66 CA        -10.3650   14.4100  -18.6830 C.3      12 GLL5        0.0000 
     67 CA        -12.1073   10.3573  -14.6970 C.3       4 GLC5        0.0000 
     68 CA        -13.6030    9.1460  -14.1580 C.3       8 GLP5        0.0000 
     69 CA        -11.9580   17.6110  -18.7530 C.3       4 GLC5        0.0000 
     70 CA        -10.7120   15.7260  -18.8510 C.3      12 GLL5        0.0000 
     71 CA        -13.2020   19.2460  -18.0030 C.3       8 GLP5        0.0000 
     72 CA         -8.8528   15.6700  -19.1475 C.3       4 GLC5        0.0000 
@<TRIPOS>BOND
@<TRIPOS>SUBSTRUCTURE
     1 ALC1       49 GROUP        1 X    ALC  0     ROOT ALC X 1
     2 SEC2        4 GROUP        1 X    SEC  0     **** SEC X 2
     3 LYC4        1 GROUP        1 X    LYC  0     **** LYC X 4
     4 GLC5       38 GROUP        1 X    GLC  0     **** GLC X 6
     5 ALP1       51 GROUP        1 Y    ALP  0     ROOT ALP Y 8
     6 SEP2        6 GROUP        1 Y    SEP  0     **** SEP Y 9
     7 LYP4        3 GROUP        1 Y    LYP  0     **** LYP Y 11
     8 GLP5       40 GROUP        1 Y    GLP  0     **** GLP Y 13
     9 ALL1       50 GROUP        1 Z    ALL  0     ROOT ALL Z 15
    10 SEL2        5 GROUP        1 Z    SEL  0     **** SEL Z 16
    11 LYL4        2 GROUP        1 Z    LYL  0     **** LYL Z 18
    12 GLL5       39 GROUP        1 Z    GLL  0     **** GLL Z 20
@<TRIPOS>SET

