#    Name: 1bcp_ATP_1_ligand
#    Modification time : Mon Mar 24 19:29:40 2014

@<TRIPOS>MOLECULE
1bcp_ATP_1_ligand
   43    45     1     0     0
SMALL
NO_CHARGES


@<TRIPOS>ATOM
      1 PG         -8.0860   13.6030   -8.7250 P.3       1 ATP111      0.0000 
      2 O1G        -9.5650   13.4250   -8.7880 O.co2     1 ATP111      0.0000 
      3 O2G        -7.3340   12.4010   -8.2660 O.co2     1 ATP111      0.0000 
      4 O3G        -7.6380   14.8900   -8.1440 O.co2     1 ATP111      0.0000 
      5 PB         -8.4130   13.3850  -11.5990 P.3       1 ATP111      0.0000 
      6 O1B        -8.6080   11.9100  -11.6300 O.co2     1 ATP111      0.0000 
      7 O2B        -7.7320   14.0730  -12.7140 O.co2     1 ATP111      0.0000 
      8 O3B        -7.5900   13.7550  -10.2600 O.3       1 ATP111      0.0000 
      9 PA        -10.5370   14.9760  -12.5350 P.3       1 ATP111      0.0000 
     10 O1A       -11.9070   15.2630  -12.0850 O.co2     1 ATP111      0.0000 
     11 O2A        -9.6410   16.1010  -12.8830 O.co2     1 ATP111      0.0000 
     12 O3A        -9.8480   14.0790  -11.4030 O.3       1 ATP111      0.0000 
     13 O5'       -10.6650   13.9920  -13.8030 O.3       1 ATP111      0.0000 
     14 C5'       -11.4160   12.7650  -13.8080 C.3       1 ATP111      0.0000 
     15 C4'       -11.2790   11.8250  -15.0730 C.3       1 ATP111      0.0000 
     16 O4'       -11.7290   12.5960  -16.2000 O.3       1 ATP111      0.0000 
     17 C3'        -9.9440   11.3120  -15.3990 C.3       1 ATP111      0.0000 
     18 O3'       -10.0160   10.5100  -16.5730 O.3       1 ATP111      0.0000 
     19 C2'        -9.4100   12.9330  -15.6100 C.3       1 ATP111      0.0000 
     20 O2'        -8.0830   12.9080  -16.1670 O.3       1 ATP111      0.0000 
     21 C1'       -10.4120   12.8700  -16.6130 C.3       1 ATP111      0.0000 
     22 N9        -10.4240   14.1580  -17.3180 N.pl3     1 ATP111      0.0000 
     23 C8        -10.8270   15.3490  -16.7730 C.2       1 ATP111      0.0000 
     24 N7        -11.0130   16.3080  -17.6290 N.2       1 ATP111      0.0000 
     25 C5        -10.7120   15.7260  -18.8510 C.ar      1 ATP111      0.0000 
     26 C6        -10.7160   16.2260  -20.1550 C.ar      1 ATP111      0.0000 
     27 N6        -10.8950   17.5150  -20.4310 N.pl3     1 ATP111      0.0000 
     28 N1        -10.3780   15.3880  -21.1260 N.ar      1 ATP111      0.0000 
     29 C2        -10.0580   14.1390  -20.8300 C.ar      1 ATP111      0.0000 
     30 N3        -10.0130   13.5370  -19.6550 N.ar      1 ATP111      0.0000 
     31 C4        -10.3650   14.4100  -18.6830 C.ar      1 ATP111      0.0000 
     32 H         -12.5172   12.9595  -13.6900 H         1 ATP111      0.0000 
     33 H         -11.1567   12.1236  -12.9216 H         1 ATP111      0.0000 
     34 H         -11.9792   10.9992  -14.9236 H         1 ATP111      0.0000 
     35 H          -9.4752   11.0041  -14.5641 H         1 ATP111      0.0000 
     36 H          -9.6740   13.3657  -14.8037 H         1 ATP111      0.0000 
     37 H         -10.1047   12.1191  -17.3839 H         1 ATP111      0.0000 
     38 H         -10.9598   15.4380  -15.7718 H         1 ATP111      0.0000 
     39 H         -10.9837   18.1253  -19.6438 H         1 ATP111      0.0000 
     40 H         -10.9247   17.7574  -21.4007 H         1 ATP111      0.0000 
     41 H          -9.7856   13.4991  -21.7036 H         1 ATP111      0.0000 
     42 H          -9.9155    9.5690  -16.2499 H         1 ATP111      0.0000 
     43 H          -7.5215   12.4508  -15.4773 H         1 ATP111      0.0000 
@<TRIPOS>BOND
     1    2    1 ar   
     2    3    1 ar   
     3    4    1 ar   
     4    8    1 1    
     5    6    5 ar   
     6    7    5 ar   
     7    8    5 1    
     8   12    5 1    
     9   10    9 ar   
    10   11    9 ar   
    11   12    9 1    
    12   13    9 1    
    13   14   13 1    
    14   15   14 1    
    15   32   14 1    
    16   33   14 1    
    17   16   15 1    
    18   17   15 1    
    19   34   15 1    
    20   21   16 1    
    21   18   17 1    
    22   19   17 1    
    23   35   17 1    
    24   42   18 1    
    25   20   19 1    
    26   21   19 1    
    27   36   19 1    
    28   43   20 1    
    29   22   21 1    
    30   37   21 1    
    31   23   22 1    
    32   31   22 1    
    33   24   23 2    
    34   38   23 1    
    35   25   24 1    
    36   26   25 ar   
    37   31   25 ar   
    38   27   26 1    
    39   28   26 ar   
    40   39   27 1    
    41   40   27 1    
    42   29   28 ar   
    43   30   29 ar   
    44   41   29 1    
    45   31   30 ar   
@<TRIPOS>SUBSTRUCTURE
     1 ATP111      1 GROUP   
@<TRIPOS>SET

