#    Name: 1X1I_1_CAVITY_N1_6.mol2
#    Modification time : Mon Mar 10 17:19:00 2014

@<TRIPOS>MOLECULE
1X1I_1_CAVITY_N1_6.mol2
  169     0     7     0     0
SMALL
NO_CHARGES


@<TRIPOS>ATOM
      1 N           6.7215  -61.4396   44.0940 N.2       2 ALA2        0.0000 
      2 N           6.3789  -60.0872   43.5430 N.2       2 ALA2        0.0000 
      3 NZ          5.6700  -63.2635   44.3545 N.2       4 LYS4        0.0000 
      4 N           5.3274  -61.9111   43.8035 N.2       2 ALA2        0.0000 
      5 N           4.9849  -60.5587   43.2525 N.2       2 ALA2        0.0000 
      6 CA          7.6804  -60.5224   45.7491 C.3       6 GLY6        0.0000 
      7 NZ          7.3378  -59.1700   45.1981 N.2       4 LYS4        0.0000 
      8 CA          6.2864  -60.9939   45.4586 C.3       6 GLY6        0.0000 
      9 NZ          5.9438  -59.6415   44.9076 N.2       4 LYS4        0.0000 
     10 N           5.6012  -58.2891   44.3566 N.2       2 ALA2        0.0000 
     11 CA          5.2349  -62.8178   45.7190 C.3       6 GLY6        0.0000 
     12 NZ          4.8923  -61.4654   45.1680 N.2       4 LYS4        0.0000 
     13 N           4.5498  -60.1129   44.6171 N.2       2 ALA2        0.0000 
     14 N           4.2072  -58.7605   44.0661 N.2       2 ALA2        0.0000 
     15 NZ          3.4983  -61.9368   44.8775 N.2       4 LYS4        0.0000 
     16 N           3.1557  -60.5844   44.3266 N.2       2 ALA2        0.0000 
     17 NZ          8.2968  -58.2528   46.8532 N.2       4 LYS4        0.0000 
     18 CA          7.2453  -60.0767   47.1136 C.3       6 GLY6        0.0000 
     19 NZ          6.9027  -58.7243   46.5626 N.2       4 LYS4        0.0000 
     20 CA          5.8513  -60.5482   46.8231 C.3       6 GLY6        0.0000 
     21 DU          5.5087  -59.1958   46.2721 H         7 CUB7        0.0000 
     22 NZ          5.1661  -57.8433   45.7212 N.2       4 LYS4        0.0000 
     23 NZ          4.8235  -56.4909   45.1702 N.2       4 LYS4        0.0000 
     24 OD1         4.7998  -62.3721   47.0836 O.3       3 ASP3        0.0000 
     25 O           4.4572  -61.0197   46.5326 O.2       2 ALA2        0.0000 
     26 O           4.1147  -59.6672   45.9816 O.2       2 ALA2        0.0000 
     27 N           3.7721  -58.3148   45.4306 N.2       2 ALA2        0.0000 
     28 N           3.4295  -56.9624   44.8797 N.2       2 ALA2        0.0000 
     29 O           2.7206  -60.1387   45.6911 O.2       2 ALA2        0.0000 
     30 N           2.3781  -58.7863   45.1401 N.2       2 ALA2        0.0000 
     31 CZ          2.0355  -57.4338   44.5892 C.ar      5 PHE5        0.0000 
     32 O           1.3266  -60.6102   45.4006 O.2       2 ALA2        0.0000 
     33 N           0.9840  -59.2577   44.8496 N.2       2 ALA2        0.0000 
     34 CZ          0.6414  -57.9053   44.2986 C.ar      5 PHE5        0.0000 
     35 N          -0.0674  -61.0816   45.1101 N.2       2 ALA2        0.0000 
     36 N          -0.4100  -59.7292   44.5591 N.2       2 ALA2        0.0000 
     37 CZ         -0.7526  -58.3768   44.0081 C.ar      5 PHE5        0.0000 
     38 CA         -2.1466  -58.8482   43.7176 C.3       6 GLY6        0.0000 
     39 CA         -3.5406  -59.3197   43.4271 C.3       6 GLY6        0.0000 
     40 N          -4.5921  -61.1436   43.6876 N.2       2 ALA2        0.0000 
     41 O          -4.9347  -59.7912   43.1366 O.2       2 ALA2        0.0000 
     42 O          -5.9861  -61.6151   43.3971 O.2       2 ALA2        0.0000 
     43 O          -6.3287  -60.2626   42.8461 O.2       2 ALA2        0.0000 
     44 CZ          7.1528  -60.9835   49.0292 C.ar      5 PHE5        0.0000 
     45 CZ          6.8102  -59.6310   48.4782 C.ar      5 PHE5        0.0000 
     46 CZ          6.4676  -58.2786   47.9272 C.ar      5 PHE5        0.0000 
     47 NZ          6.1250  -56.9262   47.3762 N.2       4 LYS4        0.0000 
     48 NZ          5.7825  -55.5737   46.8252 N.2       4 LYS4        0.0000 
     49 O           5.7587  -61.4549   48.7387 O.2       2 ALA2        0.0000 
     50 OG          5.4162  -60.1025   48.1877 O.2       1 SER1        0.0000 
     51 OG          5.0736  -58.7501   47.6367 O.2       1 SER1        0.0000 
     52 OG          4.7310  -57.3976   47.0857 O.2       1 SER1        0.0000 
     53 NZ          4.3884  -56.0452   46.5347 N.2       4 LYS4        0.0000 
     54 O           4.0221  -60.5740   47.8972 O.2       2 ALA2        0.0000 
     55 OG          3.6796  -59.2215   47.3462 O.2       1 SER1        0.0000 
     56 OG          3.3370  -57.8691   46.7952 O.2       1 SER1        0.0000 
     57 DU          2.9944  -56.5167   46.2442 H         7 CUB7        0.0000 
     58 CZ          2.6518  -55.1642   45.6932 C.ar      5 PHE5        0.0000 
     59 O           1.9429  -58.3406   46.5047 O.2       2 ALA2        0.0000 
     60 CZ          1.6004  -56.9881   45.9537 C.ar      5 PHE5        0.0000 
     61 O           0.5489  -58.8120   46.2142 O.2       2 ALA2        0.0000 
     62 CZ          0.2063  -57.4596   45.6632 C.ar      5 PHE5        0.0000 
     63 O          -0.5025  -60.6359   46.4747 O.2       2 ALA2        0.0000 
     64 O          -0.8451  -59.2835   45.9237 O.2       2 ALA2        0.0000 
     65 CZ         -1.1877  -57.9311   45.3727 C.ar      5 PHE5        0.0000 
     66 O          -2.2392  -59.7549   45.6332 O.2       2 ALA2        0.0000 
     67 CA         -2.5817  -58.4025   45.0822 C.3       6 GLY6        0.0000 
     68 O          -3.6332  -60.2264   45.3427 O.2       2 ALA2        0.0000 
     69 CA         -3.9758  -58.8740   44.7917 C.3       6 GLY6        0.0000 
     70 CA         -4.3183  -57.5216   44.2407 C.3       6 GLY6        0.0000 
     71 O          -5.3698  -59.3454   44.5012 O.2       2 ALA2        0.0000 
     72 CA         -5.7124  -57.9930   43.9502 C.3       6 GLY6        0.0000 
     73 CA         -6.0549  -56.6406   43.3992 C.3       6 GLY6        0.0000 
     74 O          -6.4212  -61.1693   44.7616 O.2       2 ALA2        0.0000 
     75 O          -6.7638  -59.8169   44.2107 O.2       2 ALA2        0.0000 
     76 O          -7.1064  -58.4645   43.6597 O.2       2 ALA2        0.0000 
     77 CA         -7.8153  -61.6408   44.4711 C.3       6 GLY6        0.0000 
     78 O          -8.1579  -60.2884   43.9202 O.2       2 ALA2        0.0000 
     79 O          -8.5004  -58.9359   43.3692 O.2       2 ALA2        0.0000 
     80 OG          4.2959  -56.9519   48.4503 O.2       1 SER1        0.0000 
     81 DU          3.9533  -55.5995   47.8993 H         7 CUB7        0.0000 
     82 DU          3.6108  -54.2471   47.3483 H         7 CUB7        0.0000 
     83 OG          2.9019  -57.4234   48.1598 O.2       1 SER1        0.0000 
     84 DU          2.5593  -56.0710   47.6088 H         7 CUB7        0.0000 
     85 CZ          2.2167  -54.7185   47.0578 C.ar      5 PHE5        0.0000 
     86 OG          1.5078  -57.8948   47.8693 O.2       1 SER1        0.0000 
     87 O           1.1653  -56.5424   47.3183 O.2       2 ALA2        0.0000 
     88 CZ          0.8227  -55.1900   46.7673 C.ar      5 PHE5        0.0000 
     89 O           0.1138  -58.3663   47.5787 O.2       2 ALA2        0.0000 
     90 O          -0.2288  -57.0139   47.0278 O.2       2 ALA2        0.0000 
     91 CZ         -0.5713  -55.6615   46.4768 C.ar      5 PHE5        0.0000 
     92 O          -1.6228  -57.4853   46.7373 O.2       2 ALA2        0.0000 
     93 CZ         -1.9654  -56.1329   46.1863 C.ar      5 PHE5        0.0000 
     94 O          -3.0168  -57.9568   46.4467 O.2       2 ALA2        0.0000 
     95 O          -3.3594  -56.6044   45.8958 O.2       2 ALA2        0.0000 
     96 O          -4.4109  -58.4283   46.1562 O.2       2 ALA2        0.0000 
     97 OG         -4.7534  -57.0758   45.6053 O.2       1 SER1        0.0000 
     98 CA         -5.0960  -55.7234   45.0543 C.3       6 GLY6        0.0000 
     99 OG         -5.8049  -58.8997   45.8657 O.2       1 SER1        0.0000 
    100 OG         -6.1475  -57.5473   45.3147 O.2       1 SER1        0.0000 
    101 CA         -6.4900  -56.1949   44.7638 C.3       6 GLY6        0.0000 
    102 CA         -6.8326  -54.8425   44.2128 C.3       6 GLY6        0.0000 
    103 CA         -6.8564  -60.7236   46.1262 C.3       6 GLY6        0.0000 
    104 OG         -7.1989  -59.3712   45.5752 O.2       1 SER1        0.0000 
    105 OG         -7.5415  -58.0188   45.0242 O.2       1 SER1        0.0000 
    106 CZ         -7.8841  -56.6663   44.4733 C.ar      5 PHE5        0.0000 
    107 CZ         -8.2266  -55.3139   43.9223 C.ar      5 PHE5        0.0000 
    108 N          -8.5930  -59.8427   45.2847 N.2       2 ALA2        0.0000 
    109 N          -8.9355  -58.4902   44.7337 N.2       2 ALA2        0.0000 
    110 N          -9.2781  -57.1378   44.1827 N.2       2 ALA2        0.0000 
    111 DU          4.5697  -53.3299   49.0034 H         7 CUB7        0.0000 
    112 CZ          3.5182  -55.1538   49.2639 C.ar      5 PHE5        0.0000 
    113 DU          3.1757  -53.8014   48.7129 H         7 CUB7        0.0000 
    114 OG          2.4668  -56.9777   49.5243 O.2       1 SER1        0.0000 
    115 O           2.1242  -55.6252   48.9733 O.2       2 ALA2        0.0000 
    116 DU          1.7816  -54.2728   48.4224 H         7 CUB7        0.0000 
    117 DU          1.4390  -52.9204   47.8714 H         7 CUB7        0.0000 
    118 CZ          1.0965  -51.5680   47.3204 C.ar      5 PHE5        0.0000 
    119 O           0.7302  -56.0967   48.6828 O.2       2 ALA2        0.0000 
    120 O           0.3876  -54.7443   48.1319 O.2       2 ALA2        0.0000 
    121 CZ          0.0450  -53.3919   47.5809 C.ar      5 PHE5        0.0000 
    122 CZ         -0.2976  -52.0394   47.0299 C.ar      5 PHE5        0.0000 
    123 O          -0.6639  -56.5682   48.3923 O.2       2 ALA2        0.0000 
    124 O          -1.0064  -55.2157   47.8413 O.2       2 ALA2        0.0000 
    125 CZ         -1.3490  -53.8633   47.2904 C.ar      5 PHE5        0.0000 
    126 O          -2.0579  -57.0396   48.1018 O.2       2 ALA2        0.0000 
    127 CZ         -2.4005  -55.6872   47.5508 C.ar      5 PHE5        0.0000 
    128 O          -3.4519  -57.5111   47.8113 O.2       2 ALA2        0.0000 
    129 CZ         -3.7945  -56.1587   47.2603 C.ar      5 PHE5        0.0000 
    130 CZ         -7.2677  -54.3967   45.5773 C.ar      5 PHE5        0.0000 
    131 N          -8.3192  -56.2206   45.8378 N.2       2 ALA2        0.0000 
    132 CZ         -8.6617  -54.8682   45.2868 C.ar      5 PHE5        0.0000 
    133 CZ          4.4772  -54.2366   50.9189 C.ar      5 PHE5        0.0000 
    134 DU          4.1346  -52.8842   50.3679 H         7 CUB7        0.0000 
    135 DU          3.7920  -51.5317   49.8170 H         7 CUB7        0.0000 
    136 CZ          3.0831  -54.7081   50.6284 C.ar      5 PHE5        0.0000 
    137 DU          2.7405  -53.3556   50.0774 H         7 CUB7        0.0000 
    138 DU          2.3980  -52.0032   49.5264 H         7 CUB7        0.0000 
    139 NZ          2.0554  -50.6508   48.9755 N.2       4 LYS4        0.0000 
    140 O           1.6891  -55.1795   50.3379 O.2       2 ALA2        0.0000 
    141 DU          1.3465  -53.8271   49.7869 H         7 CUB7        0.0000 
    142 OG          1.0039  -52.4747   49.2359 O.2       1 SER1        0.0000 
    143 OG          0.6614  -51.1222   48.6850 O.2       1 SER1        0.0000 
    144 O          -0.0475  -54.2986   49.4964 O.2       2 ALA2        0.0000 
    145 OG         -0.3901  -52.9461   48.9454 O.2       1 SER1        0.0000 
    146 O          -1.4416  -54.7700   49.2059 O.2       2 ALA2        0.0000 
    147 OG         -1.7841  -53.4176   48.6549 O.2       1 SER1        0.0000 
    148 O          -2.4930  -56.5939   49.4664 O.2       2 ALA2        0.0000 
    149 NZ         -2.8356  -55.2415   48.9154 N.2       4 LYS4        0.0000 
    150 O          -3.8870  -57.0654   49.1759 O.2       2 ALA2        0.0000 
    151 CZ         -9.0969  -54.4225   46.6514 C.ar      5 PHE5        0.0000 
    152 CZ          4.0420  -53.7909   52.2835 C.ar      5 PHE5        0.0000 
    153 CZ          2.6480  -54.2624   51.9930 C.ar      5 PHE5        0.0000 
    154 DU          2.3054  -52.9099   51.4420 H         7 CUB7        0.0000 
    155 DU          1.9629  -51.5575   50.8910 H         7 CUB7        0.0000 
    156 NZ          1.6203  -50.2051   50.3400 N.2       4 LYS4        0.0000 
    157 NZ          1.2540  -54.7338   51.7025 N.2       4 LYS4        0.0000 
    158 NZ          0.9114  -53.3814   51.1515 N.2       4 LYS4        0.0000 
    159 OG          0.5688  -52.0290   50.6005 O.2       1 SER1        0.0000 
    160 OG          0.2263  -50.6765   50.0495 O.2       1 SER1        0.0000 
    161 NZ         -0.4826  -53.8529   50.8610 N.2       4 LYS4        0.0000 
    162 CA          2.2129  -53.8167   53.3575 C.3       6 GLY6        0.0000 
    163 DU          1.8703  -52.4642   52.8066 H         7 CUB7        0.0000 
    164 DU          1.5278  -51.1118   52.2556 H         7 CUB7        0.0000 
    165 NZ          0.4763  -52.9357   52.5160 N.2       4 LYS4        0.0000 
    166 OG          0.1337  -51.5833   51.9651 O.2       1 SER1        0.0000 
    167 OG         -0.2088  -50.2308   51.4141 O.2       1 SER1        0.0000 
    168 NZ          0.0412  -52.4900   53.8806 N.2       4 LYS4        0.0000 
    169 CA         -0.3014  -51.1375   53.3296 C.3       6 GLY6        0.0000 
@<TRIPOS>BOND
@<TRIPOS>SUBSTRUCTURE
     1 SER1       50 GROUP   
     2 ALA2        1 GROUP   
     3 ASP3       24 GROUP   
     4 LYS4        3 GROUP   
     5 PHE5       31 GROUP   
     6 GLY6        6 GROUP   
     7 CUB7       21 GROUP   
@<TRIPOS>SET

