#    Name: 1x1i_46M_1_INTS_M
#    Modification time : Mon Apr  7 15:05:19 2014

@<TRIPOS>MOLECULE
1x1i_46M_1_INTS_M
   43     0     9     0     0
SMALL
NO_CHARGES


@<TRIPOS>ATOM
      1 N          -0.5595  -56.2440   49.8345 N.am      1 SEC2        0.0000 
      2 N          -0.8990  -54.9780   48.9010 N.am      7 SEL2        0.0000 
      3 N          -0.2200  -57.5100   50.7680 N.am      4 SEP2        0.0000 
      4 CA         -1.0755  -54.6880   45.7465 C.3       3 GLC5        0.0000 
      5 CA         -1.3460  -55.5340   47.6610 C.3       9 GLL5        0.0000 
      6 CA         -0.8050  -53.8420   43.8320 C.3       6 GLP5        0.0000 
      7 CA          0.0540  -55.4570   45.3770 C.3       3 GLC5        0.0000 
      8 CA         -0.3450  -56.5850   47.1740 C.3       9 GLL5        0.0000 
      9 CA          0.4530  -54.3290   43.5800 C.3       6 GLP5        0.0000 
     10 NZ          1.0030  -58.1165   49.6765 N.4       2 LYC4        0.0000 
     11 NZ          2.3640  -57.4060   48.7110 N.4       8 LYL4        0.0000 
     12 NZ         -0.3580  -58.8270   50.6420 N.4       5 LYP4        0.0000 
     13 N           3.0115  -58.2760   49.4180 N.am      1 SEC2        0.0000 
     14 N           2.3640  -57.4060   48.7110 N.am      7 SEL2        0.0000 
     15 N           3.6590  -59.1460   50.1250 N.am      4 SEP2        0.0000 
     16 N           2.1905  -60.4810   47.6600 N.am      1 SEC2        0.0000 
     17 N           2.5770  -59.0690   47.2460 N.am      7 SEL2        0.0000 
     18 N           1.8040  -61.8930   48.0740 N.am      4 SEP2        0.0000 
     19 CA          0.9145  -58.5490   43.4575 C.3       3 GLC5        0.0000 
     20 CA          0.1300  -58.2960   45.5140 C.3       9 GLL5        0.0000 
     21 CA          1.6990  -58.8020   41.4010 C.3       6 GLP5        0.0000 
     22 CA         -3.5375  -56.1235   44.7065 C.3       3 GLC5        0.0000 
     23 CA         -3.1540  -56.8630   46.5430 C.3       9 GLL5        0.0000 
     24 CA         -3.9210  -55.3840   42.8700 C.3       6 GLP5        0.0000 
     25 N          -5.6175  -57.5290   47.3550 N.am      1 SEC2        0.0000 
     26 N          -4.4110  -57.5170   46.7340 N.am      7 SEL2        0.0000 
     27 N          -6.8240  -57.5410   47.9760 N.am      4 SEP2        0.0000 
     28 N          -4.3230  -58.7610   47.5015 N.am      1 SEC2        0.0000 
     29 N          -4.2350  -60.0050   48.2690 N.am      4 SEP2        0.0000 
     30 N          -1.4595  -57.3025   49.8345 N.am      1 SEC2        0.0000 
     31 N          -2.6990  -57.0950   48.9010 N.am      7 SEL2        0.0000 
     32 N          -1.9495  -58.2080   49.3245 N.am      1 SEC2        0.0000 
     33 N          -1.2000  -59.3210   49.7480 N.am      4 SEP2        0.0000 
     34 CA          1.5853  -56.0457   44.5440 C.3       3 GLC5        0.0000 
     35 CA          1.9030  -56.9380   46.4280 C.3       9 GLL5        0.0000 
     36 CA          0.6480  -55.5390   42.8890 C.3       6 GLP5        0.0000 
     37 CA         -0.4083  -57.0295   44.0752 C.3       3 GLC5        0.0000 
     38 CA         -0.4350  -56.2870   42.4340 C.3       6 GLP5        0.0000 
     39 CA         -3.1901  -54.4589   46.8543 C.3       3 GLC5        0.0000 
     40 CA         -3.7820  -52.5660   46.5640 C.3       6 GLP5        0.0000 
     41 CA         -4.7097  -55.8460   47.6950 C.3       3 GLC5        0.0000 
     42 CA         -2.7390  -56.1470   47.8310 C.3       9 GLL5        0.0000 
     43 CA         -6.4730  -55.1870   48.2030 C.3       6 GLP5        0.0000 
@<TRIPOS>BOND
@<TRIPOS>SUBSTRUCTURE
     1 SEC2        1 GROUP        1 X    SEC  0     ROOT SEC X 2
     2 LYC4       10 GROUP        1 X    LYC  0     **** LYC X 4
     3 GLC5        4 GROUP        1 X    GLC  0     **** GLC X 6
     4 SEP2        3 GROUP        1 Y    SEP  0     ROOT SEP Y 9
     5 LYP4       12 GROUP        1 Y    LYP  0     **** LYP Y 11
     6 GLP5        6 GROUP        1 Y    GLP  0     **** GLP Y 13
     7 SEL2        2 GROUP        1 Z    SEL  0     ROOT SEL Z 16
     8 LYL4       11 GROUP        1 Z    LYL  0     **** LYL Z 18
     9 GLL5        5 GROUP        1 Z    GLL  0     **** GLL Z 20
@<TRIPOS>SET

