#    Name: 1x1i_46M_1_ligand
#    Modification time : Mon Apr  7 15:05:19 2014

@<TRIPOS>MOLECULE
1x1i_46M_1_ligand
   30    31     1     0     0
SMALL
NO_CHARGES


@<TRIPOS>ATOM
      1 O3         -0.8990  -54.9780   48.9010 O.3       1 46M780      0.0000 
      2 C3         -1.3460  -55.5340   47.6610 C.3       1 46M780      0.0000 
      3 C4         -0.3450  -56.5850   47.1740 C.3       1 46M780      0.0000 
      4 O4          0.9310  -55.9900   46.8900 O.3       1 46M780      0.0000 
      5 C7          1.9030  -56.9380   46.4280 C.3       1 46M780      0.0000 
      6 C9          2.3150  -57.8870   47.5590 C.2       1 46M780      0.0000 
      7 O7          2.3640  -57.4060   48.7110 O.co2     1 46M780      0.0000 
      8 O8          2.5770  -59.0690   47.2460 O.co2     1 46M780      0.0000 
      9 C8          3.1420  -56.1670   45.9700 C.3       1 46M780      0.0000 
     10 O6          1.4040  -57.6660   45.2970 O.3       1 46M780      0.0000 
     11 C6          0.1300  -58.2960   45.5140 C.3       1 46M780      0.0000 
     12 C5         -0.8930  -57.2480   45.9190 C.3       1 46M780      0.0000 
     13 O5         -2.1690  -57.8500   46.1930 O.3       1 46M780      0.0000 
     14 C1         -3.1540  -56.8630   46.5430 C.3       1 46M780      0.0000 
     15 O1         -4.4110  -57.5170   46.7340 O.3       1 46M780      0.0000 
     16 C2         -2.7390  -56.1470   47.8310 C.3       1 46M780      0.0000 
     17 O2         -2.6990  -57.0950   48.9010 O.3       1 46M780      0.0000 
     18 H          -1.4137  -54.7636   46.8976 H         1 46M780      0.0000 
     19 H          -0.2601  -57.3440   47.9402 H         1 46M780      0.0000 
     20 H           0.1845  -59.0449   46.3109 H         1 46M780      0.0000 
     21 H          -0.2309  -58.7918   44.6069 H         1 46M780      0.0000 
     22 H          -0.9470  -56.5105   45.1478 H         1 46M780      0.0000 
     23 H          -3.2295  -56.1171   45.7646 H         1 46M780      0.0000 
     24 H          -3.4363  -55.3604   48.0255 H         1 46M780      0.0000 
     25 H           3.5403  -55.6290   46.7129 H         1 46M780      0.0000 
     26 H           3.8580  -56.7797   45.6353 H         1 46M780      0.0000 
     27 H           2.9303  -55.5307   45.2282 H         1 46M780      0.0000 
     28 H          -1.6914  -54.4891   49.2658 H         1 46M780      0.0000 
     29 H          -4.4745  -58.1786   45.9868 H         1 46M780      0.0000 
     30 H          -3.3230  -57.8254   48.6230 H         1 46M780      0.0000 
@<TRIPOS>BOND
     1    2    1 1    
     2   28    1 1    
     3    3    2 1    
     4   16    2 1    
     5   18    2 1    
     6    4    3 1    
     7   12    3 1    
     8   19    3 1    
     9    5    4 1    
    10    6    5 1    
    11    9    5 1    
    12   10    5 1    
    13    7    6 ar   
    14    8    6 ar   
    15   25    9 1    
    16   26    9 1    
    17   27    9 1    
    18   11   10 1    
    19   12   11 1    
    20   20   11 1    
    21   21   11 1    
    22   13   12 1    
    23   22   12 1    
    24   14   13 1    
    25   15   14 1    
    26   16   14 1    
    27   23   14 1    
    28   29   15 1    
    29   17   16 1    
    30   24   16 1    
    31   30   17 1    
@<TRIPOS>SUBSTRUCTURE
     1 46M780      1 GROUP   
@<TRIPOS>SET

