#    Name: 1c9d_HF1_1_INTS_M
#    Modification time : Mon Mar 24 20:26:52 2014

@<TRIPOS>MOLECULE
1c9d_HF1_1_INTS_M
   67     0     9     0     0
SMALL
NO_CHARGES


@<TRIPOS>ATOM
      1 N          47.0155   31.3105   10.9880 N.am      2 SEC2        0.0000 
      2 N          47.4120   30.4050    9.8700 N.am      8 SEL2        0.0000 
      3 N          46.6190   32.2160   12.1060 N.am      5 SEP2        0.0000 
      4 N          48.2615   31.8390   10.2665 N.am      2 SEC2        0.0000 
      5 N          49.1110   33.2730   10.6630 N.am      5 SEP2        0.0000 
      6 N          50.0935   28.8650    8.2040 N.am      2 SEC2        0.0000 
      7 N          48.7220   28.8610    8.7600 N.am      8 SEL2        0.0000 
      8 N          51.4650   28.8690    7.6480 N.am      5 SEP2        0.0000 
      9 N          47.7225   28.3020    7.8930 N.am      2 SEC2        0.0000 
     10 N          46.7230   27.7430    7.0260 N.am      5 SEP2        0.0000 
     11 N          49.4085   31.9290   10.3000 N.am      2 SEC2        0.0000 
     12 N          49.7060   30.5850    9.9370 N.am      8 SEL2        0.0000 
     13 N          50.4970   31.4140    9.4555 N.am      2 SEC2        0.0000 
     14 N          51.2880   32.2430    8.9740 N.am      5 SEP2        0.0000 
     15 CA         47.3485   26.0660   14.7585 C.3       3 GLC5        0.0000 
     16 CA         48.3390   27.9400   14.7410 C.3       9 GLL5        0.0000 
     17 CA         46.3580   24.1920   14.7760 C.3       6 GLP5        0.0000 
     18 CA         46.3915   28.3985   14.8600 C.3       3 GLC5        0.0000 
     19 CA         44.4440   28.8570   14.9790 C.3       6 GLP5        0.0000 
     20 CA         51.8910   26.6345   17.1275 C.3       3 GLC5        0.0000 
     21 CA         51.7050   26.5190   15.3850 C.3       9 GLL5        0.0000 
     22 CA         52.0770   26.7500   18.8700 C.3       6 GLP5        0.0000 
     23 O          53.1905   27.9960   14.5610 O.2       1 ALC1        0.0000 
     24 O          52.1370   27.8750   15.4570 O.2       7 ALL1        0.0000 
     25 O          54.2440   28.1170   13.6650 O.2       4 ALP1        0.0000 
     26 CA         50.0530   23.3820   13.4090 C.3       3 GLC5        0.0000 
     27 CA         50.5000   22.4760   15.1660 C.3       9 GLL5        0.0000 
     28 CA         49.6060   24.2880   11.6520 C.3       6 GLP5        0.0000 
     29 CA         47.8715   27.8815   17.6895 C.3       3 GLC5        0.0000 
     30 CA         49.0870   27.2930   16.2430 C.3       9 GLL5        0.0000 
     31 CA         46.6560   28.4700   19.1360 C.3       6 GLP5        0.0000 
     32 CA         50.5820   27.0215   17.5565 C.3       3 GLC5        0.0000 
     33 CA         47.6445   25.6855   16.2000 C.3       3 GLC5        0.0000 
     34 CA         46.2020   24.0780   16.1570 C.3       6 GLP5        0.0000 
     35 CA         49.1490   30.3690   15.3555 C.3       3 GLC5        0.0000 
     36 CA         49.2980   28.8680   13.9960 C.3       9 GLL5        0.0000 
     37 CA         49.0000   31.8700   16.7150 C.3       6 GLP5        0.0000 
     38 CA         50.4775   28.2610   11.0465 C.3       3 GLC5        0.0000 
     39 CA         48.7210   28.6310   11.4210 C.3       9 GLL5        0.0000 
     40 CA         52.2340   27.8910   10.6720 C.3       6 GLP5        0.0000 
     41 CA         48.6390   26.6495   11.1105 C.3       3 GLC5        0.0000 
     42 CA         48.5570   24.6680   10.8000 C.3       6 GLP5        0.0000 
     43 CA         50.6088   30.0895   13.1700 C.3       3 GLC5        0.0000 
     44 CA         48.6670   29.4480   12.7140 C.3       9 GLL5        0.0000 
     45 CA         52.2350   31.0210   12.9850 C.3       6 GLP5        0.0000 
     46 CA         50.4593   28.0265   12.5665 C.3       3 GLC5        0.0000 
     47 CA         51.9360   26.8950   11.7780 C.3       6 GLP5        0.0000 
     48 CA         48.3892   31.0110   13.0170 C.3       3 GLC5        0.0000 
     49 CA         47.7960   32.8640   12.6790 C.3       6 GLP5        0.0000 
     50 CA         48.9955   29.2772   16.6010 C.3       3 GLC5        0.0000 
     51 CA         49.2780   30.9380   17.7100 C.3       6 GLP5        0.0000 
     52 CA         51.4810   26.6088   13.6642 C.3       3 GLC5        0.0000 
     53 CA         50.3470   26.1260   15.7160 C.3       9 GLL5        0.0000 
     54 CA         54.0318   23.9195   14.2775 C.3       3 GLC5        0.0000 
     55 CA         52.6290   25.5320   14.9870 C.3       9 GLL5        0.0000 
     56 CA         55.6360   22.9870   13.6060 C.3       6 GLP5        0.0000 
     57 CA         52.1818   25.8735   13.3635 C.3       3 GLC5        0.0000 
     58 CA         50.0678   21.3625   15.3767 C.3       3 GLC5        0.0000 
     59 CA         50.8850   23.7960   15.2390 C.3       9 GLL5        0.0000 
     60 CA         49.4430   19.5890   15.5510 C.3       6 GLP5        0.0000 
     61 CA         49.6402   23.0759   16.9059 C.3       3 GLC5        0.0000 
     62 CA         48.8180   22.7740   18.5110 C.3       6 GLP5        0.0000 
     63 CA         52.6419   22.6605   16.3597 C.3       3 GLC5        0.0000 
     64 CA         54.2560   22.0910   17.5990 C.3       6 GLP5        0.0000 
     65 CA         51.5755   25.0081   16.9994 C.3       3 GLC5        0.0000 
     66 CA         52.2260   24.1720   14.9110 C.3       9 GLL5        0.0000 
     67 CA         51.6770   25.2800   18.7960 C.3       6 GLP5        0.0000 
@<TRIPOS>BOND
@<TRIPOS>SUBSTRUCTURE
     1 ALC1       23 GROUP        1 X    ALC  0     ROOT ALC X 1
     2 SEC2        1 GROUP        1 X    SEC  0     **** SEC X 2
     3 GLC5       15 GROUP        1 X    GLC  0     **** GLC X 6
     4 ALP1       25 GROUP        1 Y    ALP  0     ROOT ALP Y 8
     5 SEP2        3 GROUP        1 Y    SEP  0     **** SEP Y 9
     6 GLP5       17 GROUP        1 Y    GLP  0     **** GLP Y 13
     7 ALL1       24 GROUP        1 Z    ALL  0     ROOT ALL Z 15
     8 SEL2        2 GROUP        1 Z    SEL  0     **** SEL Z 16
     9 GLL5       16 GROUP        1 Z    GLL  0     **** GLL Z 20
@<TRIPOS>SET

