#    Name: 1c9d_HF1_1_ligand
#    Modification time : Mon Mar 24 20:26:52 2014

@<TRIPOS>MOLECULE
1c9d_HF1_1_ligand
   27    27     1     0     0
SMALL
NO_CHARGES


@<TRIPOS>ATOM
      1 P1         48.6380   29.6800    9.8960 P.3       1 HF1270      0.0000 
      2 O3         47.4120   30.4050    9.8700 O.co2     1 HF1270      0.0000 
      3 O1         48.7220   28.8610    8.7600 O.co2     1 HF1270      0.0000 
      4 O2         49.7060   30.5850    9.9370 O.co2     1 HF1270      0.0000 
      5 C2         48.6670   29.4480   12.7140 C.2       1 HF1270      0.0000 
      6 C3         48.3390   27.9400   14.7410 C.3       1 HF1270      0.0000 
      7 C9         49.9650   24.7630   15.6320 C.ar      1 HF1270      0.0000 
      8 C8         50.3470   26.1260   15.7160 C.ar      1 HF1270      0.0000 
      9 C7         51.7050   26.5190   15.3850 C.ar      1 HF1270      0.0000 
     10 OH         52.1370   27.8750   15.4570 O.3       1 HF1270      0.0000 
     11 C6         52.6290   25.5320   14.9870 C.ar      1 HF1270      0.0000 
     12 C5         52.2260   24.1720   14.9110 C.ar      1 HF1270      0.0000 
     13 C10        50.8850   23.7960   15.2390 C.ar      1 HF1270      0.0000 
     14 F          50.5000   22.4760   15.1660 F         1 HF1270      0.0000 
     15 S1         49.0870   27.2930   16.2430 S.3       1 HF1270      0.0000 
     16 C4         49.2980   28.8680   13.9960 C.3       1 HF1270      0.0000 
     17 C1         48.7210   28.6310   11.4210 C.2       1 HF1270      0.0000 
     18 H          48.2411   30.3228   12.7322 H         1 HF1270      0.0000 
     19 H          47.4671   28.4366   15.1066 H         1 HF1270      0.0000 
     20 H          48.0984   27.0535   14.1964 H         1 HF1270      0.0000 
     21 H          49.0003   24.4998   15.8652 H         1 HF1270      0.0000 
     22 H          53.5878   25.7891   14.7526 H         1 HF1270      0.0000 
     23 H          52.8921   23.4570   14.6218 H         1 HF1270      0.0000 
     24 H          49.5853   29.6936   14.6517 H         1 HF1270      0.0000 
     25 H          50.2002   28.3142   13.7249 H         1 HF1270      0.0000 
     26 H          48.7832   27.7677   11.2552 H         1 HF1270      0.0000 
     27 H          52.9018   27.9372   14.8158 H         1 HF1270      0.0000 
@<TRIPOS>BOND
     1    2    1 ar   
     2    3    1 ar   
     3    4    1 ar   
     4   17    1 1    
     5   16    5 1    
     6   17    5 2    
     7   18    5 1    
     8   15    6 1    
     9   16    6 1    
    10   19    6 1    
    11   20    6 1    
    12    8    7 ar   
    13   13    7 ar   
    14   21    7 1    
    15    9    8 ar   
    16   15    8 1    
    17   10    9 1    
    18   11    9 ar   
    19   27   10 1    
    20   12   11 ar   
    21   22   11 1    
    22   13   12 ar   
    23   23   12 1    
    24   14   13 1    
    25   24   16 1    
    26   25   16 1    
    27   26   17 1    
@<TRIPOS>SUBSTRUCTURE
     1 HF1270      1 GROUP   
@<TRIPOS>SET

