#    Name: 3qcz_ANP_1_INTS_M
#    Modification time : Tue Mar 25 09:39:16 2014

@<TRIPOS>MOLECULE
3qcz_ANP_1_INTS_M
   75     0    15     0     0
SMALL
NO_CHARGES


@<TRIPOS>ATOM
      1 Zn          3.8625   26.0900   17.8190 Zn        4 ZIC7        0.0000 
      2 Zn          4.7910   26.3400   17.5990 Zn       14 ZIL7        0.0000 
      3 Zn          2.9340   25.8400   18.0390 Zn        9 ZIP7        0.0000 
      4 N           7.5925   29.0880   18.9915 N.am      2 SEC2        0.0000 
      5 N           6.5640   28.1720   18.4460 N.am     12 SEL2        0.0000 
      6 N           8.6210   30.0040   19.5370 N.am      7 SEP2        0.0000 
      7 Zn          3.3335   25.3065   18.8210 Zn        4 ZIC7        0.0000 
      8 Zn          3.7330   24.7730   19.6030 Zn       14 ZIL7        0.0000 
      9 N           3.1140   23.5065   19.9340 N.am      2 SEC2        0.0000 
     10 N           3.7330   24.7730   19.6030 N.am     12 SEL2        0.0000 
     11 N           2.4950   22.2400   20.2650 N.am      7 SEP2        0.0000 
     12 NZ          3.3200   26.7190   22.2420 N.4       3 LYC4        0.0000 
     13 NZ          4.2100   25.6520   22.0840 N.4      13 LYL4        0.0000 
     14 NZ          2.4300   27.7860   22.4000 N.4       8 LYP4        0.0000 
     15 N           3.6905   24.3720   22.5435 N.am      2 SEC2        0.0000 
     16 N           4.2100   25.6520   22.0840 N.am     12 SEL2        0.0000 
     17 N           3.1710   23.0920   23.0030 N.am      7 SEP2        0.0000 
     18 N           3.3200   26.7190   22.2420 N.am      2 SEC2        0.0000 
     19 N           2.4300   27.7860   22.4000 N.am      7 SEP2        0.0000 
     20 N           4.9250   20.6720   20.3645 N.am      2 SEC2        0.0000 
     21 N           5.9700   21.6590   20.7750 N.am     12 SEL2        0.0000 
     22 N           3.8800   19.6850   19.9540 N.am      7 SEP2        0.0000 
     23 N           6.0075   20.3170   21.2535 N.am      2 SEC2        0.0000 
     24 N           6.0450   18.9750   21.7320 N.am      7 SEP2        0.0000 
     25 NZ          7.0385   22.6600   17.6465 N.4       3 LYC4        0.0000 
     26 NZ          6.5280   23.2640   18.8210 N.4      13 LYL4        0.0000 
     27 NZ          6.7170   22.5090   15.5520 N.4       8 LYP4        0.0000 
     28 N           7.0385   22.6600   17.6465 N.am      2 SEC2        0.0000 
     29 N           6.5280   23.2640   18.8210 N.am     12 SEL2        0.0000 
     30 N           7.5490   22.0560   16.4720 N.am      7 SEP2        0.0000 
     31 N           6.0910   23.2510   17.3730 N.am      2 SEC2        0.0000 
     32 N           5.6540   23.2380   15.9250 N.am      7 SEP2        0.0000 
     33 N           5.8020   23.8790   22.5430 N.am      2 SEC2        0.0000 
     34 N           5.9020   24.1820   21.1750 N.am     12 SEL2        0.0000 
     35 N           5.7020   23.5760   23.9110 N.am      7 SEP2        0.0000 
     36 CA          9.0840   22.3555   18.9325 C.3       5 GLC5        0.0000 
     37 CA          8.8870   24.0180   20.3570 C.3      15 GLL5        0.0000 
     38 CA          9.2810   20.6930   17.5080 C.3      10 GLP5        0.0000 
     39 CA         11.4435   25.2315   22.3070 C.3       5 GLC5        0.0000 
     40 CA         10.2080   24.1590   21.0750 C.3      15 GLL5        0.0000 
     41 CA         12.6790   26.3040   23.5390 C.3      10 GLP5        0.0000 
     42 CA         10.2440   21.8655   19.1250 C.3       5 GLC5        0.0000 
     43 CA         11.2070   23.0380   20.7420 C.3      15 GLL5        0.0000 
     44 O          13.5130   23.5230   20.1055 O.2       1 ALC1        0.0000 
     45 O          12.5330   23.6050   20.9690 O.2      11 ALL1        0.0000 
     46 O          14.4930   23.4410   19.2420 O.2       6 ALP1        0.0000 
     47 CA          9.3265   24.2910   24.1145 C.3       5 GLC5        0.0000 
     48 CA         10.7180   23.1030   23.1130 C.3      15 GLL5        0.0000 
     49 CA          7.9350   25.4790   25.1160 C.3      10 GLP5        0.0000 
     50 CA         11.6985   24.7035   23.3260 C.3       5 GLC5        0.0000 
     51 N           7.3495   20.3225   24.7775 N.am      2 SEC2        0.0000 
     52 N           8.1480   21.4120   24.9990 N.am     12 SEL2        0.0000 
     53 N           6.5510   19.2330   24.5560 N.am      7 SEP2        0.0000 
     54 CA          7.1745   21.9335   24.9975 C.3       5 GLC5        0.0000 
     55 CA          9.1010   21.6650   25.9860 C.3      15 GLL5        0.0000 
     56 CA          5.2480   22.2020   24.0090 C.3      10 GLP5        0.0000 
     57 CA          9.4290   19.5615   25.5060 C.3       5 GLC5        0.0000 
     58 CA          9.7570   17.4580   25.0260 C.3      10 GLP5        0.0000 
     59 O           6.9110   20.0430   27.2925 O.2       1 ALC1        0.0000 
     60 O           8.1170   20.7480   27.9540 O.2      11 ALL1        0.0000 
     61 O           5.7050   19.3380   26.6310 O.2       6 ALP1        0.0000 
     62 N          10.0215   23.1980   28.6430 N.am      2 SEC2        0.0000 
     63 N          10.1850   21.7550   28.0360 N.am     12 SEL2        0.0000 
     64 N           9.8580   24.6410   29.2500 N.am      7 SEP2        0.0000 
     65 CA         10.7215   24.0060   27.9200 C.3       5 GLC5        0.0000 
     66 CA         11.2140   22.3580   27.4550 C.3      15 GLL5        0.0000 
     67 CA         10.2290   25.6540   28.3850 C.3      10 GLP5        0.0000 
     68 CA         12.8660   21.9790   26.6920 C.3       5 GLC5        0.0000 
     69 CA         14.5180   21.6000   25.9290 C.3      10 GLP5        0.0000 
     70 CA         10.1990   23.9695   26.8985 C.3       5 GLC5        0.0000 
     71 CA         10.1690   22.2850   25.4120 C.3      15 GLL5        0.0000 
     72 CA         12.3435   21.9425   25.6705 C.3       5 GLC5        0.0000 
     73 CA         10.3491   24.1836   18.7395 C.3       5 GLC5        0.0000 
     74 CA         10.3210   24.8040   16.7500 C.3      10 GLP5        0.0000 
     75 CA          8.7850   23.7270   25.4075 C.3       5 GLC5        0.0000 
@<TRIPOS>BOND
@<TRIPOS>SUBSTRUCTURE
     1 ALC1       44 GROUP        1 X    ALC  0     ROOT ALC X 1
     2 SEC2        4 GROUP        1 X    SEC  0     **** SEC X 2
     3 LYC4       12 GROUP        1 X    LYC  0     **** LYC X 4
     4 ZIC7        1 GROUP        1 X    ZIC  0     **** ZIC X 5
     5 GLC5       36 GROUP        1 X    GLC  0     **** GLC X 6
     6 ALP1       46 GROUP        1 Y    ALP  0     ROOT ALP Y 8
     7 SEP2        6 GROUP        1 Y    SEP  0     **** SEP Y 9
     8 LYP4       14 GROUP        1 Y    LYP  0     **** LYP Y 11
     9 ZIP7        3 GROUP        1 Y    ZIP  0     **** ZIP Y 12
    10 GLP5       38 GROUP        1 Y    GLP  0     **** GLP Y 13
    11 ALL1       45 GROUP        1 Z    ALL  0     ROOT ALL Z 15
    12 SEL2        5 GROUP        1 Z    SEL  0     **** SEL Z 16
    13 LYL4       13 GROUP        1 Z    LYL  0     **** LYL Z 18
    14 ZIL7        2 GROUP        1 Z    ZIL  0     **** ZIL Z 19
    15 GLL5       37 GROUP        1 Z    GLL  0     **** GLL Z 20
@<TRIPOS>SET

