#    Name: 1ohp_ESR_4_INTS_M
#    Modification time : Mon Mar 24 20:10:58 2014

@<TRIPOS>MOLECULE
1ohp_ESR_4_INTS_M
   46     0     6     0     0
SMALL
NO_CHARGES


@<TRIPOS>ATOM
      1 CA         19.2460   -6.9010   31.9360 C.3       2 GLC5        0.0000 
      2 CA         19.9290   -8.2530   30.8200 C.3       6 GLL5        0.0000 
      3 CA         18.5630   -5.5490   33.0520 C.3       4 GLP5        0.0000 
      4 CA         21.7375   -7.4285   30.7515 C.3       2 GLC5        0.0000 
      5 CA         23.5460   -6.6040   30.6830 C.3       4 GLP5        0.0000 
      6 CA         18.2110   -9.6315   32.6835 C.3       2 GLC5        0.0000 
      7 CA         19.7150   -9.6720   31.3310 C.3       6 GLL5        0.0000 
      8 CA         16.7070   -9.5910   34.0360 C.3       4 GLP5        0.0000 
      9 CA         17.7500   -7.2100   27.6745 C.3       2 GLC5        0.0000 
     10 CA         18.6420   -8.9210   28.5180 C.3       6 GLL5        0.0000 
     11 CA         16.8580   -5.4990   26.8310 C.3       4 GLP5        0.0000 
     12 CA         16.5275   -8.3555   28.7350 C.3       2 GLC5        0.0000 
     13 CA         14.4130   -7.7900   28.9520 C.3       4 GLP5        0.0000 
     14 CA         19.7845   -9.8235   26.8725 C.3       2 GLC5        0.0000 
     15 CA         20.9270  -10.7260   25.2270 C.3       4 GLP5        0.0000 
     16 CA         18.1295   -8.8760   26.5960 C.3       2 GLC5        0.0000 
     17 CA         17.6170   -8.8310   24.6740 C.3       4 GLP5        0.0000 
     18 CA         20.8410   -8.7890   33.8045 C.3       2 GLC5        0.0000 
     19 CA         20.8880   -9.9930   32.2980 C.3       6 GLL5        0.0000 
     20 CA         20.7940   -7.5850   35.3110 C.3       4 GLP5        0.0000 
     21 CA         22.6705   -9.8895   32.5665 C.3       2 GLC5        0.0000 
     22 CA         24.4530   -9.7860   32.8350 C.3       4 GLP5        0.0000 
     23 CA         21.0895  -11.2285   34.8275 C.3       2 GLC5        0.0000 
     24 CA         20.7750  -11.4530   32.8860 C.3       6 GLL5        0.0000 
     25 CA         21.4040  -11.0040   36.7690 C.3       4 GLP5        0.0000 
     26 CA         21.0435  -13.8980   35.1745 C.3       2 GLC5        0.0000 
     27 CA         21.7460  -14.5530   33.2890 C.3       6 GLL5        0.0000 
     28 CA         20.3410  -13.2430   37.0600 C.3       4 GLP5        0.0000 
     29 CA         23.2715  -13.0730   33.8380 C.3       2 GLC5        0.0000 
     30 CA         24.7970  -11.5930   34.3870 C.3       4 GLP5        0.0000 
     31 CA         19.9830  -16.6020   34.6675 C.3       2 GLC5        0.0000 
     32 CA         21.1860  -16.0030   33.4850 C.3       6 GLL5        0.0000 
     33 CA         18.7800  -17.2010   35.8500 C.3       4 GLP5        0.0000 
     34 N          18.4960   -6.4840   28.1840 N.am      1 SEC2        0.0000 
     35 N          19.0250   -6.6700   29.4100 N.am      5 SEL2        0.0000 
     36 N          17.9670   -6.2980   26.9580 N.am      3 SEP2        0.0000 
     37 N          19.3145   -5.4395   29.7270 N.am      1 SEC2        0.0000 
     38 N          19.6040   -4.2090   30.0440 N.am      3 SEP2        0.0000 
     39 CA         22.6615  -11.5783   32.6920 C.3       2 GLC5        0.0000 
     40 CA         20.7270  -12.5580   31.7100 C.3       6 GLL5        0.0000 
     41 CA         24.5720  -11.1510   33.0860 C.3       4 GLP5        0.0000 
     42 CA         19.6448  -15.1780   34.0965 C.3       2 GLC5        0.0000 
     43 CA         18.1150  -16.0690   35.3880 C.3       4 GLP5        0.0000 
     44 CA         18.6552  -14.2020   28.1227 C.3       2 GLC5        0.0000 
     45 CA         19.1210  -14.7760   30.3340 C.3       6 GLL5        0.0000 
     46 CA         18.0780  -14.3090   26.3370 C.3       4 GLP5        0.0000 
@<TRIPOS>BOND
@<TRIPOS>SUBSTRUCTURE
     1 SEC2       34 GROUP        1 X    SEC  0     ROOT SEC X 2
     2 GLC5        1 GROUP        1 X    GLC  0     **** GLC X 6
     3 SEP2       36 GROUP        1 Y    SEP  0     ROOT SEP Y 9
     4 GLP5        3 GROUP        1 Y    GLP  0     **** GLP Y 13
     5 SEL2       35 GROUP        1 Z    SEL  0     ROOT SEL Z 16
     6 GLL5        2 GROUP        1 Z    GLL  0     **** GLL Z 20
@<TRIPOS>SET

