#    Name: 1ohp_ESR_4_ligand
#    Modification time : Mon Mar 24 20:10:58 2014

@<TRIPOS>MOLECULE
1ohp_ESR_4_ligand
   46    49     1     0     0
SMALL
NO_CHARGES


@<TRIPOS>ATOM
      1 C1         19.1740   -7.7860   29.5570 C.2       1 ESR1326     0.0000 
      2 C2         19.9290   -8.2530   30.8200 C.3       1 ESR1326     0.0000 
      3 C3         19.7150   -9.6720   31.3310 C.3       1 ESR1326     0.0000 
      4 C4         19.6320  -10.7620   30.0900 C.3       1 ESR1326     0.0000 
      5 C5         18.3980  -10.3710   29.0980 C.3       1 ESR1326     0.0000 
      6 C6         18.6420   -8.9210   28.5180 C.3       1 ESR1326     0.0000 
      7 C10        20.8880   -9.9930   32.2980 C.3       1 ESR1326     0.0000 
      8 C11        20.7750  -11.4530   32.8860 C.3       1 ESR1326     0.0000 
      9 C12        20.7270  -12.5580   31.7100 C.3       1 ESR1326     0.0000 
     10 C13        19.4130  -12.2520   30.7010 C.3       1 ESR1326     0.0000 
     11 C16        20.6030  -14.0210   32.3210 C.3       1 ESR1326     0.0000 
     12 C17        20.5320  -15.1600   31.2440 C.3       1 ESR1326     0.0000 
     13 C19        19.3440  -13.4140   29.4830 C.3       1 ESR1326     0.0000 
     14 C24        21.7460  -14.5530   33.2890 C.3       1 ESR1326     0.0000 
     15 C25        21.1860  -16.0030   33.4850 C.3       1 ESR1326     0.0000 
     16 C26        20.4200  -16.3740   32.1130 C.2       1 ESR1326     0.0000 
     17 C27        21.8040  -15.4630   30.2090 C.3       1 ESR1326     0.0000 
     18 O1         19.0250   -6.6700   29.4100 O.2       1 ESR1326     0.0000 
     19 C18        19.1210  -14.7760   30.3340 C.3       1 ESR1326     0.0000 
     20 O26        19.8810  -17.3780   31.8930 O.2       1 ESR1326     0.0000 
     21 H          19.6881   -7.5330   31.6503 H         1 ESR1326     0.0000 
     22 H          21.0288   -8.0992   30.6395 H         1 ESR1326     0.0000 
     23 H          18.7952   -9.7324   31.8670 H         1 ESR1326     0.0000 
     24 H          20.5292  -10.7295   29.5607 H         1 ESR1326     0.0000 
     25 H          17.5027  -10.3823   29.6737 H         1 ESR1326     0.0000 
     26 H          18.3838  -11.0788   28.3031 H         1 ESR1326     0.0000 
     27 H          19.3770   -8.9820   27.7008 H         1 ESR1326     0.0000 
     28 H          17.7023   -8.5472   28.0833 H         1 ESR1326     0.0000 
     29 H          20.8763   -9.2900   33.1231 H         1 ESR1326     0.0000 
     30 H          21.8274   -9.9113   31.7632 H         1 ESR1326     0.0000 
     31 H          19.8676  -11.5384   33.4585 H         1 ESR1326     0.0000 
     32 H          21.6351  -11.6587   33.4994 H         1 ESR1326     0.0000 
     33 H          21.5919  -12.4810   31.1209 H         1 ESR1326     0.0000 
     34 H          18.5563  -12.2899   31.2675 H         1 ESR1326     0.0000 
     35 H          19.6641  -14.1025   32.8886 H         1 ESR1326     0.0000 
     36 H          20.2643  -13.4343   29.0302 H         1 ESR1326     0.0000 
     37 H          18.5093  -13.2154   28.9208 H         1 ESR1326     0.0000 
     38 H          21.6986  -14.0381   34.1748 H         1 ESR1326     0.0000 
     39 H          22.6310  -14.5878   32.7717 H         1 ESR1326     0.0000 
     40 H          20.4793  -16.0147   34.2686 H         1 ESR1326     0.0000 
     41 H          21.9822  -16.6841   33.6105 H         1 ESR1326     0.0000 
     42 H          18.3450  -14.6401   31.0399 H         1 ESR1326     0.0000 
     43 H          18.9636  -15.5917   29.6791 H         1 ESR1326     0.0000 
     44 H          22.6357  -15.7114   30.7055 H         1 ESR1326     0.0000 
     45 H          21.6014  -16.2150   29.5818 H         1 ESR1326     0.0000 
     46 H          22.0247  -14.6650   29.6482 H         1 ESR1326     0.0000 
@<TRIPOS>BOND
     1    2    1 1    
     2    6    1 1    
     3   18    1 2    
     4    3    2 1    
     5   21    2 1    
     6   22    2 1    
     7    4    3 1    
     8    7    3 1    
     9   23    3 1    
    10    5    4 1    
    11   10    4 1    
    12   24    4 1    
    13    6    5 1    
    14   25    5 1    
    15   26    5 1    
    16   27    6 1    
    17   28    6 1    
    18    8    7 1    
    19   29    7 1    
    20   30    7 1    
    21    9    8 1    
    22   31    8 1    
    23   32    8 1    
    24   10    9 1    
    25   11    9 1    
    26   33    9 1    
    27   13   10 1    
    28   34   10 1    
    29   12   11 1    
    30   14   11 1    
    31   35   11 1    
    32   16   12 1    
    33   17   12 1    
    34   19   12 1    
    35   19   13 1    
    36   36   13 1    
    37   37   13 1    
    38   15   14 1    
    39   38   14 1    
    40   39   14 1    
    41   16   15 1    
    42   40   15 1    
    43   41   15 1    
    44   20   16 2    
    45   44   17 1    
    46   45   17 1    
    47   46   17 1    
    48   42   19 1    
    49   43   19 1    
@<TRIPOS>SUBSTRUCTURE
     1 ESR1326     1 GROUP   
@<TRIPOS>SET

