#    Name: 3efk_MT4_1_INTS_M
#    Modification time : Tue Mar 25 01:43:05 2014

@<TRIPOS>MOLECULE
3efk_MT4_1_INTS_M
   96     0     6     0     0
SMALL
NO_CHARGES


@<TRIPOS>ATOM
      1 N          65.3490   12.9595  122.3345 N.am      1 SEC2        0.0000 
      2 N          64.5820   12.5240  121.0950 N.am      5 SEL2        0.0000 
      3 N          66.1160   13.3950  123.5740 N.am      3 SEP2        0.0000 
      4 CA         65.3050   12.9585  116.9955 C.3       2 GLC5        0.0000 
      5 CA         64.3200   13.0940  118.8090 C.3       6 GLL5        0.0000 
      6 CA         66.2900   12.8230  115.1820 C.3       4 GLP5        0.0000 
      7 CA         61.7155    9.2845  124.0750 C.3       2 GLC5        0.0000 
      8 CA         61.6580   10.8720  124.8540 C.3       6 GLL5        0.0000 
      9 CA         61.7730    7.6970  123.2960 C.3       4 GLP5        0.0000 
     10 CA         63.3315   10.1280  125.3260 C.3       2 GLC5        0.0000 
     11 CA         65.0050    9.3840  125.7980 C.3       4 GLP5        0.0000 
     12 CA         60.7975   12.5700  124.6255 C.3       2 GLC5        0.0000 
     13 CA         59.9370   14.2680  124.3970 C.3       4 GLP5        0.0000 
     14 CA         61.7015   15.9060  118.2270 C.3       2 GLC5        0.0000 
     15 CA         62.7460   14.9370  116.6600 C.3       6 GLL5        0.0000 
     16 CA         60.6570   16.8750  119.7940 C.3       4 GLP5        0.0000 
     17 CA         63.7630   12.6810  111.7245 C.3       2 GLC5        0.0000 
     18 CA         64.5090   14.6770  112.1700 C.3       6 GLL5        0.0000 
     19 CA         63.0170   10.6850  111.2790 C.3       4 GLP5        0.0000 
     20 CA         66.1295   13.6590  111.7870 C.3       2 GLC5        0.0000 
     21 CA         67.7500   12.6410  111.4040 C.3       4 GLP5        0.0000 
     22 CA         65.9720   18.6815  111.4615 C.3       2 GLC5        0.0000 
     23 CA         64.0480   18.7970  111.3310 C.3       6 GLL5        0.0000 
     24 CA         67.8960   18.5660  111.5920 C.3       4 GLP5        0.0000 
     25 CA         62.2105   19.0890  111.9080 C.3       2 GLC5        0.0000 
     26 CA         60.3730   19.3810  112.4850 C.3       4 GLP5        0.0000 
     27 CA         64.9920   20.3780  111.2575 C.3       2 GLC5        0.0000 
     28 CA         65.9360   21.9590  111.1840 C.3       4 GLP5        0.0000 
     29 CA         69.0800   15.4615  110.4675 C.3       2 GLC5        0.0000 
     30 CA         67.4970   15.9060  109.3290 C.3       6 GLL5        0.0000 
     31 CA         70.6630   15.0170  111.6060 C.3       4 GLP5        0.0000 
     32 CA         58.4220    9.1805  119.7740 C.3       2 GLC5        0.0000 
     33 CA         58.5190   11.1880  120.3220 C.3       6 GLL5        0.0000 
     34 CA         58.3250    7.1730  119.2260 C.3       4 GLP5        0.0000 
     35 CA         64.9430   11.1175  120.2435 C.3       2 GLC5        0.0000 
     36 CA         63.2860   12.1740  121.1850 C.3       6 GLL5        0.0000 
     37 CA         66.6000   10.0610  119.3020 C.3       4 GLP5        0.0000 
     38 CA         66.6225   13.2305  118.3550 C.3       2 GLC5        0.0000 
     39 CA         65.1030   12.9730  119.9600 C.3       6 GLL5        0.0000 
     40 CA         68.1420   13.4880  116.7500 C.3       4 GLP5        0.0000 
     41 CA         66.5975   12.5875  121.4130 C.3       2 GLC5        0.0000 
     42 CA         68.0920   12.2020  122.8660 C.3       4 GLP5        0.0000 
     43 CA         64.7850   14.0190  121.4985 C.3       2 GLC5        0.0000 
     44 CA         64.4670   15.0650  123.0370 C.3       4 GLP5        0.0000 
     45 CA         63.0760   12.0675  112.7905 C.3       2 GLC5        0.0000 
     46 CA         63.1350   13.4500  114.3020 C.3       6 GLL5        0.0000 
     47 CA         63.4005   10.3960  114.1970 C.3       2 GLC5        0.0000 
     48 CA         62.5240   11.5250  115.5180 C.3       6 GLL5        0.0000 
     49 CA         64.2770    9.2670  112.8760 C.3       4 GLP5        0.0000 
     50 CA         62.7215   17.4795  115.8885 C.3       2 GLC5        0.0000 
     51 CA         63.1590   15.5440  115.4680 C.3       6 GLL5        0.0000 
     52 CA         62.2840   19.4150  116.3090 C.3       4 GLP5        0.0000 
     53 N          62.1960   18.6285  113.5830 N.am      1 SEC2        0.0000 
     54 N          63.0700   17.5700  113.5940 N.am      5 SEL2        0.0000 
     55 N          61.3220   19.6870  113.5720 N.am      3 SEP2        0.0000 
     56 CA         68.0790   13.4600  105.9930 C.3       2 GLC5        0.0000 
     57 CA         69.1000   14.6580  106.3250 C.3       6 GLL5        0.0000 
     58 CA         67.0580   12.2620  105.6610 C.3       4 GLP5        0.0000 
     59 CA         70.0455   15.9770  109.2385 C.3       2 GLC5        0.0000 
     60 CA         68.4350   15.3150  108.4920 C.3       6 GLL5        0.0000 
     61 CA         71.6560   16.6390  109.9850 C.3       4 GLP5        0.0000 
     62 CA         65.6557   11.5473  119.3432 C.3       2 GLC5        0.0000 
     63 CA         61.0205   13.4430  121.3887 C.3       2 GLC5        0.0000 
     64 CA         61.4230   11.3570  122.5030 C.3       6 GLL5        0.0000 
     65 CA         61.0320   15.4770  120.8320 C.3       4 GLP5        0.0000 
     66 CA         61.8325    9.6280  122.7339 C.3       2 GLC5        0.0000 
     67 CA         60.5950   11.4610  121.3880 C.3       6 GLL5        0.0000 
     68 CA         63.7488   13.5032  122.4143 C.3       2 GLC5        0.0000 
     69 CA         62.7750   11.7090  122.3980 C.3       6 GLL5        0.0000 
     70 CA         60.9145   12.9135  123.2844 C.3       2 GLC5        0.0000 
     71 CA         62.0312   13.7093  121.3117 C.3       2 GLC5        0.0000 
     72 CA         62.0482   10.5047  115.7918 C.3       2 GLC5        0.0000 
     73 CA         62.7350   12.8440  115.4850 C.3       6 GLL5        0.0000 
     74 CA         61.4670    8.8250  116.0820 C.3       4 GLP5        0.0000 
     75 CA         64.7632   13.4805  114.7350 C.3       2 GLC5        0.0000 
     76 CA         63.3380   14.8260  114.2740 C.3       6 GLL5        0.0000 
     77 CA         64.2396   16.3025  116.2823 C.3       2 GLC5        0.0000 
     78 CA         65.4820   17.5440  116.7990 C.3       4 GLP5        0.0000 
     79 CA         64.6213   14.0317  115.6230 C.3       2 GLC5        0.0000 
     80 CA         65.2215   13.9425  113.9075 C.3       2 GLC5        0.0000 
     81 CA         63.7970   15.4470  113.0960 C.3       6 GLL5        0.0000 
     82 CA         66.6325   17.2630  105.6605 C.3       2 GLC5        0.0000 
     83 CA         66.0660   16.3510  107.4320 C.3       6 GLL5        0.0000 
     84 CA         66.7310   18.4750  104.3110 C.3       4 GLP5        0.0000 
     85 CA         67.3990   17.3657  110.3303 C.3       2 GLC5        0.0000 
     86 CA         67.8580   14.1258  110.1573 C.3       2 GLC5        0.0000 
     87 CA         61.4689   13.8494  120.3236 C.3       2 GLC5        0.0000 
     88 CA         62.9650   12.7540  118.8510 C.3       6 GLL5        0.0000 
     89 CA         60.9101   12.3371  115.2688 C.3       2 GLC5        0.0000 
     90 CA         59.1150   12.2490  115.1850 C.3       4 GLP5        0.0000 
     91 CA         64.4355   12.5929  115.4885 C.3       2 GLC5        0.0000 
     92 CA         69.4939   16.3357  106.9092 C.3       2 GLC5        0.0000 
     93 CA         70.5970   17.4760  106.2770 C.3       4 GLP5        0.0000 
     94 CA         69.9064   13.8630  107.8342 C.3       2 GLC5        0.0000 
     95 CA         68.1850   15.2360  107.1250 C.3       6 GLL5        0.0000 
     96 CA         71.2740   12.5950  108.0600 C.3       4 GLP5        0.0000 
@<TRIPOS>BOND
@<TRIPOS>SUBSTRUCTURE
     1 SEC2        1 GROUP        1 X    SEC  0     ROOT SEC X 2
     2 GLC5        4 GROUP        1 X    GLC  0     **** GLC X 6
     3 SEP2        3 GROUP        1 Y    SEP  0     ROOT SEP Y 9
     4 GLP5        6 GROUP        1 Y    GLP  0     **** GLP Y 13
     5 SEL2        2 GROUP        1 Z    SEL  0     ROOT SEL Z 16
     6 GLL5        5 GROUP        1 Z    GLL  0     **** GLL Z 20
@<TRIPOS>SET

