#    Name: 3efk_MT4_1_ligand
#    Modification time : Tue Mar 25 01:43:05 2014

@<TRIPOS>MOLECULE
3efk_MT4_1_ligand
   60    64     1     0     0
SMALL
NO_CHARGES


@<TRIPOS>ATOM
      1 N1         64.5820   12.5240  121.0950 N.ar      1 MT41        0.0000 
      2 N3         65.0080   15.1890  111.0510 N.2       1 MT41        0.0000 
      3 C4         64.3200   13.0940  118.8090 C.ar      1 MT41        0.0000 
      4 C5         62.9650   12.7540  118.8510 C.ar      1 MT41        0.0000 
      5 C6         60.5950   11.4610  121.3880 C.ar      1 MT41        0.0000 
      6 C7         61.4230   11.3570  122.5030 C.ar      1 MT41        0.0000 
      7 C8         62.7750   11.7090  122.3980 C.ar      1 MT41        0.0000 
      8 C10        61.6580   10.8720  124.8540 C.3       1 MT41        0.0000 
      9 C13        62.7350   12.8440  115.4850 C.ar      1 MT41        0.0000 
     10 C15        63.3380   14.8260  114.2740 C.ar      1 MT41        0.0000 
     11 C17        62.7460   14.9370  116.6600 C.ar      1 MT41        0.0000 
     12 C20        64.8910   16.4950  110.7420 C.2       1 MT41        0.0000 
     13 C21        64.5090   14.6770  112.1700 C.2       1 MT41        0.0000 
     14 C22        64.0480   18.7970  111.3310 C.3       1 MT41        0.0000 
     15 C24        66.0660   16.3510  107.4320 C.ar      1 MT41        0.0000 
     16 C26        68.1850   15.2360  107.1250 C.ar      1 MT41        0.0000 
     17 C28        67.4970   15.9060  109.3290 C.ar      1 MT41        0.0000 
     18 O2         60.8560   10.8850  123.6640 O.3       1 MT41        0.0000 
     19 O1         59.2830   11.1060  121.5270 O.3       1 MT41        0.0000 
     20 C11        58.5190   11.1880  120.3220 C.3       1 MT41        0.0000 
     21 C9         61.1050   11.9240  120.1720 C.ar      1 MT41        0.0000 
     22 C1         62.4480   12.2850  120.0660 C.ar      1 MT41        0.0000 
     23 C2         63.2860   12.1740  121.1850 C.ar      1 MT41        0.0000 
     24 C3         65.1030   12.9730  119.9600 C.ar      1 MT41        0.0000 
     25 O3         62.1320   12.8550  117.7580 O.3       1 MT41        0.0000 
     26 C12        62.5410   13.5570  116.6590 C.ar      1 MT41        0.0000 
     27 C14        63.1350   13.4500  114.3020 C.ar      1 MT41        0.0000 
     28 F2         62.5240   11.5250  115.5180 F         1 MT41        0.0000 
     29 C16        63.1590   15.5440  115.4680 C.ar      1 MT41        0.0000 
     30 C18        63.7970   15.4470  113.0960 C.2       1 MT41        0.0000 
     31 C19        63.6630   16.8160  112.8260 C.2       1 MT41        0.0000 
     32 O4         63.0700   17.5700  113.5940 O.2       1 MT41        0.0000 
     33 N2         64.2080   17.3480  111.6360 N.am      1 MT41        0.0000 
     34 N4         65.4000   17.0080  109.6040 N.pl3     1 MT41        0.0000 
     35 C23        66.3070   16.4250  108.8080 C.ar      1 MT41        0.0000 
     36 C25        67.0020   15.7510  106.5880 C.ar      1 MT41        0.0000 
     37 F1         69.1000   14.6580  106.3250 F         1 MT41        0.0000 
     38 C27        68.4350   15.3150  108.4920 C.ar      1 MT41        0.0000 
     39 H          64.7381   13.4312  117.9363 H         1 MT41        0.0000 
     40 H          63.3894   11.6240  123.2161 H         1 MT41        0.0000 
     41 H          62.6007   15.4863  117.4985 H         1 MT41        0.0000 
     42 H          64.6380   13.6549  112.3967 H         1 MT41        0.0000 
     43 H          65.1984   16.7392  107.0433 H         1 MT41        0.0000 
     44 H          67.6752   15.9647  110.3426 H         1 MT41        0.0000 
     45 H          60.4872   11.9983  119.3537 H         1 MT41        0.0000 
     46 H          66.1086   13.2476  119.8945 H         1 MT41        0.0000 
     47 H          63.2798   12.8902  113.4563 H         1 MT41        0.0000 
     48 H          63.3417   16.5712  115.4643 H         1 MT41        0.0000 
     49 H          65.0382   17.9885  109.3061 H         1 MT41        0.0000 
     50 H          66.8238   15.6883  105.5823 H         1 MT41        0.0000 
     51 H          69.3076   14.9385  108.8781 H         1 MT41        0.0000 
     52 H          62.4734   10.3033  124.7461 H         1 MT41        0.0000 
     53 H          61.9709   11.7891  125.1010 H         1 MT41        0.0000 
     54 H          61.1524   10.5135  125.6387 H         1 MT41        0.0000 
     55 H          64.9312   19.2561  111.2351 H         1 MT41        0.0000 
     56 H          63.5472   18.9439  110.4780 H         1 MT41        0.0000 
     57 H          63.5459   19.2750  112.0517 H         1 MT41        0.0000 
     58 H          58.5070   12.1171  119.9524 H         1 MT41        0.0000 
     59 H          58.8873   10.5931  119.6076 H         1 MT41        0.0000 
     60 H          57.5671   10.9178  120.4666 H         1 MT41        0.0000 
@<TRIPOS>BOND
     1   23    1 ar   
     2   24    1 ar   
     3   12    2 2    
     4   13    2 1    
     5    4    3 ar   
     6   24    3 ar   
     7   39    3 1    
     8   22    4 ar   
     9   25    4 1    
    10    6    5 ar   
    11   19    5 1    
    12   21    5 ar   
    13    7    6 ar   
    14   18    6 1    
    15   23    7 ar   
    16   40    7 1    
    17   18    8 1    
    18   52    8 1    
    19   53    8 1    
    20   54    8 1    
    21   26    9 ar   
    22   27    9 ar   
    23   28    9 1    
    24   27   10 ar   
    25   29   10 ar   
    26   30   10 1    
    27   26   11 ar   
    28   29   11 ar   
    29   41   11 1    
    30   33   12 1    
    31   34   12 1    
    32   30   13 2    
    33   42   13 1    
    34   33   14 1    
    35   55   14 1    
    36   56   14 1    
    37   57   14 1    
    38   35   15 ar   
    39   36   15 ar   
    40   43   15 1    
    41   36   16 ar   
    42   37   16 1    
    43   38   16 ar   
    44   35   17 ar   
    45   38   17 ar   
    46   44   17 1    
    47   20   19 1    
    48   58   20 1    
    49   59   20 1    
    50   60   20 1    
    51   22   21 ar   
    52   45   21 1    
    53   23   22 ar   
    54   46   24 1    
    55   26   25 1    
    56   47   27 1    
    57   48   29 1    
    58   31   30 1    
    59   32   31 2    
    60   33   31 am   
    61   35   34 1    
    62   49   34 1    
    63   50   36 1    
    64   51   38 1    
@<TRIPOS>SUBSTRUCTURE
     1 MT41        1 GROUP   
@<TRIPOS>SET

