#    Name: 3um8_1CY_1_INTS_M
#    Modification time : Mon Mar 24 22:57:22 2014

@<TRIPOS>MOLECULE
3um8_1CY_1_INTS_M
   34     0     9     0     0
SMALL
NO_CHARGES


@<TRIPOS>ATOM
      1 N          29.4325    7.0060   55.0125 N.am      2 SEC2        0.0000 
      2 N          29.7180    5.8640   55.7940 N.am      8 SEL2        0.0000 
      3 N          29.1470    8.1480   54.2310 N.am      5 SEP2        0.0000 
      4 O          30.2590    5.7355   53.3090 O.2       1 ALC1        0.0000 
      5 O          30.7510    4.6540   54.0390 O.2       7 ALL1        0.0000 
      6 O          29.7670    6.8170   52.5790 O.2       4 ALP1        0.0000 
      7 O          32.6020    2.3480   57.8765 O.2       1 ALC1        0.0000 
      8 O          31.5430    3.1850   58.4920 O.2       7 ALL1        0.0000 
      9 O          33.6610    1.5110   57.2610 O.2       4 ALP1        0.0000 
     10 O          33.1375    3.0695   58.8755 O.2       1 ALC1        0.0000 
     11 O          34.7320    2.9540   59.2590 O.2       4 ALP1        0.0000 
     12 CA         30.4295    8.7660   59.0635 C.3       3 GLC5        0.0000 
     13 CA         30.1720    7.4990   57.5700 C.3       9 GLL5        0.0000 
     14 CA         30.6870   10.0330   60.5570 C.3       6 GLP5        0.0000 
     15 CA         31.0510    9.4185   56.9565 C.3       3 GLC5        0.0000 
     16 CA         31.9300   11.3380   56.3430 C.3       6 GLP5        0.0000 
     17 CA         26.3080    7.2690   56.7255 C.3       3 GLC5        0.0000 
     18 CA         27.9290    6.3880   57.4330 C.3       9 GLL5        0.0000 
     19 CA         24.6870    8.1500   56.0180 C.3       6 GLP5        0.0000 
     20 CA         27.5210    4.4890   56.7420 C.3       3 GLC5        0.0000 
     21 CA         27.1130    2.5900   56.0510 C.3       6 GLP5        0.0000 
     22 CA         30.3840    7.9275   60.5770 C.3       3 GLC5        0.0000 
     23 CA         30.0810    5.8220   60.5970 C.3       9 GLL5        0.0000 
     24 CA         29.7820    4.1265   65.1050 C.3       3 GLC5        0.0000 
     25 CA         28.3370    4.5460   63.9240 C.3       9 GLL5        0.0000 
     26 CA         31.2270    3.7070   66.2860 C.3       6 GLP5        0.0000 
     27 CA         26.7990    4.5100   64.7525 C.3       3 GLC5        0.0000 
     28 CA         25.2610    4.4740   65.5810 C.3       6 GLP5        0.0000 
     29 CA         31.3347    7.3773   56.2110 C.3       3 GLC5        0.0000 
     30 CA         29.4750    6.1320   57.2320 C.3       9 GLL5        0.0000 
     31 CA         32.8460    7.9390   55.0210 C.3       6 GLP5        0.0000 
     32 CA         28.5658    1.9278   61.2903 C.3       3 GLC5        0.0000 
     33 CA         28.6160    3.8120   59.9830 C.3       9 GLL5        0.0000 
     34 CA         28.7170    0.1010   61.9110 C.3       6 GLP5        0.0000 
@<TRIPOS>BOND
@<TRIPOS>SUBSTRUCTURE
     1 ALC1        4 GROUP        1 X    ALC  0     ROOT ALC X 1
     2 SEC2        1 GROUP        1 X    SEC  0     **** SEC X 2
     3 GLC5       12 GROUP        1 X    GLC  0     **** GLC X 6
     4 ALP1        6 GROUP        1 Y    ALP  0     ROOT ALP Y 8
     5 SEP2        3 GROUP        1 Y    SEP  0     **** SEP Y 9
     6 GLP5       14 GROUP        1 Y    GLP  0     **** GLP Y 13
     7 ALL1        5 GROUP        1 Z    ALL  0     ROOT ALL Z 15
     8 SEL2        2 GROUP        1 Z    SEL  0     **** SEL Z 16
     9 GLL5       13 GROUP        1 Z    GLL  0     **** GLL Z 20
@<TRIPOS>SET

