#    Name: 3um8_1CY_1_ligand
#    Modification time : Mon Mar 24 22:57:22 2014

@<TRIPOS>MOLECULE
3um8_1CY_1_ligand
   31    32     1     0     0
SMALL
NO_CHARGES


@<TRIPOS>ATOM
      1 N1         29.7180    5.8640   55.7940 N.2       1 1CY609      0.0000 
      2 C2         30.5300    4.8790   55.4210 C.2       1 1CY609      0.0000 
      3 N3         31.2150    3.9730   56.3100 N.2       1 1CY609      0.0000 
      4 C4         30.9100    4.0600   57.6300 C.2       1 1CY609      0.0000 
      5 N5         30.0190    5.0370   58.1950 N.pl3     1 1CY609      0.0000 
      6 C6         29.4750    6.1320   57.2320 C.3       1 1CY609      0.0000 
      7 N7         30.7510    4.6540   54.0390 N.pl3     1 1CY609      0.0000 
      8 N8         31.5430    3.1850   58.4920 N.pl3     1 1CY609      0.0000 
      9 C9         30.1720    7.4990   57.5700 C.3       1 1CY609      0.0000 
     10 C10        27.9290    6.3880   57.4330 C.3       1 1CY609      0.0000 
     11 C11        29.5860    4.9000   59.5600 C.ar      1 1CY609      0.0000 
     12 C12        30.0810    5.8220   60.5970 C.ar      1 1CY609      0.0000 
     13 C13        29.6710    5.6940   61.9620 C.ar      1 1CY609      0.0000 
     14 C14        28.7570    4.6530   62.3470 C.ar      1 1CY609      0.0000 
     15 C15        28.2130    3.6970   61.3560 C.ar      1 1CY609      0.0000 
     16 C16        28.6160    3.8120   59.9830 C.ar      1 1CY609      0.0000 
     17 CL17       28.3370    4.5460   63.9240 Cl        1 1CY609      0.0000 
     18 H          31.3505    3.8876   53.8083 H         1 1CY609      0.0000 
     19 H          30.2887    5.2808   53.4117 H         1 1CY609      0.0000 
     20 H          31.0219    2.9088   59.2996 H         1 1CY609      0.0000 
     21 H          32.4672    2.9039   58.2334 H         1 1CY609      0.0000 
     22 H          30.7261    6.5579   60.3191 H         1 1CY609      0.0000 
     23 H          30.0244    6.3379   62.6622 H         1 1CY609      0.0000 
     24 H          27.5760    2.9895   61.6585 H         1 1CY609      0.0000 
     25 H          28.2761    3.1898   59.2750 H         1 1CY609      0.0000 
     26 H          31.1570    7.4655   57.4007 H         1 1CY609      0.0000 
     27 H          29.8053    8.2490   57.0195 H         1 1CY609      0.0000 
     28 H          30.0480    7.7519   58.5295 H         1 1CY609      0.0000 
     29 H          27.7054    6.5795   58.3887 H         1 1CY609      0.0000 
     30 H          27.6087    7.1678   56.8951 H         1 1CY609      0.0000 
     31 H          27.3826    5.5973   57.1569 H         1 1CY609      0.0000 
@<TRIPOS>BOND
     1    2    1 2    
     2    6    1 1    
     3    3    2 1    
     4    7    2 1    
     5    4    3 2    
     6    5    4 1    
     7    8    4 1    
     8    6    5 1    
     9   11    5 1    
    10    9    6 1    
    11   10    6 1    
    12   18    7 1    
    13   19    7 1    
    14   20    8 1    
    15   21    8 1    
    16   26    9 1    
    17   27    9 1    
    18   28    9 1    
    19   29   10 1    
    20   30   10 1    
    21   31   10 1    
    22   12   11 ar   
    23   16   11 ar   
    24   13   12 ar   
    25   22   12 1    
    26   14   13 ar   
    27   23   13 1    
    28   15   14 ar   
    29   17   14 1    
    30   16   15 ar   
    31   24   15 1    
    32   25   16 1    
@<TRIPOS>SUBSTRUCTURE
     1 1CY609      1 GROUP   
@<TRIPOS>SET

