#    Name: 3uvp_048_1_INTS_M
#    Modification time : Mon Mar 24 23:36:51 2014

@<TRIPOS>MOLECULE
3uvp_048_1_INTS_M
   68     0     9     0     0
SMALL
NO_CHARGES


@<TRIPOS>ATOM
      1 N         -18.5950   -0.9660  -27.9620 N.am      2 SEC2        0.0000 
      2 N         -18.1660   -1.3740  -26.6470 N.am      8 SEL2        0.0000 
      3 N         -19.0240   -0.5580  -29.2770 N.am      5 SEP2        0.0000 
      4 N         -16.7360    4.2095  -19.0815 N.am      2 SEC2        0.0000 
      5 N         -18.1280    4.2010  -19.3870 N.am      8 SEL2        0.0000 
      6 N         -15.3440    4.2180  -18.7760 N.am      5 SEP2        0.0000 
      7 CA        -23.9625    5.5955  -18.3340 C.3       3 GLC5        0.0000 
      8 CA        -22.6550    4.7150  -19.4720 C.3       9 GLL5        0.0000 
      9 CA        -25.2700    6.4760  -17.1960 C.3       6 GLP5        0.0000 
     10 CA        -19.2910    7.5230  -19.3545 C.3       3 GLC5        0.0000 
     11 CA        -17.9330    6.8050  -17.8810 C.3       9 GLL5        0.0000 
     12 CA        -20.6490    8.2410  -20.8280 C.3       6 GLP5        0.0000 
     13 CA        -22.9130   -0.4090  -20.9810 C.3       3 GLC5        0.0000 
     14 CA        -22.0550    1.4590  -21.0010 C.3       9 GLL5        0.0000 
     15 CA        -23.7710   -2.2770  -20.9610 C.3       6 GLP5        0.0000 
     16 CA        -22.7555    0.6505  -22.5840 C.3       3 GLC5        0.0000 
     17 CA        -23.4560   -0.1580  -24.1670 C.3       6 GLP5        0.0000 
     18 CA        -21.9065    2.3470  -22.7545 C.3       3 GLC5        0.0000 
     19 CA        -21.7580    3.2350  -24.5080 C.3       6 GLP5        0.0000 
     20 CA        -20.2975   -3.3960  -26.4290 C.3       3 GLC5        0.0000 
     21 CA        -18.6220   -3.6510  -26.1270 C.3       9 GLL5        0.0000 
     22 CA        -21.9730   -3.1410  -26.7310 C.3       6 GLP5        0.0000 
     23 CA        -18.4535   -4.0160  -28.1735 C.3       3 GLC5        0.0000 
     24 CA        -18.2850   -4.3810  -30.2200 C.3       6 GLP5        0.0000 
     25 O         -21.1245    4.6380  -17.3375 O.2       1 ALC1        0.0000 
     26 O         -20.2280    4.1880  -18.5060 O.2       7 ALL1        0.0000 
     27 O         -22.0210    5.0880  -16.1690 O.2       4 ALP1        0.0000 
     28 CA        -21.7760   -1.3790  -21.4790 C.3       3 GLC5        0.0000 
     29 CA        -19.7810   -0.4810  -21.9970 C.3       9 GLL5        0.0000 
     30 CA        -22.0110   -0.3270  -19.5380 C.3       3 GLC5        0.0000 
     31 CA        -20.7660    1.1700  -20.5190 C.3       9 GLL5        0.0000 
     32 CA        -23.2560   -1.8240  -18.5570 C.3       6 GLP5        0.0000 
     33 CA        -22.3805    6.0333  -19.3740 C.3       3 GLC5        0.0000 
     34 CA        -22.0610    3.5620  -19.8280 C.3       9 GLL5        0.0000 
     35 CA        -22.4030    7.9280  -19.0980 C.3       6 GLP5        0.0000 
     36 CA        -20.0095    7.0702  -15.4005 C.3       3 GLC5        0.0000 
     37 CA        -18.3800    6.2180  -15.1680 C.3       9 GLL5        0.0000 
     38 CA        -21.9410    7.3230  -15.4410 C.3       6 GLP5        0.0000 
     39 CA        -17.1647    9.3178  -15.4638 C.3       3 GLC5        0.0000 
     40 CA        -17.7760    7.4170  -15.5520 C.3       9 GLL5        0.0000 
     41 CA        -16.6690   11.0700  -14.7040 C.3       6 GLP5        0.0000 
     42 CA        -15.4932    7.3717  -16.1852 C.3       3 GLC5        0.0000 
     43 CA        -13.3260    7.1780  -16.1470 C.3       6 GLP5        0.0000 
     44 CA        -20.2972    6.3887  -16.1325 C.3       3 GLC5        0.0000 
     45 CA        -18.7610    5.3060  -16.1480 C.3       9 GLL5        0.0000 
     46 CA        -24.0078    1.8628  -19.6733 C.3       3 GLC5        0.0000 
     47 CA        -22.7000    2.6540  -20.6720 C.3       9 GLL5        0.0000 
     48 CA        -25.6380    1.6690  -18.5100 C.3       6 GLP5        0.0000 
     49 CA        -22.6127    3.6365  -22.1985 C.3       3 GLC5        0.0000 
     50 CA        -22.8450    4.1650  -24.1470 C.3       6 GLP5        0.0000 
     51 CA        -20.8053    1.5460  -24.1675 C.3       3 GLC5        0.0000 
     52 CA        -20.0570    0.1460  -23.2250 C.3       9 GLL5        0.0000 
     53 CA        -18.3280    0.3663  -21.8435 C.3       3 GLC5        0.0000 
     54 CA        -16.7370    0.9000  -21.0760 C.3       6 GLP5        0.0000 
     55 CA        -20.6362   -2.0888  -25.5727 C.3       3 GLC5        0.0000 
     56 CA        -19.6480   -0.4320  -24.4290 C.3       9 GLL5        0.0000 
     57 CA        -17.8102   -0.5370  -21.8320 C.3       3 GLC5        0.0000 
     58 CA        -18.6750   -2.2650  -23.1850 C.3       9 GLL5        0.0000 
     59 CA        -18.5983    1.2652  -20.5838 C.3       3 GLC5        0.0000 
     60 CA        -16.7102   -4.8557  -26.9795 C.3       3 GLC5        0.0000 
     61 CA        -15.2760   -5.6510  -28.2740 C.3       6 GLP5        0.0000 
     62 CA        -21.6364   -0.2350  -23.5395 C.3       3 GLC5        0.0000 
     63 CA        -22.6942    2.9094  -18.1898 C.3       3 GLC5        0.0000 
     64 CA        -20.7930    3.2930  -19.3310 C.3       9 GLL5        0.0000 
     65 CA        -23.8130    2.1030  -16.8890 C.3       6 GLP5        0.0000 
     66 CA        -16.8417    5.0668  -16.9240 C.3       3 GLC5        0.0000 
     67 CA        -18.5460    5.6030  -17.5000 C.3       9 GLL5        0.0000 
     68 CA        -15.3270    4.0370  -17.2970 C.3       6 GLP5        0.0000 
@<TRIPOS>BOND
@<TRIPOS>SUBSTRUCTURE
     1 ALC1       25 GROUP        1 X    ALC  0     ROOT ALC X 1
     2 SEC2        1 GROUP        1 X    SEC  0     **** SEC X 2
     3 GLC5        7 GROUP        1 X    GLC  0     **** GLC X 6
     4 ALP1       27 GROUP        1 Y    ALP  0     ROOT ALP Y 8
     5 SEP2        3 GROUP        1 Y    SEP  0     **** SEP Y 9
     6 GLP5        9 GROUP        1 Y    GLP  0     **** GLP Y 13
     7 ALL1       26 GROUP        1 Z    ALL  0     ROOT ALL Z 15
     8 SEL2        2 GROUP        1 Z    SEL  0     **** SEL Z 16
     9 GLL5        8 GROUP        1 Z    GLL  0     **** GLL Z 20
@<TRIPOS>SET

