#    Name: 3uvp_048_1_ligand
#    Modification time : Mon Mar 24 23:36:51 2014

@<TRIPOS>MOLECULE
3uvp_048_1_ligand
   50    53     1     0     0
SMALL
NO_CHARGES


@<TRIPOS>ATOM
      1 OAA       -18.1660   -1.3740  -26.6470 O.2       1 048361      0.0000 
      2 OAB       -18.1280    4.2010  -19.3870 O.2       1 048361      0.0000 
      3 FAC       -22.6550    4.7150  -19.4720 F         1 048361      0.0000 
      4 CAD       -17.7760    7.4170  -15.5520 C.ar      1 048361      0.0000 
      5 CAE       -17.5450    7.7140  -16.8950 C.ar      1 048361      0.0000 
      6 CAF       -18.3800    6.2180  -15.1680 C.ar      1 048361      0.0000 
      7 CAG       -17.9330    6.8050  -17.8810 C.ar      1 048361      0.0000 
      8 CAH       -18.7610    5.3060  -16.1480 C.ar      1 048361      0.0000 
      9 CAI       -22.7000    2.6540  -20.6720 C.ar      1 048361      0.0000 
     10 CAJ       -22.0550    1.4590  -21.0010 C.ar      1 048361      0.0000 
     11 CAK       -20.0570    0.1460  -23.2250 C.ar      1 048361      0.0000 
     12 CAL       -19.6480   -0.4320  -24.4290 C.ar      1 048361      0.0000 
     13 CAM       -19.0920   -1.6830  -21.9910 C.ar      1 048361      0.0000 
     14 CAN       -20.1530    2.0910  -19.6640 C.ar      1 048361      0.0000 
     15 CAO       -17.6670   -4.4700  -25.2430 C.3       1 048361      0.0000 
     16 CAP       -18.2730   -4.7360  -23.8570 C.3       1 048361      0.0000 
     17 CAQ       -18.6220   -3.6510  -26.1270 C.3       1 048361      0.0000 
     18 CAR       -17.8980   -3.5860  -22.9210 C.3       1 048361      0.0000 
     19 NAS       -20.2280    4.1880  -18.5060 N.am      1 048361      0.0000 
     20 NAT       -20.1240    0.0100  -20.7990 N.pl3     1 048361      0.0000 
     21 CAU       -18.5580   -2.1640  -25.7830 C.2       1 048361      0.0000 
     22 CAV       -18.9550    4.5920  -18.5670 C.2       1 048361      0.0000 
     23 CAW       -22.0610    3.5620  -19.8280 C.ar      1 048361      0.0000 
     24 CAX       -19.7810   -0.4810  -21.9970 C.ar      1 048361      0.0000 
     25 CAY       -20.7660    1.1700  -20.5190 C.ar      1 048361      0.0000 
     26 CAZ       -18.5460    5.6030  -17.5000 C.ar      1 048361      0.0000 
     27 CBA       -18.6750   -2.2650  -23.1850 C.ar      1 048361      0.0000 
     28 CBB       -20.7930    3.2930  -19.3310 C.ar      1 048361      0.0000 
     29 CBC       -18.9510   -1.6410  -24.4000 C.ar      1 048361      0.0000 
     30 H         -17.4943    8.0985  -14.8248 H         1 048361      0.0000 
     31 H         -17.0927    8.5950  -17.1574 H         1 048361      0.0000 
     32 H         -18.5393    6.0147  -14.1799 H         1 048361      0.0000 
     33 H         -17.7737    7.0103  -18.8671 H         1 048361      0.0000 
     34 H         -19.1989    4.4166  -15.8847 H         1 048361      0.0000 
     35 H         -23.6277    2.8589  -21.0455 H         1 048361      0.0000 
     36 H         -22.5306    0.7726  -21.6093 H         1 048361      0.0000 
     37 H         -20.5664    1.0409  -23.2323 H         1 048361      0.0000 
     38 H         -19.8562    0.0238  -25.3177 H         1 048361      0.0000 
     39 H         -18.8847   -2.1532  -21.0954 H         1 048361      0.0000 
     40 H         -19.2222    1.8858  -19.2742 H         1 048361      0.0000 
     41 H         -17.4580   -5.4217  -25.7306 H         1 048361      0.0000 
     42 H         -16.7324   -3.9225  -25.1256 H         1 048361      0.0000 
     43 H         -17.8777   -5.6623  -23.4671 H         1 048361      0.0000 
     44 H         -19.3478   -4.7952  -23.9434 H         1 048361      0.0000 
     45 H         -19.6392   -4.0127  -25.9796 H         1 048361      0.0000 
     46 H         -18.3469   -3.7925  -27.1718 H         1 048361      0.0000 
     47 H         -16.8210   -3.3775  -23.0148 H         1 048361      0.0000 
     48 H         -18.0804   -3.8912  -21.8790 H         1 048361      0.0000 
     49 H         -20.8514    4.6136  -17.7338 H         1 048361      0.0000 
     50 H         -19.8521   -0.6030  -19.9266 H         1 048361      0.0000 
@<TRIPOS>BOND
     1   21    1 2    
     2   22    2 2    
     3   23    3 1    
     4    5    4 ar   
     5    6    4 ar   
     6   30    4 1    
     7    7    5 ar   
     8   31    5 1    
     9    8    6 ar   
    10   32    6 1    
    11   26    7 ar   
    12   33    7 1    
    13   26    8 ar   
    14   34    8 1    
    15   10    9 ar   
    16   23    9 ar   
    17   35    9 1    
    18   25   10 ar   
    19   36   10 1    
    20   12   11 ar   
    21   24   11 ar   
    22   37   11 1    
    23   29   12 ar   
    24   38   12 1    
    25   24   13 ar   
    26   27   13 ar   
    27   39   13 1    
    28   25   14 ar   
    29   28   14 ar   
    30   40   14 1    
    31   16   15 1    
    32   17   15 1    
    33   41   15 1    
    34   42   15 1    
    35   18   16 1    
    36   43   16 1    
    37   44   16 1    
    38   21   17 1    
    39   45   17 1    
    40   46   17 1    
    41   27   18 1    
    42   47   18 1    
    43   48   18 1    
    44   22   19 am   
    45   28   19 1    
    46   49   19 1    
    47   24   20 1    
    48   25   20 1    
    49   50   20 1    
    50   29   21 1    
    51   26   22 1    
    52   28   23 ar   
    53   29   27 ar   
@<TRIPOS>SUBSTRUCTURE
     1 048361      1 GROUP   
@<TRIPOS>SET

