#    Name: 4l4x_NDP_1_INTS_M
#    Modification time : Tue Mar 25 09:50:00 2014

@<TRIPOS>MOLECULE
4l4x_NDP_1_INTS_M
  115     0    12     0     0
SMALL
NO_CHARGES


@<TRIPOS>ATOM
      1 N          33.7430  -25.3465   26.0365 N.am      2 SEC2        0.0000 
      2 N          34.1450  -23.8500   25.8330 N.am     10 SEL2        0.0000 
      3 N          33.3410  -26.8430   26.2400 N.am      6 SEP2        0.0000 
      4 N          33.9505  -24.4110   26.9570 N.am      2 SEC2        0.0000 
      5 N          33.7560  -24.9720   28.0810 N.am      6 SEP2        0.0000 
      6 CA         33.4580  -21.2585   21.2350 C.3       4 GLC5        0.0000 
      7 CA         34.3500  -23.0110   22.2220 C.3      12 GLL5        0.0000 
      8 CA         32.5660  -19.5060   20.2480 C.3       8 GLP5        0.0000 
      9 N          33.5055  -22.2605   19.8820 N.am      2 SEC2        0.0000 
     10 N          34.5840  -23.6330   20.0040 N.am     10 SEL2        0.0000 
     11 N          32.4270  -20.8880   19.7600 N.am      6 SEP2        0.0000 
     12 CA         36.9625  -26.6260   21.5360 C.3       4 GLC5        0.0000 
     13 CA         36.1010  -24.5710   21.6960 C.3      12 GLL5        0.0000 
     14 CA         37.8240  -28.6810   21.3760 C.3       8 GLP5        0.0000 
     15 N          37.8390  -26.7970   19.3810 N.am      2 SEC2        0.0000 
     16 N          37.6310  -25.3630   20.1430 N.am     10 SEL2        0.0000 
     17 N          38.0470  -28.2310   18.6190 N.am      6 SEP2        0.0000 
     18 CA         34.2405  -25.0820   19.3845 C.3       4 GLC5        0.0000 
     19 CA         35.8190  -23.8800   19.3770 C.3      12 GLL5        0.0000 
     20 CA         32.6620  -26.2840   19.3920 C.3       8 GLP5        0.0000 
     21 CA         33.7595  -23.2705   18.8405 C.3       4 GLC5        0.0000 
     22 CA         31.7000  -22.6610   18.3040 C.3       8 GLP5        0.0000 
     23 O          38.8935  -21.0740   13.6935 O.2       1 ALC1        0.0000 
     24 O          37.7710  -20.6290   14.6420 O.2       9 ALL1        0.0000 
     25 O          40.0160  -21.5190   12.7450 O.2       5 ALP1        0.0000 
     26 N          36.4035  -23.1055   13.0395 N.am      2 SEC2        0.0000 
     27 N          36.8260  -22.8020   14.5330 N.am     10 SEL2        0.0000 
     28 N          35.9810  -23.4090   11.5460 N.am      6 SEP2        0.0000 
     29 CA         36.6400  -25.9110   15.7885 C.3       4 GLC5        0.0000 
     30 CA         36.3050  -23.8830   15.1460 C.3      12 GLL5        0.0000 
     31 CA         36.9750  -27.9390   16.4310 C.3       8 GLP5        0.0000 
     32 CA         38.4970  -24.0060   14.9355 C.3       4 GLC5        0.0000 
     33 CA         40.6890  -24.1290   14.7250 C.3       8 GLP5        0.0000 
     34 CA         37.3250  -24.0070   13.3515 C.3       4 GLC5        0.0000 
     35 CA         38.3450  -24.1310   11.5570 C.3       8 GLP5        0.0000 
     36 CA         34.9685  -23.3965   14.1815 C.3       4 GLC5        0.0000 
     37 CA         33.6320  -22.9100   13.2170 C.3       8 GLP5        0.0000 
     38 CA         34.2740  -22.8620   17.0510 C.3       4 GLC5        0.0000 
     39 CA         36.4260  -22.9270   17.2630 C.3      12 GLL5        0.0000 
     40 CA         32.1220  -22.7970   16.8390 C.3       8 GLP5        0.0000 
     41 N          32.3330  -25.7115   25.8235 N.am      2 SEC2        0.0000 
     42 N          31.3250  -24.5800   25.4070 N.am     10 SEL2        0.0000 
     43 N          30.9645  -25.8725   26.1710 N.am      2 SEC2        0.0000 
     44 N          30.6040  -27.1650   26.9350 N.am      6 SEP2        0.0000 
     45 CA         30.0660  -19.9985   22.2160 C.3       4 GLC5        0.0000 
     46 CA         28.8100  -20.8490   23.3730 C.3      12 GLL5        0.0000 
     47 CA         31.3220  -19.1480   21.0590 C.3       8 GLP5        0.0000 
     48 N          28.1845  -19.4905   21.4370 N.am      2 SEC2        0.0000 
     49 N          28.6240  -20.6690   21.9630 N.am     10 SEL2        0.0000 
     50 N          27.7450  -18.3120   20.9110 N.am      6 SEP2        0.0000 
     51 CA         29.7430  -19.0350   25.4360 C.3       4 GLC5        0.0000 
     52 CA         28.1400  -19.7930   24.2470 C.3      12 GLL5        0.0000 
     53 CA         31.3460  -18.2770   26.6250 C.3       8 GLP5        0.0000 
     54 CA         28.3950  -17.8145   24.6015 C.3       4 GLC5        0.0000 
     55 CA         28.6500  -15.8360   24.9560 C.3       8 GLP5        0.0000 
     56 N          27.9785  -17.8725   24.4290 N.am      2 SEC2        0.0000 
     57 N          27.7330  -18.6750   23.4560 N.am     10 SEL2        0.0000 
     58 N          28.2240  -17.0700   25.4020 N.am      6 SEP2        0.0000 
     59 CA         24.9610  -21.3330   25.2085 C.3       4 GLC5        0.0000 
     60 CA         26.9410  -20.4380   24.9590 C.3      12 GLL5        0.0000 
     61 CA         22.9810  -22.2280   25.4580 C.3       8 GLP5        0.0000 
     62 N          26.6210  -22.1505   31.7680 N.am      2 SEC2        0.0000 
     63 N          27.8650  -21.6760   30.8540 N.am     10 SEL2        0.0000 
     64 N          25.3770  -22.6250   32.6820 N.am      6 SEP2        0.0000 
     65 CA         25.6640  -19.9535   30.9885 C.3       4 GLC5        0.0000 
     66 CA         26.6700  -19.6120   29.2420 C.3      12 GLL5        0.0000 
     67 CA         24.6580  -20.2950   32.7350 C.3       8 GLP5        0.0000 
     68 NZ         39.8960  -23.0185   19.5990 N.4       3 LYC4        0.0000 
     69 NZ         39.6960  -24.1850   20.3040 N.4      11 LYL4        0.0000 
     70 NZ         40.4150  -21.7250   17.6030 N.4       7 LYP4        0.0000 
     71 NZ         40.3660  -25.2845   21.7005 N.4       3 LYC4        0.0000 
     72 NZ         41.0360  -26.3840   23.0970 N.4       7 LYP4        0.0000 
     73 N          39.8960  -23.0185   19.5990 N.am      2 SEC2        0.0000 
     74 N          39.6960  -24.1850   20.3040 N.am     10 SEL2        0.0000 
     75 N          40.0960  -21.8520   18.8940 N.am      6 SEP2        0.0000 
     76 NZ         40.3020  -26.5010   21.3490 N.4       3 LYC4        0.0000 
     77 NZ         39.5680  -26.6180   19.6010 N.4      11 LYL4        0.0000 
     78 N          40.5050  -27.2340   18.4245 N.am      2 SEC2        0.0000 
     79 N          39.5680  -26.6180   19.6010 N.am     10 SEL2        0.0000 
     80 N          41.4420  -27.8500   17.2480 N.am      6 SEP2        0.0000 
     81 NZ         39.5910  -23.8055   17.3725 N.4       3 LYC4        0.0000 
     82 NZ         38.8310  -24.8350   17.9540 N.4      11 LYL4        0.0000 
     83 N          38.9285  -25.7985   16.9065 N.am      2 SEC2        0.0000 
     84 N          38.8310  -24.8350   17.9540 N.am     10 SEL2        0.0000 
     85 N          39.0260  -26.7620   15.8590 N.am      6 SEP2        0.0000 
     86 N          39.5910  -23.8055   17.3725 N.am      2 SEC2        0.0000 
     87 N          40.3510  -22.7760   16.7910 N.am      6 SEP2        0.0000 
     88 N          39.4635  -23.3435   18.4240 N.am      2 SEC2        0.0000 
     89 CA         34.0273  -25.3208   20.4547 C.3       4 GLC5        0.0000 
     90 CA         34.6840  -24.1440   21.3390 C.3      12 GLL5        0.0000 
     91 CA         34.8040  -25.5916   22.8961 C.3       4 GLC5        0.0000 
     92 CA         34.2990  -27.1090   24.0540 C.3       8 GLP5        0.0000 
     93 CA         38.9078  -22.2210   15.6725 C.3       4 GLC5        0.0000 
     94 CA         37.0320  -21.6980   16.7060 C.3      12 GLL5        0.0000 
     95 CA         40.6870  -22.7400   15.3630 C.3       8 GLP5        0.0000 
     96 CA         35.5827  -21.5930   14.7230 C.3       4 GLC5        0.0000 
     97 CA         37.2250  -21.7060   15.2580 C.3      12 GLL5        0.0000 
     98 CA         34.0370  -21.4840   13.4640 C.3       8 GLP5        0.0000 
     99 CA         35.6782  -20.1630   16.2490 C.3       4 GLC5        0.0000 
    100 CA         34.2280  -18.6240   16.5160 C.3       8 GLP5        0.0000 
    101 CA         27.6390  -23.6392   25.4878 C.3       4 GLC5        0.0000 
    102 CA         28.1530  -22.1470   23.7910 C.3      12 GLL5        0.0000 
    103 CA         26.6170  -24.6470   26.8820 C.3       8 GLP5        0.0000 
    104 CA         28.5875  -23.8252   22.4653 C.3       4 GLC5        0.0000 
    105 CA         29.1690  -23.1160   24.3960 C.3      12 GLL5        0.0000 
    106 CA         28.5140  -25.0190   20.8370 C.3       8 GLP5        0.0000 
    107 CA         26.9460  -23.4243   23.6408 C.3       4 GLC5        0.0000 
    108 CA         25.2310  -24.2170   23.1880 C.3       8 GLP5        0.0000 
    109 CA         27.0768  -22.7420   27.4360 C.3       4 GLC5        0.0000 
    110 CA         27.5610  -20.9380   27.2980 C.3      12 GLL5        0.0000 
    111 CA         25.3255  -17.4480   26.6365 C.3       4 GLC5        0.0000 
    112 CA         26.0970  -19.1740   26.8670 C.3      12 GLL5        0.0000 
    113 CA         24.6180  -15.8790   25.7310 C.3       8 GLP5        0.0000 
    114 CA         24.2675  -20.0650   27.6105 C.3       4 GLC5        0.0000 
    115 CA         22.5020  -21.1130   27.6790 C.3       8 GLP5        0.0000 
@<TRIPOS>BOND
@<TRIPOS>SUBSTRUCTURE
     1 ALC1       23 GROUP        1 X    ALC  0     ROOT ALC X 1
     2 SEC2        1 GROUP        1 X    SEC  0     **** SEC X 2
     3 LYC4       68 GROUP        1 X    LYC  0     **** LYC X 4
     4 GLC5        6 GROUP        1 X    GLC  0     **** GLC X 6
     5 ALP1       25 GROUP        1 Y    ALP  0     ROOT ALP Y 8
     6 SEP2        3 GROUP        1 Y    SEP  0     **** SEP Y 9
     7 LYP4       70 GROUP        1 Y    LYP  0     **** LYP Y 11
     8 GLP5        8 GROUP        1 Y    GLP  0     **** GLP Y 13
     9 ALL1       24 GROUP        1 Z    ALL  0     ROOT ALL Z 15
    10 SEL2        2 GROUP        1 Z    SEL  0     **** SEL Z 16
    11 LYL4       69 GROUP        1 Z    LYL  0     **** LYL Z 18
    12 GLL5        7 GROUP        1 Z    GLL  0     **** GLL Z 20
@<TRIPOS>SET

