#    Name: 4l4x_NDP_1_ligand
#    Modification time : Tue Mar 25 09:50:00 2014

@<TRIPOS>MOLECULE
4l4x_NDP_1_ligand
   74    78     1     0     0
SMALL
NO_CHARGES


@<TRIPOS>ATOM
      1 PA         33.8720  -22.8450   24.7540 P.3       1 NDP601      0.0000 
      2 O1A        34.1450  -23.8500   25.8330 O.co2     1 NDP601      0.0000 
      3 O2A        34.8230  -21.6760   24.6260 O.co2     1 NDP601      0.0000 
      4 O5B        33.7420  -23.5990   23.3400 O.3       1 NDP601      0.0000 
      5 C5B        34.3500  -23.0110   22.2220 C.3       1 NDP601      0.0000 
      6 C4B        34.6840  -24.1440   21.3390 C.3       1 NDP601      0.0000 
      7 O4B        34.5840  -23.6330   20.0040 O.3       1 NDP601      0.0000 
      8 C3B        36.1010  -24.5710   21.6960 C.3       1 NDP601      0.0000 
      9 O3B        36.1810  -25.9620   21.9120 O.3       1 NDP601      0.0000 
     10 C2B        36.8600  -24.2220   20.4640 C.3       1 NDP601      0.0000 
     11 O2B        37.6310  -25.3630   20.1430 O.3       1 NDP601      0.0000 
     12 C1B        35.8190  -23.8800   19.3770 C.3       1 NDP601      0.0000 
     13 N9A        36.3180  -22.7660   18.5660 N.pl3     1 NDP601      0.0000 
     14 C8A        36.8630  -21.5460   18.8980 C.2       1 NDP601      0.0000 
     15 N7A        37.2740  -20.8740   17.7430 N.2       1 NDP601      0.0000 
     16 C5A        37.0320  -21.6980   16.7060 C.ar      1 NDP601      0.0000 
     17 C6A        37.2250  -21.7060   15.2580 C.ar      1 NDP601      0.0000 
     18 N6A        37.7710  -20.6290   14.6420 N.pl3     1 NDP601      0.0000 
     19 N1A        36.8260  -22.8020   14.5330 N.ar      1 NDP601      0.0000 
     20 C2A        36.3050  -23.8830   15.1460 C.ar      1 NDP601      0.0000 
     21 N3A        36.1200  -23.9610   16.4710 N.ar      1 NDP601      0.0000 
     22 C4A        36.4260  -22.9270   17.2630 C.ar      1 NDP601      0.0000 
     23 O3         32.3990  -22.2950   25.0230 O.3       1 NDP601      0.0000 
     24 PN         31.3270  -23.1320   25.8860 P.3       1 NDP601      0.0000 
     25 O1N        31.4250  -22.7300   27.3500 O.co2     1 NDP601      0.0000 
     26 O2N        31.3250  -24.5800   25.4070 O.co2     1 NDP601      0.0000 
     27 O5D        29.9770  -22.4660   25.3670 O.3       1 NDP601      0.0000 
     28 C5D        29.1690  -23.1160   24.3960 C.3       1 NDP601      0.0000 
     29 C4D        28.1530  -22.1470   23.7910 C.3       1 NDP601      0.0000 
     30 O4D        27.0790  -21.8390   24.7120 O.3       1 NDP601      0.0000 
     31 C3D        28.8100  -20.8490   23.3730 C.3       1 NDP601      0.0000 
     32 O3D        28.6240  -20.6690   21.9630 O.3       1 NDP601      0.0000 
     33 C2D        28.1400  -19.7930   24.2470 C.3       1 NDP601      0.0000 
     34 O2D        27.7330  -18.6750   23.4560 O.3       1 NDP601      0.0000 
     35 C1D        26.9410  -20.4380   24.9590 C.3       1 NDP601      0.0000 
     36 N1N        26.8720  -20.1740   26.4240 N.pl3     1 NDP601      0.0000 
     37 C2N        27.5610  -20.9380   27.2980 C.2       1 NDP601      0.0000 
     38 C3N        27.5120  -20.7360   28.6820 C.2       1 NDP601      0.0000 
     39 C7N        28.2940  -21.5770   29.6880 C.2       1 NDP601      0.0000 
     40 O7N        27.8650  -21.6760   30.8540 O.2       1 NDP601      0.0000 
     41 N7N        29.4490  -22.1600   29.3120 N.am      1 NDP601      0.0000 
     42 C4N        26.6700  -19.6120   29.2420 C.3       1 NDP601      0.0000 
     43 C5N        25.9690  -18.8600   28.2170 C.2       1 NDP601      0.0000 
     44 C6N        26.0970  -19.1740   26.8670 C.2       1 NDP601      0.0000 
     45 P2B        39.0570  -25.2130   19.4100 P.3       1 NDP601      0.0000 
     46 O1X        39.6960  -24.1850   20.3040 O.co2     1 NDP601      0.0000 
     47 O2X        39.5680  -26.6180   19.6010 O.co2     1 NDP601      0.0000 
     48 O3X        38.8310  -24.8350   17.9540 O.co2     1 NDP601      0.0000 
     49 H          35.2612  -22.4833   22.4828 H         1 NDP601      0.0000 
     50 H          33.6789  -22.3385   21.6985 H         1 NDP601      0.0000 
     51 H          34.0143  -24.9408   21.5198 H         1 NDP601      0.0000 
     52 H          36.4420  -23.9803   22.4939 H         1 NDP601      0.0000 
     53 H          37.4506  -23.3613   20.6565 H         1 NDP601      0.0000 
     54 H          35.7578  -24.7813   18.7444 H         1 NDP601      0.0000 
     55 H          36.9531  -21.1967   19.7896 H         1 NDP601      0.0000 
     56 H          37.2850  -19.7627   14.7577 H         1 NDP601      0.0000 
     57 H          38.6114  -20.7961   14.1264 H         1 NDP601      0.0000 
     58 H          36.0265  -24.7178   14.5430 H         1 NDP601      0.0000 
     59 H          28.6056  -23.9585   24.8294 H         1 NDP601      0.0000 
     60 H          29.7716  -23.5235   23.5679 H         1 NDP601      0.0000 
     61 H          27.7417  -22.6107   22.8893 H         1 NDP601      0.0000 
     62 H          29.8440  -20.9122   23.6521 H         1 NDP601      0.0000 
     63 H          28.8525  -19.5000   25.0106 H         1 NDP601      0.0000 
     64 H          26.0431  -20.0732   24.4705 H         1 NDP601      0.0000 
     65 H          28.1663  -21.7236   26.9446 H         1 NDP601      0.0000 
     66 H          29.8915  -22.7409   29.9952 H         1 NDP601      0.0000 
     67 H          29.7610  -21.9599   28.3832 H         1 NDP601      0.0000 
     68 H          27.3320  -18.9444   29.8301 H         1 NDP601      0.0000 
     69 H          25.9511  -20.0465   29.9660 H         1 NDP601      0.0000 
     70 H          25.3692  -18.0808   28.5218 H         1 NDP601      0.0000 
     71 H          25.5514  -18.5866   26.1794 H         1 NDP601      0.0000 
     72 H          36.7021  -26.3149   21.1348 H         1 NDP601      0.0000 
     73 H          28.3022  -21.5551   21.6293 H         1 NDP601      0.0000 
     74 H          27.9537  -18.9301   22.5147 H         1 NDP601      0.0000 
@<TRIPOS>BOND
     1    2    1 ar   
     2    3    1 ar   
     3    4    1 1    
     4   23    1 1    
     5    5    4 1    
     6    6    5 1    
     7   49    5 1    
     8   50    5 1    
     9    7    6 1    
    10    8    6 1    
    11   51    6 1    
    12   12    7 1    
    13    9    8 1    
    14   10    8 1    
    15   52    8 1    
    16   72    9 1    
    17   11   10 1    
    18   12   10 1    
    19   53   10 1    
    20   45   11 1    
    21   13   12 1    
    22   54   12 1    
    23   14   13 1    
    24   22   13 1    
    25   15   14 2    
    26   55   14 1    
    27   16   15 1    
    28   17   16 ar   
    29   22   16 ar   
    30   18   17 1    
    31   19   17 ar   
    32   56   18 1    
    33   57   18 1    
    34   20   19 ar   
    35   21   20 ar   
    36   58   20 1    
    37   22   21 ar   
    38   24   23 1    
    39   25   24 ar   
    40   26   24 ar   
    41   27   24 1    
    42   28   27 1    
    43   29   28 1    
    44   59   28 1    
    45   60   28 1    
    46   30   29 1    
    47   31   29 1    
    48   61   29 1    
    49   35   30 1    
    50   32   31 1    
    51   33   31 1    
    52   62   31 1    
    53   73   32 1    
    54   34   33 1    
    55   35   33 1    
    56   63   33 1    
    57   74   34 1    
    58   36   35 1    
    59   64   35 1    
    60   37   36 1    
    61   44   36 1    
    62   38   37 2    
    63   65   37 1    
    64   39   38 1    
    65   42   38 1    
    66   40   39 2    
    67   41   39 am   
    68   66   41 1    
    69   67   41 1    
    70   43   42 1    
    71   68   42 1    
    72   69   42 1    
    73   44   43 2    
    74   70   43 1    
    75   71   44 1    
    76   46   45 ar   
    77   47   45 ar   
    78   48   45 ar   
@<TRIPOS>SUBSTRUCTURE
     1 NDP601      1 GROUP   
@<TRIPOS>SET

