#    Name: 1v3s_ATP_1_INTS_M
#    Modification time : Tue Mar 25 07:28:38 2014

@<TRIPOS>MOLECULE
1v3s_ATP_1_INTS_M
   83     0    12     0     0
SMALL
NO_CHARGES


@<TRIPOS>ATOM
      1 NZ         -1.9675    4.4335   -5.8880 N.4       3 LYC4        0.0000 
      2 NZ         -0.8460    5.0310   -5.6250 N.4      11 LYL4        0.0000 
      3 NZ         -3.5290    4.6800   -7.0770 N.4       7 LYP4        0.0000 
      4 N          -1.9675    4.4335   -5.8880 N.am      2 SEC2        0.0000 
      5 N          -0.8460    5.0310   -5.6250 N.am     10 SEL2        0.0000 
      6 N          -3.0890    3.8360   -6.1510 N.am      6 SEP2        0.0000 
      7 NZ          0.2090    8.8835   -6.8875 N.4       3 LYC4        0.0000 
      8 NZ          0.2720    6.9190   -6.9870 N.4      11 LYL4        0.0000 
      9 NZ          0.1460   10.8480   -6.7880 N.4       7 LYP4        0.0000 
     10 N          -1.1975    6.1250   -7.4190 N.am      2 SEC2        0.0000 
     11 N           0.2720    6.9190   -6.9870 N.am     10 SEL2        0.0000 
     12 N          -2.6670    5.3310   -7.8510 N.am      6 SEP2        0.0000 
     13 N           3.1365    4.4065   -5.9620 N.am      2 SEC2        0.0000 
     14 N           1.5600    4.6620   -6.6070 N.am     10 SEL2        0.0000 
     15 N           4.7130    4.1510   -5.3170 N.am      6 SEP2        0.0000 
     16 NZ         -0.0370    9.6545   -5.8730 N.4       3 LYC4        0.0000 
     17 NZ         -0.2200    8.4610   -4.9580 N.4      11 LYL4        0.0000 
     18 N          -0.0370    9.6545   -5.8730 N.am      2 SEC2        0.0000 
     19 N          -0.2200    8.4610   -4.9580 N.am     10 SEL2        0.0000 
     20 N           0.1460   10.8480   -6.7880 N.am      6 SEP2        0.0000 
     21 N           1.1530    8.2105   -1.6575 N.am      2 SEC2        0.0000 
     22 N           1.6050    8.2920   -3.0750 N.am     10 SEL2        0.0000 
     23 N           0.7010    8.1290   -0.2400 N.am      6 SEP2        0.0000 
     24 N           4.2080    5.5115   -6.0715 N.am      2 SEC2        0.0000 
     25 N           3.7030    6.8720   -6.8260 N.am     10 SEL2        0.0000 
     26 N           4.2735    6.8975   -8.0180 N.am      2 SEC2        0.0000 
     27 N           4.8440    6.9230   -9.2100 N.am      6 SEP2        0.0000 
     28 CA          5.8720    6.7030   -5.8365 C.3       4 GLC5        0.0000 
     29 CA          5.7440    8.6540   -6.0630 C.3      12 GLL5        0.0000 
     30 CA          6.0000    4.7520   -5.6100 C.3       8 GLP5        0.0000 
     31 CA          7.5320   10.9110   -7.7495 C.3       4 GLC5        0.0000 
     32 CA          6.4230   10.0190   -6.2190 C.3      12 GLL5        0.0000 
     33 CA          8.6410   11.8030   -9.2800 C.3       8 GLP5        0.0000 
     34 CA          6.6735   11.1380   -2.8555 C.3       4 GLC5        0.0000 
     35 CA          6.4920   10.7740   -4.8920 C.3      12 GLL5        0.0000 
     36 CA          6.8550   11.5020   -0.8190 C.3       8 GLP5        0.0000 
     37 CA          5.0475   10.4110   -3.5000 C.3       4 GLC5        0.0000 
     38 CA          3.6030   10.0480   -2.1080 C.3       8 GLP5        0.0000 
     39 CA          7.6875   11.9955   -7.3485 C.3       4 GLC5        0.0000 
     40 CA          6.7340   12.1880   -5.4170 C.3      12 GLL5        0.0000 
     41 CA          7.5430   14.2435   -5.8170 C.3       4 GLC5        0.0000 
     42 CA          8.3520   16.2990   -6.2170 C.3       8 GLP5        0.0000 
     43 O           7.8190   13.7460   -6.1980 O.2       1 ALC1        0.0000 
     44 O           8.0840   12.3420   -5.8660 O.2       9 ALL1        0.0000 
     45 O           7.5540   15.1500   -6.5300 O.2       5 ALP1        0.0000 
     46 CA          6.4150   13.3755   -8.0290 C.3       4 GLC5        0.0000 
     47 CA          5.7820   12.2280   -6.6150 C.3      12 GLL5        0.0000 
     48 CA          7.0480   14.5230   -9.4430 C.3       8 GLP5        0.0000 
     49 N           1.2235   11.7610   -6.2710 N.am      2 SEC2        0.0000 
     50 N           2.3010   12.6740   -5.7540 N.am     10 SEL2        0.0000 
     51 CA          1.4725   13.0050   -7.4225 C.3       4 GLC5        0.0000 
     52 CA          2.6700   13.9430   -5.8950 C.3      12 GLL5        0.0000 
     53 CA          0.2750   12.0670   -8.9500 C.3       8 GLP5        0.0000 
     54 CA          3.5815   15.6980   -4.3235 C.3       4 GLC5        0.0000 
     55 CA          2.0110   15.1640   -5.8140 C.3      12 GLL5        0.0000 
     56 CA          5.1520   16.2320   -2.8330 C.3       8 GLP5        0.0000 
     57 CA          1.0625   16.9335   -6.4980 C.3       4 GLC5        0.0000 
     58 CA          0.1140   18.7030   -7.1820 C.3       8 GLP5        0.0000 
     59 O          -0.1535   16.4580   -5.4480 O.2       1 ALC1        0.0000 
     60 O           0.7020   15.2070   -5.5820 O.2       9 ALL1        0.0000 
     61 O          -1.0090   17.7090   -5.3140 O.2       5 ALP1        0.0000 
     62 N           2.0205   17.5325   -6.2020 N.am      2 SEC2        0.0000 
     63 N           2.7060   16.2960   -6.0050 N.am     10 SEL2        0.0000 
     64 N           1.3350   18.7690   -6.3990 N.am      6 SEP2        0.0000 
     65 CA          4.5770   16.2515   -4.5520 C.3       4 GLC5        0.0000 
     66 CA          4.0020   16.2710   -6.2710 C.3      12 GLL5        0.0000 
     67 CA          6.1770   16.2850   -6.2440 C.3       4 GLC5        0.0000 
     68 CA          3.5175   18.0730   -5.6750 C.3       4 GLC5        0.0000 
     69 CA          3.0330   19.8750   -5.0790 C.3       8 GLP5        0.0000 
     70 N           6.1060   15.1380   -6.4455 N.am      2 SEC2        0.0000 
     71 N           4.6580   15.1260   -6.3610 N.am     10 SEL2        0.0000 
     72 N           7.5540   15.1500   -6.5300 N.am      6 SEP2        0.0000 
     73 CA          5.5380   14.2390   -7.8135 C.3       4 GLC5        0.0000 
     74 CA          4.0280   13.9550   -6.1840 C.3      12 GLL5        0.0000 
     75 CA          4.5900   15.0935   -4.5085 C.3       4 GLC5        0.0000 
     76 CA          7.9597    8.4928   -5.9015 C.3       4 GLC5        0.0000 
     77 CA          9.8360    7.6490   -5.6620 C.3       8 GLP5        0.0000 
     78 CA          5.4897    8.8238   -7.8910 C.3       4 GLC5        0.0000 
     79 CA          4.8960    8.3110   -9.6410 C.3       8 GLP5        0.0000 
     80 CA          8.1370   12.1305   -4.0828 C.3       4 GLC5        0.0000 
     81 CA          9.6610   12.7800   -3.0110 C.3       8 GLP5        0.0000 
     82 CA          2.2817   14.2598   -3.9297 C.3       4 GLC5        0.0000 
     83 CA          2.2230   13.9660   -2.0050 C.3       8 GLP5        0.0000 
@<TRIPOS>BOND
@<TRIPOS>SUBSTRUCTURE
     1 ALC1       43 GROUP        1 X    ALC  0     ROOT ALC X 1
     2 SEC2        4 GROUP        1 X    SEC  0     **** SEC X 2
     3 LYC4        1 GROUP        1 X    LYC  0     **** LYC X 4
     4 GLC5       28 GROUP        1 X    GLC  0     **** GLC X 6
     5 ALP1       45 GROUP        1 Y    ALP  0     ROOT ALP Y 8
     6 SEP2        6 GROUP        1 Y    SEP  0     **** SEP Y 9
     7 LYP4        3 GROUP        1 Y    LYP  0     **** LYP Y 11
     8 GLP5       30 GROUP        1 Y    GLP  0     **** GLP Y 13
     9 ALL1       44 GROUP        1 Z    ALL  0     ROOT ALL Z 15
    10 SEL2        5 GROUP        1 Z    SEL  0     **** SEL Z 16
    11 LYL4        2 GROUP        1 Z    LYL  0     **** LYL Z 18
    12 GLL5       29 GROUP        1 Z    GLL  0     **** GLL Z 20
@<TRIPOS>SET

