#    Name: 1v3s_ATP_1_ligand
#    Modification time : Tue Mar 25 07:28:38 2014

@<TRIPOS>MOLECULE
1v3s_ATP_1_ligand
   43    45     1     0     0
SMALL
NO_CHARGES


@<TRIPOS>ATOM
      1 PG          0.4450    5.6490   -6.0070 P.3       1 ATP200      0.0000 
      2 O1G        -0.8460    5.0310   -5.6250 O.co2     1 ATP200      0.0000 
      3 O2G         0.2720    6.9190   -6.9870 O.co2     1 ATP200      0.0000 
      4 O3G         1.5600    4.6620   -6.6070 O.co2     1 ATP200      0.0000 
      5 PB          0.9440    7.8160   -4.3100 P.3       1 ATP200      0.0000 
      6 O1B        -0.2200    8.4610   -4.9580 O.co2     1 ATP200      0.0000 
      7 O2B         1.6050    8.2920   -3.0750 O.co2     1 ATP200      0.0000 
      8 O3B         1.1640    6.2700   -4.7060 O.3       1 ATP200      0.0000 
      9 PA          3.4380    7.4930   -5.5110 P.3       1 ATP200      0.0000 
     10 O1A         3.7030    6.8720   -6.8260 O.co2     1 ATP200      0.0000 
     11 O2A         3.9850    7.0250   -4.2170 O.co2     1 ATP200      0.0000 
     12 O3A         2.0680    8.3250   -5.3490 O.3       1 ATP200      0.0000 
     13 O5'         4.3720    8.7950   -5.6790 O.3       1 ATP200      0.0000 
     14 C5'         5.7440    8.6540   -6.0630 C.3       1 ATP200      0.0000 
     15 C4'         6.4230   10.0190   -6.2190 C.3       1 ATP200      0.0000 
     16 O4'         5.6740   10.8750   -7.0970 O.3       1 ATP200      0.0000 
     17 C3'         6.4920   10.7740   -4.8920 C.3       1 ATP200      0.0000 
     18 O3'         7.6510   10.3330   -4.1800 O.3       1 ATP200      0.0000 
     19 C2'         6.7340   12.1880   -5.4170 C.3       1 ATP200      0.0000 
     20 O2'         8.0840   12.3420   -5.8660 O.3       1 ATP200      0.0000 
     21 C1'         5.7820   12.2280   -6.6150 C.3       1 ATP200      0.0000 
     22 N9          4.4270   12.6870   -6.2270 N.pl3     1 ATP200      0.0000 
     23 C8          3.3770   11.9150   -5.9550 C.2       1 ATP200      0.0000 
     24 N7          2.3010   12.6740   -5.7540 N.2       1 ATP200      0.0000 
     25 C5          2.6700   13.9430   -5.8950 C.ar      1 ATP200      0.0000 
     26 C6          2.0110   15.1640   -5.8140 C.ar      1 ATP200      0.0000 
     27 N6          0.7020   15.2070   -5.5820 N.pl3     1 ATP200      0.0000 
     28 N1          2.7060   16.2960   -6.0050 N.ar      1 ATP200      0.0000 
     29 C2          4.0020   16.2710   -6.2710 C.ar      1 ATP200      0.0000 
     30 N3          4.6580   15.1260   -6.3610 N.ar      1 ATP200      0.0000 
     31 C4          4.0280   13.9550   -6.1840 C.ar      1 ATP200      0.0000 
     32 H           5.8435    8.1221   -7.0229 H         1 ATP200      0.0000 
     33 H           6.3171    8.0816   -5.3159 H         1 ATP200      0.0000 
     34 H           7.4224    9.8849   -6.5782 H         1 ATP200      0.0000 
     35 H           5.6039   10.7205   -4.4094 H         1 ATP200      0.0000 
     36 H           6.4161   12.8774   -4.7097 H         1 ATP200      0.0000 
     37 H           6.1969   12.8616   -7.3616 H         1 ATP200      0.0000 
     38 H           3.3929   10.9353   -5.9094 H         1 ATP200      0.0000 
     39 H           0.2914   16.1181   -5.5446 H         1 ATP200      0.0000 
     40 H           0.2465   14.3244   -5.4659 H         1 ATP200      0.0000 
     41 H           4.5214   17.1814   -6.4139 H         1 ATP200      0.0000 
     42 H           8.3315   11.0515   -4.3232 H         1 ATP200      0.0000 
     43 H           8.1516   13.2953   -6.1603 H         1 ATP200      0.0000 
@<TRIPOS>BOND
     1    2    1 ar   
     2    3    1 ar   
     3    4    1 ar   
     4    8    1 1    
     5    6    5 ar   
     6    7    5 ar   
     7    8    5 1    
     8   12    5 1    
     9   10    9 ar   
    10   11    9 ar   
    11   12    9 1    
    12   13    9 1    
    13   14   13 1    
    14   15   14 1    
    15   32   14 1    
    16   33   14 1    
    17   16   15 1    
    18   17   15 1    
    19   34   15 1    
    20   21   16 1    
    21   18   17 1    
    22   19   17 1    
    23   35   17 1    
    24   42   18 1    
    25   20   19 1    
    26   21   19 1    
    27   36   19 1    
    28   43   20 1    
    29   22   21 1    
    30   37   21 1    
    31   23   22 1    
    32   31   22 1    
    33   24   23 2    
    34   38   23 1    
    35   25   24 1    
    36   26   25 ar   
    37   31   25 ar   
    38   27   26 1    
    39   28   26 ar   
    40   39   27 1    
    41   40   27 1    
    42   29   28 ar   
    43   30   29 ar   
    44   41   29 1    
    45   31   30 ar   
@<TRIPOS>SUBSTRUCTURE
     1 ATP200      1 GROUP   
@<TRIPOS>SET

