#    Name: 4djw_0KP_1_INTS_M
#    Modification time : Tue Mar 25 09:45:38 2014

@<TRIPOS>MOLECULE
4djw_0KP_1_INTS_M
   45     0     9     0     0
SMALL
NO_CHARGES


@<TRIPOS>ATOM
      1 O          22.2455    8.2040   22.2800 O.2       1 ALC1        0.0000 
      2 O          22.5380    9.4930   22.4640 O.2       7 ALL1        0.0000 
      3 O          21.9530    6.9150   22.0960 O.2       4 ALP1        0.0000 
      4 OD1        23.0385    7.7875   24.3490 O.co2     2 ASC3        0.0000 
      5 OD1        22.7800    9.9140   23.7010 O.co2     8 ASL3        0.0000 
      6 OD1        23.0800    6.4640   23.9490 O.co2     5 ASP3        0.0000 
      7 OD1        22.3665    8.4145   22.8985 O.co2     2 ASC3        0.0000 
      8 OD1        21.9530    6.9150   22.0960 O.co2     5 ASP3        0.0000 
      9 OD1        23.2795    9.2970   26.0675 O.co2     2 ASC3        0.0000 
     10 OD1        23.5620    9.4830   27.3860 O.co2     5 ASP3        0.0000 
     11 O          23.0385    7.7875   24.3490 O.2       1 ALC1        0.0000 
     12 O          22.9970    9.1110   24.7490 O.2       7 ALL1        0.0000 
     13 O          23.0800    6.4640   23.9490 O.2       4 ALP1        0.0000 
     14 O          23.2795    9.2970   26.0675 O.2       1 ALC1        0.0000 
     15 O          23.5620    9.4830   27.3860 O.2       4 ALP1        0.0000 
     16 CA         30.5980    9.0700   20.9845 C.3       3 GLC5        0.0000 
     17 CA         29.8540   10.9130   21.4510 C.3       9 GLL5        0.0000 
     18 CA         31.3420    7.2270   20.5180 C.3       6 GLP5        0.0000 
     19 CA         29.6125    8.5035   20.8630 C.3       3 GLC5        0.0000 
     20 CA         27.8830    9.7800   21.2080 C.3       9 GLL5        0.0000 
     21 CA         27.0070    8.8135   22.7555 C.3       3 GLC5        0.0000 
     22 CA         26.1310    7.8470   24.3030 C.3       6 GLP5        0.0000 
     23 CA         19.1307    8.0920   21.6243 C.3       3 GLC5        0.0000 
     24 CA         20.2720    9.4140   20.7470 C.3       9 GLL5        0.0000 
     25 CA         18.6410    6.7890   22.7450 C.3       6 GLP5        0.0000 
     26 CA         20.0527    8.1450   19.3473 C.3       3 GLC5        0.0000 
     27 CA         18.9690    9.3760   20.2600 C.3       9 GLL5        0.0000 
     28 CA         20.4850    6.8950   18.1910 C.3       6 GLP5        0.0000 
     29 CA         16.7360   11.3418   19.3620 C.3       3 GLC5        0.0000 
     30 CA         18.2800   10.5440   20.0210 C.3       9 GLL5        0.0000 
     31 CA         14.8860   11.5350   18.5840 C.3       6 GLP5        0.0000 
     32 CA         18.7007   13.6620   20.6792 C.3       3 GLC5        0.0000 
     33 CA         18.8920   11.7530   20.2590 C.3       9 GLL5        0.0000 
     34 CA         17.8580   15.5490   20.8570 C.3       6 GLP5        0.0000 
     35 CA         25.4002    8.9005   18.9252 C.3       3 GLC5        0.0000 
     36 CA         24.2350   10.8650   18.2430 C.3       9 GLL5        0.0000 
     37 CA         25.9080    6.9480   19.4010 C.3       6 GLP5        0.0000 
     38 CA         25.6283    8.8258   19.9380 C.3       3 GLC5        0.0000 
     39 CA         25.8710   10.7460   20.0070 C.3       9 GLL5        0.0000 
     40 CA         31.3177   10.8667   20.0155 C.3       3 GLC5        0.0000 
     41 CA         33.0160   10.2880   18.9490 C.3       6 GLP5        0.0000 
     42 CA         26.7497    8.6193   20.1187 C.3       3 GLC5        0.0000 
     43 CA         29.0654   12.0820   18.7689 C.3       3 GLC5        0.0000 
     44 CA         29.3850   11.9780   20.7130 C.3       9 GLL5        0.0000 
     45 CA         29.5900   12.4950   17.0100 C.3       6 GLP5        0.0000 
@<TRIPOS>BOND
@<TRIPOS>SUBSTRUCTURE
     1 ALC1        1 GROUP        1 X    ALC  0     ROOT ALC X 1
     2 ASC3        4 GROUP        1 X    ASC  0     **** ASC X 3
     3 GLC5       16 GROUP        1 X    GLC  0     **** GLC X 6
     4 ALP1        3 GROUP        1 Y    ALP  0     ROOT ALP Y 8
     5 ASP3        6 GROUP        1 Y    ASP  0     **** ASP Y 10
     6 GLP5       18 GROUP        1 Y    GLP  0     **** GLP Y 13
     7 ALL1        2 GROUP        1 Z    ALL  0     ROOT ALL Z 15
     8 ASL3        5 GROUP        1 Z    ASL  0     **** ASL Z 17
     9 GLL5       17 GROUP        1 Z    GLL  0     **** GLL Z 20
@<TRIPOS>SET

