#    Name: 4djw_0KP_1_ligand
#    Modification time : Tue Mar 25 09:45:38 2014

@<TRIPOS>MOLECULE
4djw_0KP_1_ligand
   45    48     1     0     0
SMALL
NO_CHARGES


@<TRIPOS>ATOM
      1 O1         22.3600   13.0630   22.3480 O.2       1 0KP501      0.0000 
      2 C1         22.4950   11.8750   22.5810 C.2       1 0KP501      0.0000 
      3 C2         22.3390   10.6680   21.5610 C.3       1 0KP501      0.0000 
      4 N1         22.5380    9.4930   22.4640 N.pl3     1 0KP501      0.0000 
      5 C3         22.7800    9.9140   23.7010 C.cat     1 0KP501      0.0000 
      6 N2         22.7860   11.3350   23.8120 N.am      1 0KP501      0.0000 
      7 N3         22.9970    9.1110   24.7490 N.pl3     1 0KP501      0.0000 
      8 C4         23.0220   12.1410   25.0180 C.3       1 0KP501      0.0000 
      9 C5         20.9020   10.6270   21.0050 C.ar      1 0KP501      0.0000 
     10 C6         20.2720    9.4140   20.7470 C.ar      1 0KP501      0.0000 
     11 C7         18.9690    9.3760   20.2600 C.ar      1 0KP501      0.0000 
     12 C8         18.2800   10.5440   20.0210 C.ar      1 0KP501      0.0000 
     13 C9         18.8920   11.7530   20.2590 C.ar      1 0KP501      0.0000 
     14 C10        20.1950   11.7970   20.7440 C.ar      1 0KP501      0.0000 
     15 C11        23.4880   10.6920   20.5300 C.ar      1 0KP501      0.0000 
     16 C12        23.2110   10.7890   19.1730 C.ar      1 0KP501      0.0000 
     17 C13        24.2350   10.8650   18.2430 C.ar      1 0KP501      0.0000 
     18 C14        25.5500   10.8410   18.6560 C.ar      1 0KP501      0.0000 
     19 C15        25.8710   10.7460   20.0070 C.ar      1 0KP501      0.0000 
     20 C16        24.8260   10.6610   20.9430 C.ar      1 0KP501      0.0000 
     21 C17        29.8540   10.9130   21.4510 C.ar      1 0KP501      0.0000 
     22 N4         29.1260    9.8230   21.7090 N.ar      1 0KP501      0.0000 
     23 C18        27.8830    9.7800   21.2080 C.ar      1 0KP501      0.0000 
     24 C19        27.3000   10.8010   20.4650 C.ar      1 0KP501      0.0000 
     25 C20        28.0930   11.9190   20.2200 C.ar      1 0KP501      0.0000 
     26 C21        29.3850   11.9780   20.7130 C.ar      1 0KP501      0.0000 
     27 H          22.4812    8.6079   22.1147 H         1 0KP501      0.0000 
     28 H          23.1934    9.5651   25.6180 H         1 0KP501      0.0000 
     29 H          22.9433    8.1288   24.5693 H         1 0KP501      0.0000 
     30 H          20.7782    8.5289   20.9192 H         1 0KP501      0.0000 
     31 H          18.5215    8.4626   20.0787 H         1 0KP501      0.0000 
     32 H          17.3137   10.5123   19.6667 H         1 0KP501      0.0000 
     33 H          18.3873   12.6360   20.0789 H         1 0KP501      0.0000 
     34 H          20.6455   12.7131   20.9133 H         1 0KP501      0.0000 
     35 H          22.2264   10.8046   18.8534 H         1 0KP501      0.0000 
     36 H          24.0094   10.9398   17.2382 H         1 0KP501      0.0000 
     37 H          26.3125   10.8940   17.9572 H         1 0KP501      0.0000 
     38 H          25.0492   10.5749   21.9449 H         1 0KP501      0.0000 
     39 H          30.8457   10.9789   21.8256 H         1 0KP501      0.0000 
     40 H          27.2848    8.9131   21.3798 H         1 0KP501      0.0000 
     41 H          27.7134   12.7031   19.6695 H         1 0KP501      0.0000 
     42 H          29.9736   12.7917   20.5327 H         1 0KP501      0.0000 
     43 H          23.2186   11.5690   25.8144 H         1 0KP501      0.0000 
     44 H          23.7979   12.7615   24.9041 H         1 0KP501      0.0000 
     45 H          22.2284   12.7036   25.2499 H         1 0KP501      0.0000 
@<TRIPOS>BOND
     1    2    1 2    
     2    3    2 1    
     3    6    2 am   
     4    4    3 1    
     5    9    3 1    
     6   15    3 1    
     7    5    4 ar   
     8   27    4 1    
     9    6    5 ar   
    10    7    5 ar   
    11    8    6 1    
    12   28    7 1    
    13   29    7 1    
    14   43    8 1    
    15   44    8 1    
    16   45    8 1    
    17   10    9 ar   
    18   14    9 ar   
    19   11   10 ar   
    20   30   10 1    
    21   12   11 ar   
    22   31   11 1    
    23   13   12 ar   
    24   32   12 1    
    25   14   13 ar   
    26   33   13 1    
    27   34   14 1    
    28   16   15 ar   
    29   20   15 ar   
    30   17   16 ar   
    31   35   16 1    
    32   18   17 ar   
    33   36   17 1    
    34   19   18 ar   
    35   37   18 1    
    36   20   19 ar   
    37   24   19 1    
    38   38   20 1    
    39   22   21 ar   
    40   26   21 ar   
    41   39   21 1    
    42   23   22 ar   
    43   24   23 ar   
    44   40   23 1    
    45   25   24 ar   
    46   26   25 ar   
    47   41   25 1    
    48   42   26 1    
@<TRIPOS>SUBSTRUCTURE
     1 0KP501      1 GROUP   
@<TRIPOS>SET

