#    Name: 3d90_NOG_1_INTS_M
#    Modification time : Mon Mar 24 22:55:26 2014

@<TRIPOS>MOLECULE
3d90_NOG_1_INTS_M
   75     0     3     0     0
SMALL
NO_CHARGES


@<TRIPOS>ATOM
      1 CA         -6.1150   -9.5925   27.2550 C.3       1 GLC5        0.0000 
      2 CA         -4.8860   -8.5980   28.5720 C.3       3 GLL5        0.0000 
      3 CA         -7.3440  -10.5870   25.9380 C.3       2 GLP5        0.0000 
      4 CA         -5.1280  -10.7980   28.2285 C.3       1 GLC5        0.0000 
      5 CA         -5.3700  -12.9980   27.8850 C.3       2 GLP5        0.0000 
      6 CA         -5.1075   -8.1770   32.0685 C.3       1 GLC5        0.0000 
      7 CA         -4.9260   -8.9990   30.0690 C.3       3 GLL5        0.0000 
      8 CA         -5.2890   -7.3550   34.0680 C.3       2 GLP5        0.0000 
      9 CA         -3.3470   -7.4660   30.3875 C.3       1 GLC5        0.0000 
     10 CA         -1.7680   -5.9330   30.7060 C.3       2 GLP5        0.0000 
     11 CA         -2.1085  -12.6200   30.1115 C.3       1 GLC5        0.0000 
     12 CA         -2.7840  -10.6380   29.5590 C.3       3 GLL5        0.0000 
     13 CA         -1.4330  -14.6020   30.6640 C.3       2 GLP5        0.0000 
     14 CA         -4.0770  -11.8180   28.7220 C.3       1 GLC5        0.0000 
     15 CA         -3.4480  -11.4370   27.6880 C.3       1 GLC5        0.0000 
     16 CA         -2.4500   -9.7140   28.5190 C.3       3 GLL5        0.0000 
     17 CA         -4.4460  -13.1600   26.8570 C.3       2 GLP5        0.0000 
     18 CA         -0.7235   -9.1400   29.5595 C.3       1 GLC5        0.0000 
     19 CA         -1.0260   -9.9850   27.8390 C.3       3 GLL5        0.0000 
     20 CA         -0.4210   -8.2950   31.2800 C.3       2 GLP5        0.0000 
     21 CA          0.2830  -11.0800   28.9710 C.3       1 GLC5        0.0000 
     22 CA          1.5920  -12.1750   30.1030 C.3       2 GLP5        0.0000 
     23 CA          1.2410  -10.1525   25.8755 C.3       1 GLC5        0.0000 
     24 CA         -0.8420   -9.7060   26.3640 C.3       3 GLL5        0.0000 
     25 CA          3.3240  -10.5990   25.3870 C.3       2 GLP5        0.0000 
     26 CA         -2.5655   -7.2280   29.3350 C.3       1 GLC5        0.0000 
     27 CA         -3.3630   -8.5230   27.9640 C.3       3 GLL5        0.0000 
     28 CA          1.7430   -8.6410   23.4175 C.3       1 GLC5        0.0000 
     29 CA         -0.2280   -8.2240   23.3660 C.3       3 GLL5        0.0000 
     30 CA          3.7140   -9.0580   23.4690 C.3       2 GLP5        0.0000 
     31 CA          0.2310   -5.7470   21.8260 C.3       1 GLC5        0.0000 
     32 CA         -0.5750   -7.4420   22.0260 C.3       3 GLL5        0.0000 
     33 CA          1.0370   -4.0520   21.6260 C.3       2 GLP5        0.0000 
     34 CA         -0.8025   -5.5495   21.1565 C.3       1 GLC5        0.0000 
     35 CA         -2.1420   -6.9290   22.1320 C.3       3 GLL5        0.0000 
     36 CA          0.5370   -4.1700   20.1810 C.3       2 GLP5        0.0000 
     37 CA          0.2240   -5.4180   24.7430 C.3       1 GLC5        0.0000 
     38 CA         -1.6770   -5.4790   24.3900 C.3       3 GLL5        0.0000 
     39 CA          2.1250   -5.3570   25.0960 C.3       2 GLP5        0.0000 
     40 CA         -3.3520   -2.6370   23.1450 C.3       1 GLC5        0.0000 
     41 CA         -2.5540   -4.1300   24.2380 C.3       3 GLL5        0.0000 
     42 CA         -4.1500   -1.1440   22.0520 C.3       2 GLP5        0.0000 
     43 CA         -5.5970   -9.7075   22.3400 C.3       1 GLC5        0.0000 
     44 CA         -4.3420   -8.8920   21.1950 C.3       3 GLL5        0.0000 
     45 CA         -6.8520  -10.5230   23.4850 C.3       2 GLP5        0.0000 
     46 CA         -5.1125  -10.6695   20.5955 C.3       1 GLC5        0.0000 
     47 CA         -5.8830  -12.4470   19.9960 C.3       2 GLP5        0.0000 
     48 CA         -6.4890   -9.4663   29.7898 C.3       1 GLC5        0.0000 
     49 CA         -8.0720  -10.1340   30.2590 C.3       2 GLP5        0.0000 
     50 CA         -5.2495   -6.8018   29.7462 C.3       1 GLC5        0.0000 
     51 CA         -5.5930   -4.8050   30.1720 C.3       2 GLP5        0.0000 
     52 CA         -1.5190   -9.2355   30.1595 C.3       1 GLC5        0.0000 
     53 CA         -0.6045  -11.5302   25.9858 C.3       1 GLC5        0.0000 
     54 CA         -0.2750  -13.2150   24.8700 C.3       2 GLP5        0.0000 
     55 CA          0.3985   -7.9287   26.1363 C.3       1 GLC5        0.0000 
     56 CA          2.0520   -6.7820   26.1900 C.3       2 GLP5        0.0000 
     57 CA         -5.8143   -7.7547   24.8783 C.3       1 GLC5        0.0000 
     58 CA         -4.1750   -7.2030   25.8290 C.3       3 GLL5        0.0000 
     59 CA         -7.5610   -8.4340   24.6570 C.3       2 GLP5        0.0000 
     60 CA          0.5900   -7.4778   25.0023 C.3       1 GLC5        0.0000 
     61 CA         -1.5160   -8.1230   24.2630 C.3       3 GLL5        0.0000 
     62 CA         -0.5827   -9.4425   21.5780 C.3       1 GLC5        0.0000 
     63 CA         -0.7640  -11.0520   20.4600 C.3       2 GLP5        0.0000 
     64 CA         -1.1378   -7.6173   20.2430 C.3       1 GLC5        0.0000 
     65 CA         -0.9170   -8.0490   18.4070 C.3       2 GLP5        0.0000 
     66 CA         -0.7857   -3.8048   25.5705 C.3       1 GLC5        0.0000 
     67 CA          0.5440   -2.8050   26.8270 C.3       2 GLP5        0.0000 
     68 CA         -0.8687   -3.7302   23.4410 C.3       1 GLC5        0.0000 
     69 CA          0.3780   -2.6560   22.5680 C.3       2 GLP5        0.0000 
     70 CA         -5.2252   -8.2847   20.3980 C.3       1 GLC5        0.0000 
     71 CA         -3.2530   -7.8930   21.5730 C.3       3 GLL5        0.0000 
     72 CA         -6.6530   -8.1770   19.4120 C.3       2 GLP5        0.0000 
     73 CA         -2.2808   -9.7222   20.9220 C.3       1 GLC5        0.0000 
     74 CA         -2.9867   -8.4488   19.7070 C.3       1 GLC5        0.0000 
     75 CA         -2.1760   -8.5050   18.0300 C.3       2 GLP5        0.0000 
@<TRIPOS>BOND
@<TRIPOS>SUBSTRUCTURE
     1 GLC5        1 GROUP        1 X    GLC  0     ROOT GLC X 6
     2 GLP5        3 GROUP        1 Y    GLP  0     ROOT GLP Y 13
     3 GLL5        2 GROUP        1 Z    GLL  0     ROOT GLL Z 20
@<TRIPOS>SET

