#    Name: 3d90_NOG_1_ligand
#    Modification time : Mon Mar 24 22:55:26 2014

@<TRIPOS>MOLECULE
3d90_NOG_1_ligand
   50    53     1     0     0
SMALL
NO_CHARGES


@<TRIPOS>ATOM
      1 C1         -4.8860   -8.5980   28.5720 C.3       1 NOG1001     0.0000 
      2 C2         -4.9260   -8.9990   30.0690 C.3       1 NOG1001     0.0000 
      3 C3         -4.0160  -10.3760   30.2770 C.2       1 NOG1001     0.0000 
      4 C4         -2.7840  -10.6380   29.5590 C.2       1 NOG1001     0.0000 
      5 C5         -2.4500   -9.7140   28.5190 C.2       1 NOG1001     0.0000 
      6 C6         -1.0260   -9.9850   27.8390 C.3       1 NOG1001     0.0000 
      7 C7         -0.8420   -9.7060   26.3640 C.3       1 NOG1001     0.0000 
      8 C8         -1.6680   -8.4450   25.8010 C.3       1 NOG1001     0.0000 
      9 C9         -3.2140   -8.2700   26.4670 C.3       1 NOG1001     0.0000 
     10 C10        -3.3630   -8.5230   27.9640 C.3       1 NOG1001     0.0000 
     11 C11        -4.1750   -7.2030   25.8290 C.3       1 NOG1001     0.0000 
     12 C12        -3.9600   -6.9480   24.3700 C.3       1 NOG1001     0.0000 
     13 C13        -2.3660   -6.8230   23.7430 C.3       1 NOG1001     0.0000 
     14 C14        -1.5160   -8.1230   24.2630 C.3       1 NOG1001     0.0000 
     15 C15        -0.2280   -8.2240   23.3660 C.3       1 NOG1001     0.0000 
     16 C16        -0.5750   -7.4420   22.0260 C.3       1 NOG1001     0.0000 
     17 C17        -2.1420   -6.9290   22.1320 C.3       1 NOG1001     0.0000 
     18 C18        -1.6770   -5.4790   24.3900 C.3       1 NOG1001     0.0000 
     19 C19        -2.5540   -4.1300   24.2380 C.3       1 NOG1001     0.0000 
     20 C20        -3.2530   -7.8930   21.5730 C.1       1 NOG1001     0.0000 
     21 C21        -4.3420   -8.8920   21.1950 C.1       1 NOG1001     0.0000 
     22 O3         -4.2840  -11.2270   31.1220 O.2       1 NOG1001     0.0000 
     23 O17        -2.3750   -5.8520   21.4050 O.3       1 NOG1001     0.0000 
     24 H          -5.3258   -7.6160   28.4335 H         1 NOG1001     0.0000 
     25 H          -5.4254   -9.3243   27.9732 H         1 NOG1001     0.0000 
     26 H          -5.9159   -9.2425   30.3725 H         1 NOG1001     0.0000 
     27 H          -4.4811   -8.2483   30.6771 H         1 NOG1001     0.0000 
     28 H          -2.2157  -11.4105   29.7814 H         1 NOG1001     0.0000 
     29 H          -0.7719  -11.0561   28.0560 H         1 NOG1001     0.0000 
     30 H          -0.2767   -9.3966   28.4317 H         1 NOG1001     0.0000 
     31 H          -1.1502  -10.5776   25.7663 H         1 NOG1001     0.0000 
     32 H           0.2184   -9.5151   26.1380 H         1 NOG1001     0.0000 
     33 H          -1.1078   -7.5265   26.3305 H         1 NOG1001     0.0000 
     34 H          -3.7142   -9.3177   26.0023 H         1 NOG1001     0.0000 
     35 H          -2.9228   -7.5917   28.4973 H         1 NOG1001     0.0000 
     36 H          -4.0520   -6.2652   26.4030 H         1 NOG1001     0.0000 
     37 H          -5.2116   -7.5456   26.0083 H         1 NOG1001     0.0000 
     38 H          -4.4443   -5.9964   24.0389 H         1 NOG1001     0.0000 
     39 H          -4.4264   -7.7423   23.7364 H         1 NOG1001     0.0000 
     40 H          -2.2326   -8.9804   23.7348 H         1 NOG1001     0.0000 
     41 H          -0.0402   -9.2361   23.1311 H         1 NOG1001     0.0000 
     42 H           0.5758   -7.7365   23.8467 H         1 NOG1001     0.0000 
     43 H          -0.5117   -8.0971   21.2001 H         1 NOG1001     0.0000 
     44 H           0.0341   -6.5833   21.9421 H         1 NOG1001     0.0000 
     45 H          -0.7233   -5.3297   23.8963 H         1 NOG1001     0.0000 
     46 H          -1.5145   -5.6696   25.4450 H         1 NOG1001     0.0000 
     47 H          -2.0951   -3.3407   24.6460 H         1 NOG1001     0.0000 
     48 H          -2.7265   -3.9053   23.2790 H         1 NOG1001     0.0000 
     49 H          -3.4450   -4.2140   24.6842 H         1 NOG1001     0.0000 
     50 H          -3.3324   -5.6232   21.5811 H         1 NOG1001     0.0000 
@<TRIPOS>BOND
     1    2    1 1    
     2   10    1 1    
     3   24    1 1    
     4   25    1 1    
     5    3    2 1    
     6   26    2 1    
     7   27    2 1    
     8    4    3 1    
     9   22    3 2    
    10    5    4 2    
    11   28    4 1    
    12    6    5 1    
    13   10    5 1    
    14    7    6 1    
    15   29    6 1    
    16   30    6 1    
    17    8    7 1    
    18   31    7 1    
    19   32    7 1    
    20    9    8 1    
    21   14    8 1    
    22   33    8 1    
    23   10    9 1    
    24   11    9 1    
    25   34    9 1    
    26   35   10 1    
    27   12   11 1    
    28   36   11 1    
    29   37   11 1    
    30   13   12 1    
    31   38   12 1    
    32   39   12 1    
    33   14   13 1    
    34   17   13 1    
    35   18   13 1    
    36   15   14 1    
    37   40   14 1    
    38   16   15 1    
    39   41   15 1    
    40   42   15 1    
    41   17   16 1    
    42   43   16 1    
    43   44   16 1    
    44   20   17 1    
    45   23   17 1    
    46   19   18 1    
    47   45   18 1    
    48   46   18 1    
    49   47   19 1    
    50   48   19 1    
    51   49   19 1    
    52   21   20 3    
    53   50   23 1    
@<TRIPOS>SUBSTRUCTURE
     1 NOG1001     1 GROUP   
@<TRIPOS>SET

