#    Name: 3nfb_OAE_5_INTS_M
#    Modification time : Tue Mar 25 01:31:40 2014

@<TRIPOS>MOLECULE
3nfb_OAE_5_INTS_M
   67     0    15     0     0
SMALL
NO_CHARGES


@<TRIPOS>ATOM
      1 CA         72.9265   -1.9420   15.2535 C.3       5 GLC5        0.0000 
      2 CA         72.1740   -1.3460   13.2700 C.3      15 GLL5        0.0000 
      3 CA         73.6790   -2.5380   17.2370 C.3      10 GLP5        0.0000 
      4 CA         72.5985    0.4350   14.0865 C.3       5 GLC5        0.0000 
      5 CA         73.0230    2.2160   14.9030 C.3      10 GLP5        0.0000 
      6 O          66.7930    1.2435   14.8255 O.2       1 ALC1        0.0000 
      7 O          67.9940    1.9090   14.4830 O.2      11 ALL1        0.0000 
      8 O          65.5920    0.5780   15.1680 O.2       6 ALP1        0.0000 
      9 CA         71.4555    0.8000   14.6560 C.3       5 GLC5        0.0000 
     10 CA         69.8880   -0.6160   14.4090 C.3      15 GLL5        0.0000 
     11 OD1        67.5805    5.5645   17.8995 O.co2     3 ASC3        0.0000 
     12 OD1        67.3630    4.6470   16.9170 O.co2    13 ASL3        0.0000 
     13 OD1        67.7980    6.4820   18.8820 O.co2     8 ASP3        0.0000 
     14 OD1        68.3615    5.7715   17.1625 O.co2     3 ASC3        0.0000 
     15 OD1        69.3600    6.8960   17.4080 O.co2     8 ASP3        0.0000 
     16 O          67.5805    5.5645   17.8995 O.2       1 ALC1        0.0000 
     17 O          67.3630    4.6470   16.9170 O.2      11 ALL1        0.0000 
     18 O          67.7980    6.4820   18.8820 O.2       6 ALP1        0.0000 
     19 O          68.3615    5.7715   17.1625 O.2       1 ALC1        0.0000 
     20 O          69.3600    6.8960   17.4080 O.2       6 ALP1        0.0000 
     21 O          66.3175    5.5820   16.6965 O.2       1 ALC1        0.0000 
     22 O          65.2720    6.5170   16.4760 O.2       6 ALP1        0.0000 
     23 N          69.7280    5.2005   14.2820 N.am      2 SEC2        0.0000 
     24 N          68.8750    4.0320   14.7530 N.am     12 SEL2        0.0000 
     25 N          70.5810    6.3690   13.8110 N.am      7 SEP2        0.0000 
     26 CA         66.4835    4.0825   18.2870 C.3       5 GLC5        0.0000 
     27 CA         67.5390    3.2410   16.5540 C.3      15 GLL5        0.0000 
     28 CA         65.4280    4.9240   20.0200 C.3      10 GLP5        0.0000 
     29 CA         66.5905    4.3335   14.9290 C.3       5 GLC5        0.0000 
     30 CA         65.6420    5.4260   13.3040 C.3      10 GLP5        0.0000 
     31 NZ         66.1530    3.5020   11.7370 N.4       4 LYC4        0.0000 
     32 NZ         67.3230    2.8770   12.1540 N.4      14 LYL4        0.0000 
     33 NZ         64.9830    4.1270   11.3200 N.4       9 LYP4        0.0000 
     34 N          68.2305    4.0800   11.3905 N.am      2 SEC2        0.0000 
     35 N          67.3230    2.8770   12.1540 N.am     12 SEL2        0.0000 
     36 N          69.1380    5.2830   10.6270 N.am      7 SEP2        0.0000 
     37 N          66.1530    3.5020   11.7370 N.am      2 SEC2        0.0000 
     38 N          64.9830    4.1270   11.3200 N.am      7 SEP2        0.0000 
     39 N          66.6045    3.5680   13.1090 N.am      2 SEC2        0.0000 
     40 N          65.8860    4.2590   14.0640 N.am      7 SEP2        0.0000 
     41 CA         70.7795    3.6905   16.1260 C.3       5 GLC5        0.0000 
     42 CA         69.6480    3.0070   17.9420 C.3      15 GLL5        0.0000 
     43 CA         71.9110    4.3740   14.3100 C.3      10 GLP5        0.0000 
     44 CA         69.7910    2.6450   20.5540 C.3       5 GLC5        0.0000 
     45 CA         70.4870    2.2730   18.7760 C.3      15 GLL5        0.0000 
     46 CA         69.0950    3.0170   22.3320 C.3      10 GLP5        0.0000 
     47 CA         65.9370    0.8035   18.3275 C.3       5 GLC5        0.0000 
     48 CA         68.0940    1.1530   17.8850 C.3      15 GLL5        0.0000 
     49 CA         63.7800    0.4540   18.7700 C.3      10 GLP5        0.0000 
     50 CA         70.3945    2.9380   13.8570 C.3       5 GLC5        0.0000 
     51 CA         68.8780    1.5020   13.4040 C.3      15 GLL5        0.0000 
     52 CA         71.1360   -3.3635   15.9135 C.3       5 GLC5        0.0000 
     53 CA         70.7190   -3.1140   14.1880 C.3      15 GLL5        0.0000 
     54 CA         71.5530   -3.6130   17.6390 C.3      10 GLP5        0.0000 
     55 CA         69.1990   -3.6350   15.0095 C.3       5 GLC5        0.0000 
     56 CA         67.6790   -4.1560   15.8310 C.3      10 GLP5        0.0000 
     57 CA         71.3220   -1.8300   15.7767 C.3       5 GLC5        0.0000 
     58 CA         70.7260   -1.7680   13.5060 C.3      15 GLL5        0.0000 
     59 CA         72.3370   -2.4680   17.5960 C.3      10 GLP5        0.0000 
     60 CA         67.7572   -1.2528   14.6478 C.3       5 GLC5        0.0000 
     61 CA         66.1270   -2.2250   15.4360 C.3      10 GLP5        0.0000 
     62 CA         71.1052    4.2945   18.7710 C.3       5 GLC5        0.0000 
     63 CA         72.1430    5.9490   19.1830 C.3      10 GLP5        0.0000 
     64 CA         72.0397    2.3167   19.8115 C.3       5 GLC5        0.0000 
     65 CA         73.7710    3.0060   20.6570 C.3      10 GLP5        0.0000 
     66 CA         68.4540    1.7941   20.1215 C.3       5 GLC5        0.0000 
     67 CA         67.8570    2.2680   21.8710 C.3      10 GLP5        0.0000 
@<TRIPOS>BOND
@<TRIPOS>SUBSTRUCTURE
     1 ALC1        6 GROUP        1 X    ALC  0     ROOT ALC X 1
     2 SEC2       23 GROUP        1 X    SEC  0     **** SEC X 2
     3 ASC3       11 GROUP        1 X    ASC  0     **** ASC X 3
     4 LYC4       31 GROUP        1 X    LYC  0     **** LYC X 4
     5 GLC5        1 GROUP        1 X    GLC  0     **** GLC X 6
     6 ALP1        8 GROUP        1 Y    ALP  0     ROOT ALP Y 8
     7 SEP2       25 GROUP        1 Y    SEP  0     **** SEP Y 9
     8 ASP3       13 GROUP        1 Y    ASP  0     **** ASP Y 10
     9 LYP4       33 GROUP        1 Y    LYP  0     **** LYP Y 11
    10 GLP5        3 GROUP        1 Y    GLP  0     **** GLP Y 13
    11 ALL1        7 GROUP        1 Z    ALL  0     ROOT ALL Z 15
    12 SEL2       24 GROUP        1 Z    SEL  0     **** SEL Z 16
    13 ASL3       12 GROUP        1 Z    ASL  0     **** ASL Z 17
    14 LYL4       32 GROUP        1 Z    LYL  0     **** LYL Z 18
    15 GLL5        2 GROUP        1 Z    GLL  0     **** GLL Z 20
@<TRIPOS>SET

