#    Name: 3nfb_OAE_5_ligand
#    Modification time : Tue Mar 25 01:31:40 2014

@<TRIPOS>MOLECULE
3nfb_OAE_5_ligand
   44    45     1     0     0
SMALL
NO_CHARGES


@<TRIPOS>ATOM
      1 O          69.1800    2.3130   11.1570 O.co2     1 OAE374      0.0000 
      2 C1         72.1740   -1.3460   13.2700 C.3       1 OAE374      0.0000 
      3 N1         67.9940    1.9090   14.4830 N.am      1 OAE374      0.0000 
      4 O1         71.2210   -1.4700   10.2970 O.co2     1 OAE374      0.0000 
      5 S1         69.8880   -0.6160   14.4090 S.3       1 OAE374      0.0000 
      6 C2         70.7440   -2.2850   11.1290 C.2       1 OAE374      0.0000 
      7 N2         67.3630    4.6470   16.9170 N.4       1 OAE374      0.0000 
      8 O2         70.8290   -3.5230   10.8910 O.co2     1 OAE374      0.0000 
      9 C3         68.1400    3.1620   15.1670 C.2       1 OAE374      0.0000 
     10 N3         69.4380   -0.4110   11.8760 N.4       1 OAE374      0.0000 
     11 O3         68.8750    4.0320   14.7530 O.2       1 OAE374      0.0000 
     12 C4         67.5390    3.2410   16.5540 C.3       1 OAE374      0.0000 
     13 O4         67.3230    2.8770   12.1540 O.co2     1 OAE374      0.0000 
     14 C5         68.4460    2.4480   17.5120 C.ar      1 OAE374      0.0000 
     15 C6         70.7260   -1.7680   13.5060 C.3       1 OAE374      0.0000 
     16 C7         69.6480    3.0070   17.9420 C.ar      1 OAE374      0.0000 
     17 C8         70.4870    2.2730   18.7760 C.ar      1 OAE374      0.0000 
     18 C9         70.1300    0.9820   19.1560 C.ar      1 OAE374      0.0000 
     19 C10        68.9330    0.4180   18.7200 C.ar      1 OAE374      0.0000 
     20 C11        68.0940    1.1530   17.8850 C.ar      1 OAE374      0.0000 
     21 C12        69.9640   -1.8610   12.1460 C.3       1 OAE374      0.0000 
     22 C13        68.8870    0.0550   13.3100 C.3       1 OAE374      0.0000 
     23 C14        68.8780    1.5020   13.4040 C.3       1 OAE374      0.0000 
     24 C15        68.3820    2.1650   12.1310 C.2       1 OAE374      0.0000 
     25 C16        70.7190   -3.1140   14.1880 C.3       1 OAE374      0.0000 
     26 H          67.2378    1.2699   14.7613 H         1 OAE374      0.0000 
     27 H          66.5749    2.7349   16.5150 H         1 OAE374      0.0000 
     28 H          69.9118    3.9515   17.6461 H         1 OAE374      0.0000 
     29 H          71.3671    2.6827   19.1101 H         1 OAE374      0.0000 
     30 H          70.7585    0.4367   19.7671 H         1 OAE374      0.0000 
     31 H          68.6721   -0.5280   19.0105 H         1 OAE374      0.0000 
     32 H          67.2173    0.7403   17.5452 H         1 OAE374      0.0000 
     33 H          69.0828   -2.4619   12.3311 H         1 OAE374      0.0000 
     34 H          67.9402   -0.3956   13.4435 H         1 OAE374      0.0000 
     35 H          69.8763    1.8756   13.6051 H         1 OAE374      0.0000 
     36 H          72.6698   -1.2231   14.1297 H         1 OAE374      0.0000 
     37 H          72.6768   -2.0260   12.7363 H         1 OAE374      0.0000 
     38 H          72.2322   -0.4809   12.7717 H         1 OAE374      0.0000 
     39 H          66.4673    4.9933   16.6380 H         1 OAE374      0.0000 
     40 H          67.4371    4.7878   17.9043 H         1 OAE374      0.0000 
     41 H          68.0506    5.2309   16.4853 H         1 OAE374      0.0000 
     42 H          71.1705   -3.8134   13.6340 H         1 OAE374      0.0000 
     43 H          71.1924   -3.0867   15.0684 H         1 OAE374      0.0000 
     44 H          69.7889   -3.4357   14.3652 H         1 OAE374      0.0000 
@<TRIPOS>BOND
     1   24    1 ar   
     2   15    2 1    
     3   36    2 1    
     4   37    2 1    
     5   38    2 1    
     6    9    3 am   
     7   23    3 1    
     8   26    3 1    
     9    6    4 ar   
    10   15    5 1    
    11   22    5 1    
    12    8    6 ar   
    13   21    6 1    
    14   12    7 1    
    15   39    7 1    
    16   40    7 1    
    17   41    7 1    
    18   11    9 2    
    19   12    9 1    
    20   21   10 1    
    21   22   10 1    
    22   14   12 1    
    23   27   12 1    
    24   24   13 ar   
    25   16   14 ar   
    26   20   14 ar   
    27   21   15 1    
    28   25   15 1    
    29   17   16 ar   
    30   28   16 1    
    31   18   17 ar   
    32   29   17 1    
    33   19   18 ar   
    34   30   18 1    
    35   20   19 ar   
    36   31   19 1    
    37   32   20 1    
    38   33   21 1    
    39   23   22 1    
    40   34   22 1    
    41   24   23 1    
    42   35   23 1    
    43   42   25 1    
    44   43   25 1    
    45   44   25 1    
@<TRIPOS>SUBSTRUCTURE
     1 OAE374      1 GROUP   
@<TRIPOS>SET

