#    Name: 4erf_0R3_3_INTS_M
#    Modification time : Mon Mar 24 18:35:16 2014

@<TRIPOS>MOLECULE
4erf_0R3_3_INTS_M
   73     0     9     0     0
SMALL
NO_CHARGES


@<TRIPOS>ATOM
      1 CA        -18.9505   -9.7675  -31.6650 C.3       3 GLC5        0.0000 
      2 CA        -20.6630   -8.7750  -32.5300 C.3       9 GLL5        0.0000 
      3 CA        -17.2380  -10.7600  -30.8000 C.3       6 GLP5        0.0000 
      4 CA        -19.3500   -7.1110  -29.9435 C.3       3 GLC5        0.0000 
      5 CA        -18.7940   -7.1490  -31.6050 C.3       9 GLL5        0.0000 
      6 CA        -19.9060   -7.0730  -28.2820 C.3       6 GLP5        0.0000 
      7 CA        -17.1880   -7.9780  -31.2080 C.3       3 GLC5        0.0000 
      8 CA        -15.5820   -8.8070  -30.8110 C.3       6 GLP5        0.0000 
      9 CA        -18.7890   -5.3210  -31.1940 C.3       3 GLC5        0.0000 
     10 CA        -18.7840   -3.4930  -30.7830 C.3       6 GLP5        0.0000 
     11 CA        -22.1795  -13.8350  -31.5250 C.3       3 GLC5        0.0000 
     12 CA        -23.7190  -12.8820  -31.7450 C.3       9 GLL5        0.0000 
     13 CA        -20.6400  -14.7880  -31.3050 C.3       6 GLP5        0.0000 
     14 NZ        -25.0455  -11.6255  -28.7970 N.4       2 LYC4        0.0000 
     15 NZ        -24.6180  -11.2500  -30.2380 N.4       8 LYL4        0.0000 
     16 NZ        -25.4730  -12.0010  -27.3560 N.4       5 LYP4        0.0000 
     17 N         -25.0455  -11.6255  -28.7970 N.am      1 SEC2        0.0000 
     18 N         -24.6180  -11.2500  -30.2380 N.am      7 SEL2        0.0000 
     19 N         -25.4730  -12.0010  -27.3560 N.am      4 SEP2        0.0000 
     20 N         -23.4305  -10.3785  -29.9855 N.am      1 SEC2        0.0000 
     21 N         -22.2430   -9.5070  -29.7330 N.am      4 SEP2        0.0000 
     22 NZ        -25.3105  -12.6805  -28.5625 N.4       2 LYC4        0.0000 
     23 NZ        -25.1480  -13.3600  -29.7690 N.4       8 LYL4        0.0000 
     24 N         -25.3105  -12.6805  -28.5625 N.am      1 SEC2        0.0000 
     25 N         -25.1480  -13.3600  -29.7690 N.am      7 SEL2        0.0000 
     26 CA        -19.8875  -13.4670  -38.2445 C.3       3 GLC5        0.0000 
     27 CA        -20.3970  -14.6360  -36.6000 C.3       9 GLL5        0.0000 
     28 CA        -19.3780  -12.2980  -39.8890 C.3       6 GLP5        0.0000 
     29 CA        -18.9515  -15.8655  -37.2310 C.3       3 GLC5        0.0000 
     30 CA        -17.5060  -17.0950  -37.8620 C.3       6 GLP5        0.0000 
     31 CA        -21.3535  -12.9795  -39.2315 C.3       3 GLC5        0.0000 
     32 CA        -23.3290  -13.6610  -38.5740 C.3       9 GLL5        0.0000 
     33 CA        -22.5165  -15.2180  -39.4100 C.3       3 GLC5        0.0000 
     34 CA        -21.7040  -16.7750  -40.2460 C.3       6 GLP5        0.0000 
     35 CA        -19.7090  -13.8205  -33.2220 C.3       3 GLC5        0.0000 
     36 CA        -19.5930  -11.9920  -34.1830 C.3       9 GLL5        0.0000 
     37 CA        -19.8250  -15.6490  -32.2610 C.3       6 GLP5        0.0000 
     38 CA        -15.8135  -10.4255  -37.4790 C.3       3 GLC5        0.0000 
     39 CA        -15.9610  -10.9560  -35.5890 C.3       9 GLL5        0.0000 
     40 CA        -15.6660   -9.8950  -39.3690 C.3       6 GLP5        0.0000 
     41 CA        -16.1565  -12.6020  -36.3665 C.3       3 GLC5        0.0000 
     42 CA        -16.3520  -14.2480  -37.1440 C.3       6 GLP5        0.0000 
     43 CA        -14.0475  -11.0410  -34.8815 C.3       3 GLC5        0.0000 
     44 CA        -12.1340  -11.1260  -34.1740 C.3       6 GLP5        0.0000 
     45 CA        -15.1180  -12.5450  -34.4740 C.3       3 GLC5        0.0000 
     46 CA        -14.2750  -14.1340  -33.3590 C.3       6 GLP5        0.0000 
     47 CA        -17.0735  -10.1030  -37.7745 C.3       3 GLC5        0.0000 
     48 CA        -18.4810  -10.3110  -36.1800 C.3       9 GLL5        0.0000 
     49 CA        -21.1225   -9.0653  -31.0490 C.3       3 GLC5        0.0000 
     50 CA        -21.8330   -9.0260  -33.2820 C.3       9 GLL5        0.0000 
     51 CA        -20.9970   -9.2300  -29.1920 C.3       6 GLP5        0.0000 
     52 CA        -18.8530   -6.7565  -33.8407 C.3       3 GLC5        0.0000 
     53 CA        -20.2080   -7.4610  -32.4320 C.3       9 GLL5        0.0000 
     54 CA        -18.2050   -6.2080  -35.6630 C.3       6 GLP5        0.0000 
     55 CA        -20.7582   -7.4295  -30.8002 C.3       3 GLC5        0.0000 
     56 CA        -20.9870   -7.9320  -28.8710 C.3       6 GLP5        0.0000 
     57 CA        -20.6460   -5.4213  -34.6250 C.3       3 GLC5        0.0000 
     58 CA        -20.8510   -6.3930  -33.0270 C.3       9 GLL5        0.0000 
     59 CA        -19.8540   -4.3250  -35.8480 C.3       6 GLP5        0.0000 
     60 CA        -21.3830  -16.2407  -37.5680 C.3       3 GLC5        0.0000 
     61 CA        -21.7910  -14.4830  -36.0060 C.3       9 GLL5        0.0000 
     62 CA        -21.6720  -17.9220  -38.8330 C.3       6 GLP5        0.0000 
     63 CA        -21.2665  -16.4337  -35.7330 C.3       3 GLC5        0.0000 
     64 CA        -21.4390  -18.3080  -35.1630 C.3       6 GLP5        0.0000 
     65 CA        -20.4595  -15.1042  -34.2820 C.3       3 GLC5        0.0000 
     66 CA        -18.0658  -11.3655  -32.5405 C.3       3 GLC5        0.0000 
     67 CA        -17.1405  -12.8870  -36.0097 C.3       3 GLC5        0.0000 
     68 CA        -18.1940  -11.9500  -34.3790 C.3       9 GLL5        0.0000 
     69 CA        -16.1617   -9.8590  -33.9132 C.3       3 GLC5        0.0000 
     70 CA        -17.6640  -11.1020  -35.3720 C.3       9 GLL5        0.0000 
     71 CA        -15.5110   -8.6890  -32.3460 C.3       6 GLP5        0.0000 
     72 CA        -18.6895   -8.2720  -35.8722 C.3       3 GLC5        0.0000 
     73 CA        -19.2760  -11.3170  -37.9853 C.3       3 GLC5        0.0000 
@<TRIPOS>BOND
@<TRIPOS>SUBSTRUCTURE
     1 SEC2       17 GROUP        1 X    SEC  0     ROOT SEC X 2
     2 LYC4       14 GROUP        1 X    LYC  0     **** LYC X 4
     3 GLC5        1 GROUP        1 X    GLC  0     **** GLC X 6
     4 SEP2       19 GROUP        1 Y    SEP  0     ROOT SEP Y 9
     5 LYP4       16 GROUP        1 Y    LYP  0     **** LYP Y 11
     6 GLP5        3 GROUP        1 Y    GLP  0     **** GLP Y 13
     7 SEL2       18 GROUP        1 Z    SEL  0     ROOT SEL Z 16
     8 LYL4       15 GROUP        1 Z    LYL  0     **** LYL Z 18
     9 GLL5        2 GROUP        1 Z    GLL  0     **** GLL Z 20
@<TRIPOS>SET

