#    Name: 4erf_0R3_3_ligand
#    Modification time : Mon Mar 24 18:35:16 2014

@<TRIPOS>MOLECULE
4erf_0R3_3_ligand
   60    62     1     0     0
SMALL
NO_CHARGES


@<TRIPOS>ATOM
      1 C17       -20.6630   -8.7750  -32.5300 C.ar      1 0R3201      0.0000 
      2 C16       -20.2080   -7.4610  -32.4320 C.ar      1 0R3201      0.0000 
      3 CL2       -18.7940   -7.1490  -31.6050 Cl        1 0R3201      0.0000 
      4 C15       -20.8510   -6.3930  -33.0270 C.ar      1 0R3201      0.0000 
      5 C14       -22.0250   -6.6420  -33.7770 C.ar      1 0R3201      0.0000 
      6 C13       -22.5100   -7.9510  -33.9030 C.ar      1 0R3201      0.0000 
      7 C6        -21.8330   -9.0260  -33.2820 C.ar      1 0R3201      0.0000 
      8 C2        -22.3410  -10.4510  -33.4520 C.3       1 0R3201      0.0000 
      9 C3        -23.7890  -10.6510  -33.0680 C.3       1 0R3201      0.0000 
     10 C4        -24.1700  -12.1460  -33.0040 C.3       1 0R3201      0.0000 
     11 C23       -23.7190  -12.8820  -31.7450 C.3       1 0R3201      0.0000 
     12 C25       -24.5340  -12.3950  -30.5170 C.2       1 0R3201      0.0000 
     13 O3        -24.6180  -11.2500  -30.2380 O.co2     1 0R3201      0.0000 
     14 O2        -25.1480  -13.3600  -29.7690 O.co2     1 0R3201      0.0000 
     15 C24       -25.7120  -12.2230  -33.2060 C.3       1 0R3201      0.0000 
     16 C5        -23.5730  -12.9690  -34.1540 C.2       1 0R3201      0.0000 
     17 O1        -23.9200  -14.1410  -34.2730 O.2       1 0R3201      0.0000 
     18 N1        -22.6750  -12.3980  -35.0140 N.am      1 0R3201      0.0000 
     19 C18       -22.4270  -13.0820  -36.2900 C.3       1 0R3201      0.0000 
     20 C19       -21.7910  -14.4830  -36.0060 C.3       1 0R3201      0.0000 
     21 C22       -20.3970  -14.6360  -36.6000 C.3       1 0R3201      0.0000 
     22 C20       -23.6640  -13.0730  -37.2030 C.3       1 0R3201      0.0000 
     23 O4        -24.1940  -11.7910  -37.4070 O.3       1 0R3201      0.0000 
     24 C21       -23.3290  -13.6610  -38.5740 C.3       1 0R3201      0.0000 
     25 C1        -21.9360  -11.1470  -34.7490 C.3       1 0R3201      0.0000 
     26 C7        -20.4420  -11.1930  -34.9780 C.ar      1 0R3201      0.0000 
     27 C8        -19.5930  -11.9920  -34.1830 C.ar      1 0R3201      0.0000 
     28 C9        -18.1940  -11.9500  -34.3790 C.ar      1 0R3201      0.0000 
     29 C10       -17.6640  -11.1020  -35.3720 C.ar      1 0R3201      0.0000 
     30 CL1       -15.9610  -10.9560  -35.5890 Cl        1 0R3201      0.0000 
     31 C11       -18.4810  -10.3110  -36.1800 C.ar      1 0R3201      0.0000 
     32 C12       -19.8670  -10.3610  -35.9830 C.ar      1 0R3201      0.0000 
     33 H         -20.1738   -9.5369  -32.0770 H         1 0R3201      0.0000 
     34 H         -20.5012   -5.4435  -32.9374 H         1 0R3201      0.0000 
     35 H         -22.5143   -5.8641  -34.2240 H         1 0R3201      0.0000 
     36 H         -23.3589   -8.1356  -34.4466 H         1 0R3201      0.0000 
     37 H         -21.7518  -11.0546  -32.6239 H         1 0R3201      0.0000 
     38 H         -24.4374  -10.1588  -33.7988 H         1 0R3201      0.0000 
     39 H         -23.9777  -10.2027  -32.0881 H         1 0R3201      0.0000 
     40 H         -22.6682  -12.6878  -31.5641 H         1 0R3201      0.0000 
     41 H         -23.8774  -13.9472  -31.8671 H         1 0R3201      0.0000 
     42 H         -21.6257  -12.4965  -36.8235 H         1 0R3201      0.0000 
     43 H         -22.4554  -15.2483  -36.4204 H         1 0R3201      0.0000 
     44 H         -21.7479  -14.6231  -34.9209 H         1 0R3201      0.0000 
     45 H         -24.4102  -13.7394  -36.7546 H         1 0R3201      0.0000 
     46 H         -22.3200  -10.3963  -35.5769 H         1 0R3201      0.0000 
     47 H         -19.9888  -12.6014  -33.4652 H         1 0R3201      0.0000 
     48 H         -17.5795  -12.5248  -33.8101 H         1 0R3201      0.0000 
     49 H         -18.0823   -9.7112  -36.8960 H         1 0R3201      0.0000 
     50 H         -20.4916   -9.7900  -36.5697 H         1 0R3201      0.0000 
     51 H         -25.9910  -11.8381  -34.0858 H         1 0R3201      0.0000 
     52 H         -26.0433  -13.1662  -33.1804 H         1 0R3201      0.0000 
     53 H         -26.2051  -11.7198  -32.4964 H         1 0R3201      0.0000 
     54 H         -19.7595  -13.9599  -36.2304 H         1 0R3201      0.0000 
     55 H         -20.0096  -15.5383  -36.4107 H         1 0R3201      0.0000 
     56 H         -20.4020  -14.5217  -37.5934 H         1 0R3201      0.0000 
     57 H         -22.6105  -13.1408  -39.0357 H         1 0R3201      0.0000 
     58 H         -23.0084  -14.6057  -38.5047 H         1 0R3201      0.0000 
     59 H         -24.1239  -13.6650  -39.1807 H         1 0R3201      0.0000 
     60 H         -23.4301  -11.1664  -37.2447 H         1 0R3201      0.0000 
@<TRIPOS>BOND
     1    2    1 ar   
     2    7    1 ar   
     3   33    1 1    
     4    3    2 1    
     5    4    2 ar   
     6    5    4 ar   
     7   34    4 1    
     8    6    5 ar   
     9   35    5 1    
    10    7    6 ar   
    11   36    6 1    
    12    8    7 1    
    13    9    8 1    
    14   25    8 1    
    15   37    8 1    
    16   10    9 1    
    17   38    9 1    
    18   39    9 1    
    19   11   10 1    
    20   15   10 1    
    21   16   10 1    
    22   12   11 1    
    23   40   11 1    
    24   41   11 1    
    25   13   12 ar   
    26   14   12 ar   
    27   51   15 1    
    28   52   15 1    
    29   53   15 1    
    30   17   16 2    
    31   18   16 am   
    32   19   18 1    
    33   25   18 1    
    34   20   19 1    
    35   22   19 1    
    36   42   19 1    
    37   21   20 1    
    38   43   20 1    
    39   44   20 1    
    40   54   21 1    
    41   55   21 1    
    42   56   21 1    
    43   23   22 1    
    44   24   22 1    
    45   45   22 1    
    46   60   23 1    
    47   57   24 1    
    48   58   24 1    
    49   59   24 1    
    50   26   25 1    
    51   46   25 1    
    52   27   26 ar   
    53   32   26 ar   
    54   28   27 ar   
    55   47   27 1    
    56   29   28 ar   
    57   48   28 1    
    58   30   29 1    
    59   31   29 ar   
    60   32   31 ar   
    61   49   31 1    
    62   50   32 1    
@<TRIPOS>SUBSTRUCTURE
     1 0R3201      1 GROUP   
@<TRIPOS>SET

