#    Name: 2gjl_FMN_1_INTS_M
#    Modification time : Tue Mar 25 14:36:22 2014

@<TRIPOS>MOLECULE
2gjl_FMN_1_INTS_M
   69     0     9     0     0
SMALL
NO_CHARGES


@<TRIPOS>ATOM
      1 O          30.5335   37.3545   20.7670 O.2       1 ALC1        0.0000 
      2 O          30.7960   37.0600   22.0710 O.2       7 ALL1        0.0000 
      3 O          30.2710   37.6490   19.4630 O.2       4 ALP1        0.0000 
      4 N          34.1505   35.5530   21.8595 N.am      2 SEC2        0.0000 
      5 N          33.0240   36.8090   21.5400 N.am      8 SEL2        0.0000 
      6 N          35.2770   34.2970   22.1790 N.am      5 SEP2        0.0000 
      7 N          34.3810   34.9485   23.1700 N.am      2 SEC2        0.0000 
      8 N          33.4850   35.6000   24.1610 N.am      8 SEL2        0.0000 
      9 CA         37.9520   32.1340   26.1590 C.3       3 GLC5        0.0000 
     10 CA         36.7790   33.4210   27.3010 C.3       9 GLL5        0.0000 
     11 CA         39.1250   30.8470   25.0170 C.3       6 GLP5        0.0000 
     12 CA         37.2040   31.4860   27.8980 C.3       3 GLC5        0.0000 
     13 CA         37.6290   29.5510   28.4950 C.3       6 GLP5        0.0000 
     14 CA         38.6285   33.6600   27.3205 C.3       3 GLC5        0.0000 
     15 CA         40.4780   33.8990   27.3400 C.3       6 GLP5        0.0000 
     16 CA         33.8070   31.4755   30.7005 C.3       3 GLC5        0.0000 
     17 CA         34.3250   33.0680   29.3770 C.3       9 GLL5        0.0000 
     18 CA         33.2890   29.8830   32.0240 C.3       6 GLP5        0.0000 
     19 CA         35.7000   31.8990   30.0050 C.3       3 GLC5        0.0000 
     20 CA         37.0750   30.7300   30.6330 C.3       6 GLP5        0.0000 
     21 CA         34.9530   33.9695   31.2755 C.3       3 GLC5        0.0000 
     22 CA         35.5810   34.8710   33.1740 C.3       6 GLP5        0.0000 
     23 N          27.7865   34.0320   24.9485 N.am      2 SEC2        0.0000 
     24 N          29.0810   33.5000   25.3620 N.am      8 SEL2        0.0000 
     25 N          26.4920   34.5640   24.5350 N.am      5 SEP2        0.0000 
     26 O          30.1635   33.2390   24.6055 O.2       1 ALC1        0.0000 
     27 O          29.0810   33.5000   25.3620 O.2       7 ALL1        0.0000 
     28 O          31.2460   32.9780   23.8490 O.2       4 ALP1        0.0000 
     29 N          26.9065   34.5110   25.9285 N.am      2 SEC2        0.0000 
     30 N          27.3210   34.4580   27.3220 N.am      8 SEL2        0.0000 
     31 O          27.5890   35.7775   27.5800 O.2       1 ALC1        0.0000 
     32 O          27.3210   34.4580   27.3220 O.2       7 ALL1        0.0000 
     33 O          27.8570   37.0970   27.8380 O.2       4 ALP1        0.0000 
     34 CA         30.5195   34.6650   30.2505 C.3       3 GLC5        0.0000 
     35 CA         28.8680   33.8340   29.1490 C.3       9 GLL5        0.0000 
     36 CA         32.1710   35.4960   31.3520 C.3       6 GLP5        0.0000 
     37 CA         29.9560   31.9215   29.0435 C.3       3 GLC5        0.0000 
     38 CA         31.0440   30.0090   28.9380 C.3       6 GLP5        0.0000 
     39 CA         26.6350   33.5435   31.5650 C.3       3 GLC5        0.0000 
     40 CA         27.9050   33.2770   30.1620 C.3       9 GLL5        0.0000 
     41 CA         25.3650   33.8100   32.9680 C.3       6 GLP5        0.0000 
     42 N          29.2075   34.8855   31.7975 N.am      2 SEC2        0.0000 
     43 N          28.4140   33.4590   31.4640 N.am      8 SEL2        0.0000 
     44 N          30.0010   36.3120   32.1310 N.am      5 SEP2        0.0000 
     45 N          29.2120   30.3085   30.6675 N.am      2 SEC2        0.0000 
     46 N          28.6420   31.0060   31.8030 N.am      8 SEL2        0.0000 
     47 N          29.7820   29.6110   29.5320 N.am      5 SEP2        0.0000 
     48 N          31.4110   31.3570   31.5130 N.am      2 SEC2        0.0000 
     49 N          30.5690   32.5280   31.9950 N.am      8 SEL2        0.0000 
     50 N          32.2530   30.1860   31.0310 N.am      5 SEP2        0.0000 
     51 N          31.7105   32.2815   32.5370 N.am      2 SEC2        0.0000 
     52 N          32.8520   32.0350   33.0790 N.am      5 SEP2        0.0000 
     53 N          27.5365   32.7105   34.3195 N.am      2 SEC2        0.0000 
     54 N          28.8280   32.6830   33.6840 N.am      8 SEL2        0.0000 
     55 N          26.2450   32.7380   34.9550 N.am      5 SEP2        0.0000 
     56 CA         35.8926   35.2864   27.9380 C.3       3 GLC5        0.0000 
     57 CA         35.1210   34.5410   25.7130 C.3       9 GLL5        0.0000 
     58 CA         35.7770   36.7530   29.0440 C.3       6 GLP5        0.0000 
     59 CA         33.5560   32.4398   26.2254 C.3       3 GLC5        0.0000 
     60 CA         35.3540   33.8960   27.0130 C.3       9 GLL5        0.0000 
     61 CA         33.2640   30.8630   24.9170 C.3       6 GLP5        0.0000 
     62 CA         32.8809   34.6527   29.7384 C.3       3 GLC5        0.0000 
     63 CA         34.2220   33.7340   27.9660 C.3       9 GLL5        0.0000 
     64 CA         34.6839   35.2812   28.5844 C.3       3 GLC5        0.0000 
     65 CA         33.7174   33.6770   24.4981 C.3       3 GLC5        0.0000 
     66 CA         32.6590   34.8560   26.2790 C.3       9 GLL5        0.0000 
     67 CA         33.8840   32.5400   23.0820 C.3       6 GLP5        0.0000 
     68 CA         27.6722   35.1972   30.6773 C.3       3 GLC5        0.0000 
     69 CA         26.9580   36.8390   31.6990 C.3       6 GLP5        0.0000 
@<TRIPOS>BOND
@<TRIPOS>SUBSTRUCTURE
     1 ALC1        1 GROUP        1 X    ALC  0     ROOT ALC X 1
     2 SEC2        4 GROUP        1 X    SEC  0     **** SEC X 2
     3 GLC5        9 GROUP        1 X    GLC  0     **** GLC X 6
     4 ALP1        3 GROUP        1 Y    ALP  0     ROOT ALP Y 8
     5 SEP2        6 GROUP        1 Y    SEP  0     **** SEP Y 9
     6 GLP5       11 GROUP        1 Y    GLP  0     **** GLP Y 13
     7 ALL1        2 GROUP        1 Z    ALL  0     ROOT ALL Z 15
     8 SEL2        5 GROUP        1 Z    SEL  0     **** SEL Z 16
     9 GLL5       10 GROUP        1 Z    GLL  0     **** GLL Z 20
@<TRIPOS>SET

