#    Name: 2gjl_FMN_1_ligand
#    Modification time : Tue Mar 25 14:36:22 2014

@<TRIPOS>MOLECULE
2gjl_FMN_1_ligand
   50    52     1     0     0
SMALL
NO_CHARGES


@<TRIPOS>ATOM
      1 N1         29.8740   36.3840   24.1420 N.2       1 FMN1904     0.0000 
      2 C2         29.6570   36.9500   22.9030 C.2       1 FMN1904     0.0000 
      3 O2         28.5620   37.3320   22.5340 O.2       1 FMN1904     0.0000 
      4 N3         30.7960   37.0600   22.0710 N.am      1 FMN1904     0.0000 
      5 C4         32.1360   36.6530   22.3700 C.2       1 FMN1904     0.0000 
      6 O4         33.0240   36.8090   21.5400 O.2       1 FMN1904     0.0000 
      7 C4A        32.3020   36.0810   23.6440 C.2       1 FMN1904     0.0000 
      8 N5         33.4850   35.6000   24.1610 N.2       1 FMN1904     0.0000 
      9 C5A        33.7640   35.0030   25.3860 C.ar      1 FMN1904     0.0000 
     10 C6         35.1210   34.5410   25.7130 C.ar      1 FMN1904     0.0000 
     11 C7         35.3540   33.8960   27.0130 C.ar      1 FMN1904     0.0000 
     12 C7M        36.7790   33.4210   27.3010 C.3       1 FMN1904     0.0000 
     13 C8         34.2220   33.7340   27.9660 C.ar      1 FMN1904     0.0000 
     14 C8M        34.3250   33.0680   29.3770 C.3       1 FMN1904     0.0000 
     15 C9         32.9080   34.2180   27.5780 C.ar      1 FMN1904     0.0000 
     16 C9A        32.6590   34.8560   26.2790 C.ar      1 FMN1904     0.0000 
     17 N10        31.4080   35.3470   25.7940 N.pl3     1 FMN1904     0.0000 
     18 C10        31.1330   35.9590   24.5160 C.2       1 FMN1904     0.0000 
     19 C1'        30.1950   35.1920   26.7340 C.3       1 FMN1904     0.0000 
     20 C2'        29.5690   33.7800   26.6700 C.3       1 FMN1904     0.0000 
     21 O2'        29.0810   33.5000   25.3620 O.3       1 FMN1904     0.0000 
     22 C3'        28.4050   33.6140   27.6610 C.3       1 FMN1904     0.0000 
     23 O3'        27.3210   34.4580   27.3220 O.3       1 FMN1904     0.0000 
     24 C4'        28.8680   33.8340   29.1490 C.3       1 FMN1904     0.0000 
     25 O4'        30.1170   33.1480   29.4050 O.3       1 FMN1904     0.0000 
     26 C5'        27.9050   33.2770   30.1620 C.3       1 FMN1904     0.0000 
     27 O5'        28.4140   33.4590   31.4640 O.3       1 FMN1904     0.0000 
     28 P          29.1360   32.3230   32.2870 P.3       1 FMN1904     0.0000 
     29 O1P        28.6420   31.0060   31.8030 O.co2     1 FMN1904     0.0000 
     30 O2P        30.5690   32.5280   31.9950 O.co2     1 FMN1904     0.0000 
     31 O3P        28.8280   32.6830   33.6840 O.co2     1 FMN1904     0.0000 
     32 H          30.6451   37.4976   21.1041 H         1 FMN1904     0.0000 
     33 H          35.8655   34.6625   25.0679 H         1 FMN1904     0.0000 
     34 H          32.1258   34.1138   28.2272 H         1 FMN1904     0.0000 
     35 H          29.4353   35.9284   26.4596 H         1 FMN1904     0.0000 
     36 H          30.5121   35.3921   27.7607 H         1 FMN1904     0.0000 
     37 H          30.3387   33.0621   26.9510 H         1 FMN1904     0.0000 
     38 H          28.0919   32.5500   27.6020 H         1 FMN1904     0.0000 
     39 H          28.9837   34.8884   29.3169 H         1 FMN1904     0.0000 
     40 H          27.7455   32.2115   29.9299 H         1 FMN1904     0.0000 
     41 H          26.9366   33.7852   30.0262 H         1 FMN1904     0.0000 
     42 H          37.4344   34.1758   27.2753 H         1 FMN1904     0.0000 
     43 H          36.8541   32.9981   28.2041 H         1 FMN1904     0.0000 
     44 H          37.0865   32.7430   26.6334 H         1 FMN1904     0.0000 
     45 H          34.6321   32.1182   29.3178 H         1 FMN1904     0.0000 
     46 H          34.9722   33.5490   29.9684 H         1 FMN1904     0.0000 
     47 H          33.4441   33.0623   29.8502 H         1 FMN1904     0.0000 
     48 H          29.8994   33.3523   24.8067 H         1 FMN1904     0.0000 
     49 H          27.6453   35.3846   27.5122 H         1 FMN1904     0.0000 
     50 H          30.3720   33.4133   30.3348 H         1 FMN1904     0.0000 
@<TRIPOS>BOND
     1    2    1 1    
     2   18    1 2    
     3    3    2 2    
     4    4    2 am   
     5    5    4 am   
     6   32    4 1    
     7    6    5 2    
     8    7    5 1    
     9    8    7 2    
    10   18    7 1    
    11    9    8 1    
    12   10    9 ar   
    13   16    9 ar   
    14   11   10 ar   
    15   33   10 1    
    16   12   11 1    
    17   13   11 ar   
    18   42   12 1    
    19   43   12 1    
    20   44   12 1    
    21   14   13 1    
    22   15   13 ar   
    23   45   14 1    
    24   46   14 1    
    25   47   14 1    
    26   16   15 ar   
    27   34   15 1    
    28   17   16 1    
    29   18   17 1    
    30   19   17 1    
    31   20   19 1    
    32   35   19 1    
    33   36   19 1    
    34   21   20 1    
    35   22   20 1    
    36   37   20 1    
    37   48   21 1    
    38   23   22 1    
    39   24   22 1    
    40   38   22 1    
    41   49   23 1    
    42   25   24 1    
    43   26   24 1    
    44   39   24 1    
    45   50   25 1    
    46   27   26 1    
    47   40   26 1    
    48   41   26 1    
    49   28   27 1    
    50   29   28 ar   
    51   30   28 ar   
    52   31   28 ar   
@<TRIPOS>SUBSTRUCTURE
     1 FMN1904     1 GROUP   
@<TRIPOS>SET

