#    Name: 1uvr_BI8_1_INTS_M
#    Modification time : Tue Mar 25 07:09:49 2014

@<TRIPOS>MOLECULE
1uvr_BI8_1_INTS_M
   73     0    12     0     0
SMALL
NO_CHARGES


@<TRIPOS>ATOM
      1 CA         86.8980   15.8285   16.1855 C.3       4 GLC5        0.0000 
      2 CA         87.4040   16.4900   14.1670 C.3      12 GLL5        0.0000 
      3 CA         86.3920   15.1670   18.2040 C.3       8 GLP5        0.0000 
      4 CA         88.4935   16.3795   12.5655 C.3       4 GLC5        0.0000 
      5 CA         89.5830   16.2690   10.9640 C.3       8 GLP5        0.0000 
      6 OD1        85.9075   22.3345   11.4740 O.co2     3 ASC3        0.0000 
      7 OD1        84.4180   21.8000   12.3560 O.co2    11 ASL3        0.0000 
      8 OD1        87.3970   22.8690   10.5920 O.co2     7 ASP3        0.0000 
      9 OD1        85.7300   21.5500   12.2240 O.co2     3 ASC3        0.0000 
     10 OD1        87.0420   21.3000   12.0920 O.co2     7 ASP3        0.0000 
     11 OD1        84.0740   23.5725   11.5025 O.co2     3 ASC3        0.0000 
     12 OD1        83.7300   25.3450   10.6490 O.co2     7 ASP3        0.0000 
     13 O          85.7300   21.5500   12.2240 O.2       1 ALC1        0.0000 
     14 O          84.4180   21.8000   12.3560 O.2       9 ALL1        0.0000 
     15 O          87.0420   21.3000   12.0920 O.2       5 ALP1        0.0000 
     16 CA         85.2375   20.6300   10.1880 C.3       4 GLC5        0.0000 
     17 CA         83.2120   20.6520   10.5590 C.3      12 GLL5        0.0000 
     18 CA         87.2630   20.6080    9.8170 C.3       8 GLP5        0.0000 
     19 CA         83.9810   22.3895    9.7165 C.3       4 GLC5        0.0000 
     20 CA         84.7500   24.1270    8.8740 C.3       8 GLP5        0.0000 
     21 CA         84.1870   19.0725    9.3755 C.3       4 GLC5        0.0000 
     22 CA         85.1620   17.4930    8.1920 C.3       8 GLP5        0.0000 
     23 CA         81.5480   18.5845    8.8680 C.3       4 GLC5        0.0000 
     24 CA         81.8490   20.1280   10.1040 C.3      12 GLL5        0.0000 
     25 CA         81.2470   17.0410    7.6320 C.3       8 GLP5        0.0000 
     26 CA         77.4415   18.6555    9.0405 C.3       4 GLC5        0.0000 
     27 CA         77.6960   18.7140   10.9550 C.3      12 GLL5        0.0000 
     28 CA         77.1870   18.5970    7.1260 C.3       8 GLP5        0.0000 
     29 CA         76.2365   17.2755   12.7595 C.3       4 GLC5        0.0000 
     30 CA         77.6610   17.4290   11.4880 C.3      12 GLL5        0.0000 
     31 CA         74.8120   17.1220   14.0310 C.3       8 GLP5        0.0000 
     32 CA         81.5695   16.3380    9.7445 C.3       4 GLC5        0.0000 
     33 CA         81.8920   15.6350   11.8570 C.3      12 GLL5        0.0000 
     34 N          79.7620   15.0985    9.5770 N.am      2 SEC2        0.0000 
     35 N          80.2110   14.3690   10.8080 N.am     10 SEL2        0.0000 
     36 N          79.3130   15.8280    8.3460 N.am      6 SEP2        0.0000 
     37 O          82.0765   11.9235   11.7875 O.2       1 ALC1        0.0000 
     38 O          82.0450   13.4660   11.8340 O.2       9 ALL1        0.0000 
     39 O          82.1080   10.3810   11.7410 O.2       5 ALP1        0.0000 
     40 N          84.8720   12.0855   12.2685 N.am      2 SEC2        0.0000 
     41 N          84.0320   13.1500   12.9200 N.am     10 SEL2        0.0000 
     42 N          85.7120   11.0210   11.6170 N.am      6 SEP2        0.0000 
     43 CA         81.0685   17.8615   14.8345 C.3       4 GLC5        0.0000 
     44 CA         82.8910   18.2270   13.8920 C.3      12 GLL5        0.0000 
     45 CA         79.2460   17.4960   15.7770 C.3       8 GLP5        0.0000 
     46 CA         81.6505   18.1995   15.6975 C.3       4 GLC5        0.0000 
     47 CA         83.1140   19.4350   14.5460 C.3      12 GLL5        0.0000 
     48 CA         80.1870   16.9640   16.8490 C.3       8 GLP5        0.0000 
     49 CA         83.0542   16.4660   10.4260 C.3       4 GLC5        0.0000 
     50 CA         82.1790   17.8820   11.1540 C.3      12 GLL5        0.0000 
     51 CA         84.3260   15.5370    9.4750 C.3       8 GLP5        0.0000 
     52 CA         80.3790   18.0075    9.2255 C.3       4 GLC5        0.0000 
     53 CA         80.1010   18.6290   10.9500 C.3      12 GLL5        0.0000 
     54 CA         78.7980   19.4020    9.0200 C.3       4 GLC5        0.0000 
     55 CA         78.0850   19.8300    7.2210 C.3       8 GLP5        0.0000 
     56 CA         77.9210   15.3085   11.9592 C.3       4 GLC5        0.0000 
     57 CA         77.5880   13.5280   12.2960 C.3       8 GLP5        0.0000 
     58 CA         79.3535   17.2722   13.6988 C.3       4 GLC5        0.0000 
     59 CA         78.8470   16.7490   11.7570 C.3      12 GLL5        0.0000 
     60 CA         81.0879   17.2062    9.5312 C.3       4 GLC5        0.0000 
     61 CA         80.0750   17.3480   11.4840 C.3      12 GLL5        0.0000 
     62 CA         83.4035   15.4925   10.8260 C.3       4 GLC5        0.0000 
     63 CA         84.5145   15.1860   15.0205 C.3       4 GLC5        0.0000 
     64 CA         84.0190   16.0860   13.0940 C.3      12 GLL5        0.0000 
     65 CA         84.3810   14.4980   16.8940 C.3       8 GLP5        0.0000 
     66 CA         84.4870   15.7055   11.3110 C.3       4 GLC5        0.0000 
     67 CA         85.2770   15.6620   13.2000 C.3      12 GLL5        0.0000 
     68 CA         83.3657   20.2655   16.3552 C.3       4 GLC5        0.0000 
     69 CA         84.3930   19.7570   14.9930 C.3      12 GLL5        0.0000 
     70 CA         82.9780   20.9350   17.9410 C.3       8 GLP5        0.0000 
     71 CA         84.4285   17.8334   16.2061 C.3       4 GLC5        0.0000 
     72 CA         85.4480   18.8730   14.7940 C.3      12 GLL5        0.0000 
     73 CA         84.4740   16.7750   17.8500 C.3       8 GLP5        0.0000 
@<TRIPOS>BOND
@<TRIPOS>SUBSTRUCTURE
     1 ALC1       13 GROUP        1 X    ALC  0     ROOT ALC X 1
     2 SEC2       34 GROUP        1 X    SEC  0     **** SEC X 2
     3 ASC3        6 GROUP        1 X    ASC  0     **** ASC X 3
     4 GLC5        1 GROUP        1 X    GLC  0     **** GLC X 6
     5 ALP1       15 GROUP        1 Y    ALP  0     ROOT ALP Y 8
     6 SEP2       36 GROUP        1 Y    SEP  0     **** SEP Y 9
     7 ASP3        8 GROUP        1 Y    ASP  0     **** ASP Y 10
     8 GLP5        3 GROUP        1 Y    GLP  0     **** GLP Y 13
     9 ALL1       14 GROUP        1 Z    ALL  0     ROOT ALL Z 15
    10 SEL2       35 GROUP        1 Z    SEL  0     **** SEL Z 16
    11 ASL3        7 GROUP        1 Z    ASL  0     **** ASL Z 17
    12 GLL5        2 GROUP        1 Z    GLL  0     **** GLL Z 20
@<TRIPOS>SET

