#    Name: 1uvr_BI8_1_ligand
#    Modification time : Tue Mar 25 07:09:49 2014

@<TRIPOS>MOLECULE
1uvr_BI8_1_ligand
   53    57     1     0     0
SMALL
NO_CHARGES


@<TRIPOS>ATOM
      1 CB0        87.4040   16.4900   14.1670 C.3       1 BI81372     0.0000 
      2 NBC        84.4180   21.8000   12.3560 N.4       1 BI81372     0.0000 
      3 CBB        83.1690   21.1020   12.0200 C.3       1 BI81372     0.0000 
      4 CBA        83.2120   20.6520   10.5590 C.3       1 BI81372     0.0000 
      5 CAY        81.8490   20.1280   10.1040 C.3       1 BI81372     0.0000 
      6 NAH        81.3960   18.8960   10.7710 N.pl3     1 BI81372     0.0000 
      7 CAW        82.1790   17.8820   11.1540 C.2       1 BI81372     0.0000 
      8 CAE        80.1010   18.6290   10.9500 C.ar      1 BI81372     0.0000 
      9 CAF        78.9210   19.3190   10.6880 C.ar      1 BI81372     0.0000 
     10 CAA        77.6960   18.7140   10.9550 C.ar      1 BI81372     0.0000 
     11 CAB        77.6610   17.4290   11.4880 C.ar      1 BI81372     0.0000 
     12 CAC        78.8470   16.7490   11.7570 C.ar      1 BI81372     0.0000 
     13 CAD        80.0750   17.3480   11.4840 C.ar      1 BI81372     0.0000 
     14 CAG        81.3860   16.9080   11.6000 C.2       1 BI81372     0.0000 
     15 CAI        81.8920   15.6350   11.8570 C.2       1 BI81372     0.0000 
     16 CAT        81.2610   14.4680   11.4410 C.2       1 BI81372     0.0000 
     17 OAZ        80.2110   14.3690   10.8080 O.2       1 BI81372     0.0000 
     18 NAU        82.0450   13.4660   11.8340 N.am      1 BI81372     0.0000 
     19 CAV        83.1430   13.8710   12.4690 C.2       1 BI81372     0.0000 
     20 OAX        84.0320   13.1500   12.9200 O.2       1 BI81372     0.0000 
     21 CAJ        83.0700   15.2610   12.4970 C.2       1 BI81372     0.0000 
     22 CAK        84.0190   16.0860   13.0940 C.2       1 BI81372     0.0000 
     23 CAM        83.9420   17.3390   13.6860 C.ar      1 BI81372     0.0000 
     24 CAP        82.8910   18.2270   13.8920 C.ar      1 BI81372     0.0000 
     25 CAQ        83.1140   19.4350   14.5460 C.ar      1 BI81372     0.0000 
     26 CAR        84.3930   19.7570   14.9930 C.ar      1 BI81372     0.0000 
     27 CAS        85.4480   18.8730   14.7940 C.ar      1 BI81372     0.0000 
     28 CAN        85.2120   17.6660   14.1450 C.ar      1 BI81372     0.0000 
     29 NAO        85.9680   16.6140   13.8290 N.pl3     1 BI81372     0.0000 
     30 CAL        85.2770   15.6620   13.2000 C.2       1 BI81372     0.0000 
     31 H          82.3100   21.7595   12.1526 H         1 BI81372     0.0000 
     32 H          83.0366   20.2211   12.6479 H         1 BI81372     0.0000 
     33 H          83.9548   19.8627   10.4484 H         1 BI81372     0.0000 
     34 H          83.4995   21.4955    9.9321 H         1 BI81372     0.0000 
     35 H          81.8946   19.9713    9.0020 H         1 BI81372     0.0000 
     36 H          81.1030   20.9413   10.2560 H         1 BI81372     0.0000 
     37 H          83.1438   17.8616   11.1137 H         1 BI81372     0.0000 
     38 H          78.9536   20.2677   10.3005 H         1 BI81372     0.0000 
     39 H          76.8214   19.2143   10.7593 H         1 BI81372     0.0000 
     40 H          76.7566   16.9788   11.6844 H         1 BI81372     0.0000 
     41 H          78.8159   15.8024   12.1581 H         1 BI81372     0.0000 
     42 H          81.8291   12.4991   11.6677 H         1 BI81372     0.0000 
     43 H          81.9461   17.9901   13.5600 H         1 BI81372     0.0000 
     44 H          82.3365   20.0886   14.6990 H         1 BI81372     0.0000 
     45 H          84.5574   20.6532   15.4726 H         1 BI81372     0.0000 
     46 H          86.3886   19.1084   15.1219 H         1 BI81372     0.0000 
     47 H          85.6263   14.8199   12.8805 H         1 BI81372     0.0000 
     48 H          87.7890   15.6265   13.8411 H         1 BI81372     0.0000 
     49 H          87.9462   17.2249   13.7597 H         1 BI81372     0.0000 
     50 H          87.5575   16.5252   15.1545 H         1 BI81372     0.0000 
     51 H          84.8120   22.2601   11.5603 H         1 BI81372     0.0000 
     52 H          84.2760   22.4981   13.0578 H         1 BI81372     0.0000 
     53 H          85.1128   21.1709   12.7046 H         1 BI81372     0.0000 
@<TRIPOS>BOND
     1   29    1 1    
     2   48    1 1    
     3   49    1 1    
     4   50    1 1    
     5    3    2 1    
     6   51    2 1    
     7   52    2 1    
     8   53    2 1    
     9    4    3 1    
    10   31    3 1    
    11   32    3 1    
    12    5    4 1    
    13   33    4 1    
    14   34    4 1    
    15    6    5 1    
    16   35    5 1    
    17   36    5 1    
    18    7    6 1    
    19    8    6 1    
    20   14    7 2    
    21   37    7 1    
    22    9    8 ar   
    23   13    8 ar   
    24   10    9 ar   
    25   38    9 1    
    26   11   10 ar   
    27   39   10 1    
    28   12   11 ar   
    29   40   11 1    
    30   13   12 ar   
    31   41   12 1    
    32   14   13 1    
    33   15   14 1    
    34   16   15 1    
    35   21   15 2    
    36   17   16 2    
    37   18   16 am   
    38   19   18 am   
    39   42   18 1    
    40   20   19 2    
    41   21   19 1    
    42   22   21 1    
    43   23   22 1    
    44   30   22 2    
    45   24   23 ar   
    46   28   23 ar   
    47   25   24 ar   
    48   43   24 1    
    49   26   25 ar   
    50   44   25 1    
    51   27   26 ar   
    52   45   26 1    
    53   28   27 ar   
    54   46   27 1    
    55   29   28 1    
    56   30   29 1    
    57   47   30 1    
@<TRIPOS>SUBSTRUCTURE
     1 BI81372     1 GROUP   
@<TRIPOS>SET

