#    Name: 3kej_3EJ_2_INTS_M
#    Modification time : Mon Mar 24 19:21:36 2014

@<TRIPOS>MOLECULE
3kej_3EJ_2_INTS_M
   79     0    12     0     0
SMALL
NO_CHARGES


@<TRIPOS>ATOM
      1 CA         81.7695   23.5660   24.8375 C.3       4 GLC5        0.0000 
      2 CA         80.0870   22.6960   23.8840 C.3      12 GLL5        0.0000 
      3 CA         83.4520   24.4360   25.7910 C.3       8 GLP5        0.0000 
      4 CA         82.4525   22.1495   22.6585 C.3       4 GLC5        0.0000 
      5 CA         80.7870   23.3180   22.8740 C.3      12 GLL5        0.0000 
      6 CA         84.1180   20.9810   22.4430 C.3       8 GLP5        0.0000 
      7 CA         82.5810   23.7050   23.7520 C.3       4 GLC5        0.0000 
      8 CA         84.3750   24.0920   24.6300 C.3       8 GLP5        0.0000 
      9 CA         81.9890   24.5340   24.1775 C.3       4 GLC5        0.0000 
     10 CA         80.5260   24.6320   22.5640 C.3      12 GLL5        0.0000 
     11 NZ         78.1435   21.9740   27.1995 N.4       3 LYC4        0.0000 
     12 NZ         77.1950   22.9810   25.8940 N.4      11 LYL4        0.0000 
     13 NZ         79.0920   20.9670   28.5050 N.4       7 LYP4        0.0000 
     14 N          76.2600   23.9280   25.3165 N.am      2 SEC2        0.0000 
     15 N          77.1950   22.9810   25.8940 N.am     10 SEL2        0.0000 
     16 N          75.3250   24.8750   24.7390 N.am      6 SEP2        0.0000 
     17 NZ         79.0905   21.3830   27.3735 N.4       3 LYC4        0.0000 
     18 NZ         79.0890   21.7990   26.2420 N.4      11 LYL4        0.0000 
     19 N          79.0905   21.3830   27.3735 N.am      2 SEC2        0.0000 
     20 N          79.0890   21.7990   26.2420 N.am     10 SEL2        0.0000 
     21 N          79.0920   20.9670   28.5050 N.am      6 SEP2        0.0000 
     22 CA         82.5025   24.7235   19.9850 C.3       4 GLC5        0.0000 
     23 CA         81.3080   25.2680   21.4590 C.3      12 GLL5        0.0000 
     24 CA         83.6970   24.1790   18.5110 C.3       8 GLP5        0.0000 
     25 N          79.9375   28.1885   19.3940 N.am      2 SEC2        0.0000 
     26 N          80.0690   27.2640   20.8090 N.am     10 SEL2        0.0000 
     27 N          79.8060   29.1130   17.9790 N.am      6 SEP2        0.0000 
     28 N          80.0215   28.8370   19.5040 N.am      2 SEC2        0.0000 
     29 N          80.2370   28.5610   21.0290 N.am     10 SEL2        0.0000 
     30 CA         79.4985   30.3940   22.9890 C.3       4 GLC5        0.0000 
     31 CA         81.0280   31.0250   22.2870 C.3      12 GLL5        0.0000 
     32 CA         77.9690   29.7630   23.6910 C.3       8 GLP5        0.0000 
     33 CA         80.6725   30.8345   24.0985 C.3       4 GLC5        0.0000 
     34 CA         81.5280   32.2080   22.7800 C.3      12 GLL5        0.0000 
     35 CA         79.8170   29.4610   25.4170 C.3       8 GLP5        0.0000 
     36 CA         82.6740   33.2775   24.3605 C.3       4 GLC5        0.0000 
     37 CA         83.8200   34.3470   25.9410 C.3       8 GLP5        0.0000 
     38 CA         83.6845   32.8255   24.5690 C.3       4 GLC5        0.0000 
     39 CA         83.5490   31.3040   23.1970 C.3      12 GLL5        0.0000 
     40 CA         85.5590   31.6665   23.6370 C.3       4 GLC5        0.0000 
     41 CA         87.5690   32.0290   24.0770 C.3       8 GLP5        0.0000 
     42 O          82.4525   35.1630   23.5910 O.2       1 ALC1        0.0000 
     43 O          81.0340   34.4260   23.5610 O.2       9 ALL1        0.0000 
     44 O          83.8710   35.9000   23.6210 O.2       5 ALP1        0.0000 
     45 CA         81.9985   34.9625   24.8365 C.3       4 GLC5        0.0000 
     46 CA         80.1770   35.5780   23.7320 C.3      12 GLL5        0.0000 
     47 CA         81.4860   37.2430   23.2180 C.3       4 GLC5        0.0000 
     48 CA         82.7950   38.9080   22.7040 C.3       8 GLP5        0.0000 
     49 CA         80.2275   35.5025   21.6250 C.3       4 GLC5        0.0000 
     50 CA         80.2780   35.4270   19.5180 C.3       8 GLP5        0.0000 
     51 N          78.6275   33.8695   21.2270 N.am      2 SEC2        0.0000 
     52 N          79.5310   33.2660   22.2520 N.am     10 SEL2        0.0000 
     53 N          77.7240   34.4730   20.2020 N.am      6 SEP2        0.0000 
     54 CA         80.3300   33.2180   26.2920 C.3       4 GLC5        0.0000 
     55 CA         78.7000   34.1800   25.2490 C.3      12 GLL5        0.0000 
     56 CA         81.9600   32.2560   27.3350 C.3       8 GLP5        0.0000 
     57 CA         77.3650   37.3365   27.6610 C.3       4 GLC5        0.0000 
     58 CA         76.3670   37.4200   25.9940 C.3      12 GLL5        0.0000 
     59 CA         78.3630   37.2530   29.3280 C.3       8 GLP5        0.0000 
     60 CA         81.1655   29.7320   23.9528 C.3       4 GLC5        0.0000 
     61 CA         81.8680   29.9360   22.2560 C.3      12 GLL5        0.0000 
     62 CA         82.4265   30.0801   20.4086 C.3       4 GLC5        0.0000 
     63 CA         82.5490   29.8850   18.3210 C.3       8 GLP5        0.0000 
     64 CA         77.9975   35.6528   22.9608 C.3       4 GLC5        0.0000 
     65 CA         76.4020   35.8230   21.7270 C.3       8 GLP5        0.0000 
     66 CA         78.8465   36.0600   26.8453 C.3       4 GLC5        0.0000 
     67 CA         79.0090   35.3870   24.6570 C.3      12 GLL5        0.0000 
     68 CA         79.0850   36.1900   28.9000 C.3       8 GLP5        0.0000 
     69 CA         78.2612   32.0093   25.4277 C.3       4 GLC5        0.0000 
     70 CA         78.3660   29.9040   25.1860 C.3       8 GLP5        0.0000 
     71 CA         78.5832   34.4252   27.4663 C.3       4 GLC5        0.0000 
     72 CA         79.0100   34.7360   29.2630 C.3       8 GLP5        0.0000 
     73 CA         76.4295   33.3263   27.5425 C.3       4 GLC5        0.0000 
     74 CA         77.6130   34.0490   26.0900 C.3      12 GLL5        0.0000 
     75 CA         75.6500   32.0600   28.8620 C.3       8 GLP5        0.0000 
     76 CA         78.0242   35.9640   27.4787 C.3       4 GLC5        0.0000 
     77 CA         76.8050   35.1360   26.3560 C.3      12 GLL5        0.0000 
     78 CA         77.0332   36.1148   23.5343 C.3       4 GLC5        0.0000 
     79 CA         77.1220   36.3400   25.7590 C.3      12 GLL5        0.0000 
@<TRIPOS>BOND
@<TRIPOS>SUBSTRUCTURE
     1 ALC1       42 GROUP        1 X    ALC  0     ROOT ALC X 1
     2 SEC2       14 GROUP        1 X    SEC  0     **** SEC X 2
     3 LYC4       11 GROUP        1 X    LYC  0     **** LYC X 4
     4 GLC5        1 GROUP        1 X    GLC  0     **** GLC X 6
     5 ALP1       44 GROUP        1 Y    ALP  0     ROOT ALP Y 8
     6 SEP2       16 GROUP        1 Y    SEP  0     **** SEP Y 9
     7 LYP4       13 GROUP        1 Y    LYP  0     **** LYP Y 11
     8 GLP5        3 GROUP        1 Y    GLP  0     **** GLP Y 13
     9 ALL1       43 GROUP        1 Z    ALL  0     ROOT ALL Z 15
    10 SEL2       15 GROUP        1 Z    SEL  0     **** SEL Z 16
    11 LYL4       12 GROUP        1 Z    LYL  0     **** LYL Z 18
    12 GLL5        2 GROUP        1 Z    GLL  0     **** GLL Z 20
@<TRIPOS>SET

