#    Name: 3kej_3EJ_2_ligand
#    Modification time : Mon Mar 24 19:21:36 2014

@<TRIPOS>MOLECULE
3kej_3EJ_2_ligand
   48    51     1     0     0
SMALL
NO_CHARGES


@<TRIPOS>ATOM
      1 C1         78.8520   24.6980   24.2870 C.ar      1 3EJ801      0.0000 
      2 C2         79.1210   23.3820   24.5890 C.ar      1 3EJ801      0.0000 
      3 C3         80.0870   22.6960   23.8840 C.ar      1 3EJ801      0.0000 
      4 C4         80.7870   23.3180   22.8740 C.ar      1 3EJ801      0.0000 
      5 C5         80.5260   24.6320   22.5640 C.ar      1 3EJ801      0.0000 
      6 C6         79.5590   25.3140   23.2740 C.ar      1 3EJ801      0.0000 
      7 C7         78.3990   22.6750   25.6610 C.2       1 3EJ801      0.0000 
      8 O8         77.1950   22.9810   25.8940 O.co2     1 3EJ801      0.0000 
      9 O9         79.0890   21.7990   26.2420 O.co2     1 3EJ801      0.0000 
     10 C10        81.3080   25.2680   21.4590 C.3       1 3EJ801      0.0000 
     11 N11        81.1110   26.7010   21.4380 N.pl3     1 3EJ801      0.0000 
     12 N12        80.0690   27.2640   20.8090 N.2       1 3EJ801      0.0000 
     13 N13        80.2370   28.5610   21.0290 N.2       1 3EJ801      0.0000 
     14 C14        81.3770   28.6780   21.7830 C.2       1 3EJ801      0.0000 
     15 N15        81.9620   27.5130   22.0700 N.2       1 3EJ801      0.0000 
     16 C16        81.8680   29.9360   22.2560 C.ar      1 3EJ801      0.0000 
     17 C17        81.0280   31.0250   22.2870 C.ar      1 3EJ801      0.0000 
     18 C18        81.5280   32.2080   22.7800 C.ar      1 3EJ801      0.0000 
     19 N19        82.7680   32.3910   23.2480 N.ar      1 3EJ801      0.0000 
     20 C20        83.5490   31.3040   23.1970 C.ar      1 3EJ801      0.0000 
     21 C21        83.1600   30.0700   22.7210 C.ar      1 3EJ801      0.0000 
     22 C22        80.6060   33.3500   22.8190 C.2       1 3EJ801      0.0000 
     23 N23        81.0340   34.4260   23.5610 N.am      1 3EJ801      0.0000 
     24 C24        80.1770   35.5780   23.7320 C.3       1 3EJ801      0.0000 
     25 C25        79.0090   35.3870   24.6570 C.ar      1 3EJ801      0.0000 
     26 O26        79.5310   33.2660   22.2520 O.2       1 3EJ801      0.0000 
     27 C27        78.7000   34.1800   25.2490 C.ar      1 3EJ801      0.0000 
     28 C28        77.6130   34.0490   26.0900 C.ar      1 3EJ801      0.0000 
     29 C29        76.8050   35.1360   26.3560 C.ar      1 3EJ801      0.0000 
     30 C30        77.1220   36.3400   25.7590 C.ar      1 3EJ801      0.0000 
     31 C31        78.2070   36.4730   24.9240 C.ar      1 3EJ801      0.0000 
     32 F32        76.3670   37.4200   25.9940 F         1 3EJ801      0.0000 
     33 H          78.1349   25.2162   24.8077 H         1 3EJ801      0.0000 
     34 H          80.2871   21.7069   24.1157 H         1 3EJ801      0.0000 
     35 H          81.5084   22.7962   22.3496 H         1 3EJ801      0.0000 
     36 H          79.3597   26.3072   23.0425 H         1 3EJ801      0.0000 
     37 H          80.9962   24.8185   20.5014 H         1 3EJ801      0.0000 
     38 H          82.3749   25.0240   21.5954 H         1 3EJ801      0.0000 
     39 H          80.0674   30.9577   21.9558 H         1 3EJ801      0.0000 
     40 H          84.5601   31.3840   23.5510 H         1 3EJ801      0.0000 
     41 H          83.8047   29.2830   22.7127 H         1 3EJ801      0.0000 
     42 H          81.9556   34.4416   24.0056 H         1 3EJ801      0.0000 
     43 H          79.7799   35.9153   22.7387 H         1 3EJ801      0.0000 
     44 H          80.7736   36.4518   24.1043 H         1 3EJ801      0.0000 
     45 H          79.2990   33.3497   25.0578 H         1 3EJ801      0.0000 
     46 H          77.4037   33.1339   26.5218 H         1 3EJ801      0.0000 
     47 H          76.0002   35.0528   26.9732 H         1 3EJ801      0.0000 
     48 H          78.4204   37.3896   24.4964 H         1 3EJ801      0.0000 
@<TRIPOS>BOND
     1    2    1 ar   
     2    6    1 ar   
     3   33    1 1    
     4    3    2 ar   
     5    7    2 1    
     6    4    3 ar   
     7   34    3 1    
     8    5    4 ar   
     9   35    4 1    
    10    6    5 ar   
    11   10    5 1    
    12   36    6 1    
    13    8    7 ar   
    14    9    7 ar   
    15   11   10 1    
    16   37   10 1    
    17   38   10 1    
    18   12   11 1    
    19   15   11 1    
    20   13   12 2    
    21   14   13 1    
    22   15   14 2    
    23   16   14 1    
    24   17   16 ar   
    25   21   16 ar   
    26   18   17 ar   
    27   39   17 1    
    28   19   18 ar   
    29   22   18 1    
    30   20   19 ar   
    31   21   20 ar   
    32   40   20 1    
    33   41   21 1    
    34   23   22 am   
    35   26   22 2    
    36   24   23 1    
    37   42   23 1    
    38   25   24 1    
    39   43   24 1    
    40   44   24 1    
    41   27   25 ar   
    42   31   25 ar   
    43   28   27 ar   
    44   45   27 1    
    45   29   28 ar   
    46   46   28 1    
    47   30   29 ar   
    48   47   29 1    
    49   31   30 ar   
    50   32   30 1    
    51   48   31 1    
@<TRIPOS>SUBSTRUCTURE
     1 3EJ801      1 GROUP   
@<TRIPOS>SET

