#    Name: 1OZF_1_CAVITY_N1_ALL.mol2
#    Modification time : Mon Mar 10 23:23:09 2014

@<TRIPOS>MOLECULE
1OZF_1_CAVITY_N1_ALL.mol2
   52     0     4     0     0
SMALL
NO_CHARGES


@<TRIPOS>ATOM
      1 O         122.3467   16.2070    8.3547 O.2       1 ALA2        0.0000 
      2 O         120.6331   15.6867   10.7615 O.2       1 ALA2        0.0000 
      3 CA        119.7763   15.4265   11.9649 C.3       3 GLY6        0.0000 
      4 CA        122.1087   14.8036    7.8818 C.3       3 GLY6        0.0000 
      5 O         121.2519   14.5434    9.0852 O.2       1 ALA2        0.0000 
      6 DU        119.3120   18.2725    8.5102 H         4 CUB7        0.0000 
      7 DU        118.4552   18.0123    9.7136 H         4 CUB7        0.0000 
      8 CA        117.5983   17.7522   10.9170 C.3       3 GLY6        0.0000 
      9 CA        116.7415   17.4920   12.1204 C.3       3 GLY6        0.0000 
     10 DU        119.9308   17.1292    6.8339 H         4 CUB7        0.0000 
     11 CA        119.0740   16.8690    8.0373 C.3       3 GLY6        0.0000 
     12 CA        118.2171   16.6089    9.2407 C.3       3 GLY6        0.0000 
     13 CA        117.3603   16.3487   10.4441 C.3       3 GLY6        0.0000 
     14 NZ        119.6928   15.7257    6.3610 N.2       2 LYS4        0.0000 
     15 CA        118.8360   15.4656    7.5644 C.3       3 GLY6        0.0000 
     16 N         118.0744   20.5591   11.8628 N.2       1 ALA2        0.0000 
     17 DU        118.6932   19.4158   10.1865 H         4 CUB7        0.0000 
     18 N         117.8364   19.1556   11.3899 N.2       1 ALA2        0.0000 
     19 NZ        122.0909   22.2820    9.4858 N.2       2 LYS4        0.0000 
     20 DU        121.8528   20.8785    9.0130 H         4 CUB7        0.0000 
     21 DU        120.9960   20.6183   10.2164 H         4 CUB7        0.0000 
     22 N         120.1392   20.3582   11.4198 N.2       1 ALA2        0.0000 
     23 DU        121.6148   19.4750    8.5401 H         4 CUB7        0.0000 
     24 DU        120.7580   19.2149    9.7435 H         4 CUB7        0.0000 
     25 DU        119.9012   18.9547   10.9469 H         4 CUB7        0.0000 
     26 N         119.0443   18.6946   12.1503 N.2       1 ALA2        0.0000 
     27 DU        121.3768   18.0716    8.0672 H         4 CUB7        0.0000 
     28 DU        120.5200   17.8114    9.2706 H         4 CUB7        0.0000 
     29 DU        119.6631   17.5513   10.4740 H         4 CUB7        0.0000 
     30 NZ        118.8063   17.2911   11.6774 N.2       2 LYS4        0.0000 
     31 N         117.9495   17.0309   12.8808 N.2       1 ALA2        0.0000 
     32 DU        121.1388   16.6681    7.5943 H         4 CUB7        0.0000 
     33 O         120.2819   16.4079    8.7977 O.2       1 ALA2        0.0000 
     34 CA        119.4251   16.1478   10.0011 C.3       3 GLY6        0.0000 
     35 CA        118.5683   15.8876   11.2045 C.3       3 GLY6        0.0000 
     36 N         117.7115   15.6275   12.4079 N.2       1 ALA2        0.0000 
     37 NZ        120.9008   15.2646    7.1214 N.2       2 LYS4        0.0000 
     38 CA        120.0439   15.0045    8.3248 C.3       3 GLY6        0.0000 
     39 CA        119.1871   14.7443    9.5282 C.3       3 GLY6        0.0000 
     40 NZ        120.6627   13.8612    6.6485 N.2       2 LYS4        0.0000 
     41 N         119.8059   13.6010    7.8519 N.2       1 ALA2        0.0000 
     42 N         122.4420   21.5607   11.4496 N.2       1 ALA2        0.0000 
     43 O         123.0608   20.4174    9.7734 O.2       1 ALA2        0.0000 
     44 O         122.2040   20.1573   10.9768 O.2       1 ALA2        0.0000 
     45 CA        121.3472   19.8971   12.1802 C.3       3 GLY6        0.0000 
     46 CA        122.8228   19.0140    9.3005 C.3       3 GLY6        0.0000 
     47 O         121.9660   18.7538   10.5039 O.2       1 ALA2        0.0000 
     48 NZ        121.1091   18.4936   11.7073 N.2       2 LYS4        0.0000 
     49 O         122.5848   17.6105    8.8276 O.2       1 ALA2        0.0000 
     50 O         121.7279   17.3503   10.0310 O.2       1 ALA2        0.0000 
     51 O         120.8711   17.0902   11.2344 O.2       1 ALA2        0.0000 
     52 NZ        120.0143   16.8300   12.4378 N.2       2 LYS4        0.0000 
@<TRIPOS>BOND
@<TRIPOS>SUBSTRUCTURE
     1 ALA2        1 GROUP   
     2 LYS4       14 GROUP   
     3 GLY6        3 GROUP   
     4 CUB7        6 GROUP   
@<TRIPOS>SET

