#    Name: 1OZF_1_CAVITY_N1_6.mol2
#    Modification time : Mon Mar 10 23:23:09 2014

@<TRIPOS>MOLECULE
1OZF_1_CAVITY_N1_6.mol2
    2     0     2     0     0
SMALL
NO_CHARGES


@<TRIPOS>ATOM
      1 CA        119.7763   15.4265   11.9649 C.3       2 GLY6        0.0000 
      2 NZ        120.0143   16.8300   12.4378 N.2       1 LYS4        0.0000 
@<TRIPOS>BOND
@<TRIPOS>SUBSTRUCTURE
     1 LYS4        2 GROUP   
     2 GLY6        1 GROUP   
@<TRIPOS>SET

