#    Name: 1ozf_TPP_1_INTS_M
#    Modification time : Mon Mar 24 20:47:49 2014

@<TRIPOS>MOLECULE
1ozf_TPP_1_INTS_M
   62     0    12     0     0
SMALL
NO_CHARGES


@<TRIPOS>ATOM
      1 N         122.7190    5.9005   23.6010 N.am      2 SEC2        0.0000 
      2 N         121.3010    5.2780   22.7980 N.am     10 SEL2        0.0000 
      3 N         124.1370    6.5230   24.4040 N.am      6 SEP2        0.0000 
      4 CA        121.6495    6.8330   22.6365 C.3       4 GLC5        0.0000 
      5 CA        121.5610    5.3520   21.4350 C.3      12 GLL5        0.0000 
      6 CA        121.7380    8.3140   23.8380 C.3       8 GLP5        0.0000 
      7 O         123.8280    4.9155   21.4270 O.2       1 ALC1        0.0000 
      8 O         122.8090    5.3960   21.1000 O.2       9 ALL1        0.0000 
      9 O         124.8470    4.4350   21.7540 O.2       5 ALP1        0.0000 
     10 CA        120.3080    6.5565   17.1165 C.3       4 GLC5        0.0000 
     11 CA        120.6620    5.4540   18.8740 C.3      12 GLL5        0.0000 
     12 CA        119.9540    7.6590   15.3590 C.3       8 GLP5        0.0000 
     13 CA        121.4000    7.1500   16.9405 C.3       4 GLC5        0.0000 
     14 CA        122.8460    6.6410   18.5220 C.3      12 GLL5        0.0000 
     15 CA        124.9580    9.4350   18.4570 C.3       4 GLC5        0.0000 
     16 CA        123.5340    8.0520   18.8470 C.3      12 GLL5        0.0000 
     17 CA        126.3820   10.8180   18.0670 C.3       8 GLP5        0.0000 
     18 CA        119.0515   10.2340   18.9725 C.3       4 GLC5        0.0000 
     19 CA        119.5620    8.4110   18.8150 C.3      12 GLL5        0.0000 
     20 CA        118.5410   12.0570   19.1300 C.3       8 GLP5        0.0000 
     21 CA        121.1885    9.6185   20.9190 C.3       4 GLC5        0.0000 
     22 CA        121.7850   10.2790   19.2680 C.3      12 GLL5        0.0000 
     23 CA        120.5920    8.9580   22.5700 C.3       8 GLP5        0.0000 
     24 CA        120.1630   11.1680   19.1990 C.3       4 GLC5        0.0000 
     25 CA        124.3045   11.0835   18.1975 C.3       4 GLC5        0.0000 
     26 CA        122.2270   11.3490   18.3280 C.3      12 GLL5        0.0000 
     27 CA        120.8470   12.1745   17.3335 C.3       4 GLC5        0.0000 
     28 CA        119.4670   13.0000   16.3390 C.3       8 GLP5        0.0000 
     29 Zn        121.9940   15.4815   18.7360 Zn        3 ZIC7        0.0000 
     30 Zn        122.0280   14.8300   19.5930 Zn       11 ZIL7        0.0000 
     31 Zn        121.9600   16.1330   17.8790 Zn        7 ZIP7        0.0000 
     32 N         121.4805   15.1345   20.7690 N.am      2 SEC2        0.0000 
     33 N         122.0280   14.8300   19.5930 N.am     10 SEL2        0.0000 
     34 N         120.9330   15.4390   21.9450 N.am      6 SEP2        0.0000 
     35 N         122.6850   13.1700   22.1725 N.am      2 SEC2        0.0000 
     36 N         123.2600   13.0370   20.8030 N.am     10 SEL2        0.0000 
     37 N         122.1100   13.3030   23.5420 N.am      6 SEP2        0.0000 
     38 N         124.5220   16.1065   17.7705 N.am      2 SEC2        0.0000 
     39 N         125.2370   15.1900   17.1130 N.am     10 SEL2        0.0000 
     40 N         123.8070   17.0230   18.4280 N.am      6 SEP2        0.0000 
     41 N         126.1960   15.7980   16.4875 N.am      2 SEC2        0.0000 
     42 N         127.1550   16.4060   15.8620 N.am      6 SEP2        0.0000 
     43 N         125.6820   12.4730   16.0375 N.am      2 SEC2        0.0000 
     44 N         124.4740   13.0230   16.1200 N.am     10 SEL2        0.0000 
     45 N         126.8900   11.9230   15.9550 N.am      6 SEP2        0.0000 
     46 N         123.8470   12.2750   15.0885 N.am      2 SEC2        0.0000 
     47 N         123.2200   11.5270   14.0570 N.am      6 SEP2        0.0000 
     48 Zn        122.3850   15.4400   17.2900 Zn        3 ZIC7        0.0000 
     49 Zn        122.8100   14.7470   16.7010 Zn       11 ZIL7        0.0000 
     50 N         122.0280   14.1725   15.7520 N.am      2 SEC2        0.0000 
     51 N         122.8100   14.7470   16.7010 N.am     10 SEL2        0.0000 
     52 N         121.2460   13.5980   14.8030 N.am      6 SEP2        0.0000 
     53 CA        120.8607    6.7495   23.9393 C.3       4 GLC5        0.0000 
     54 CA        120.0580    5.2240   23.2940 C.3      12 GLL5        0.0000 
     55 CA        120.2062    7.1513   21.6490 C.3       4 GLC5        0.0000 
     56 CA        119.1560    5.3150   21.0080 C.3      12 GLL5        0.0000 
     57 CA        124.9955    7.1212   19.3857 C.3       4 GLC5        0.0000 
     58 CA        126.8010    6.8960   20.0870 C.3       8 GLP5        0.0000 
     59 CA        124.4430    6.8707   17.3908 C.3       4 GLC5        0.0000 
     60 CA        125.6960    6.3950   16.0970 C.3       8 GLP5        0.0000 
     61 CA        120.5459    8.6894   20.7069 C.3       4 GLC5        0.0000 
     62 CA        120.2269    8.0399   17.1014 C.3       4 GLC5        0.0000 
@<TRIPOS>BOND
@<TRIPOS>SUBSTRUCTURE
     1 ALC1        7 GROUP        1 X    ALC  0     ROOT ALC X 1
     2 SEC2        1 GROUP        1 X    SEC  0     **** SEC X 2
     3 ZIC7       29 GROUP        1 X    ZIC  0     **** ZIC X 5
     4 GLC5        4 GROUP        1 X    GLC  0     **** GLC X 6
     5 ALP1        9 GROUP        1 Y    ALP  0     ROOT ALP Y 8
     6 SEP2        3 GROUP        1 Y    SEP  0     **** SEP Y 9
     7 ZIP7       31 GROUP        1 Y    ZIP  0     **** ZIP Y 12
     8 GLP5        6 GROUP        1 Y    GLP  0     **** GLP Y 13
     9 ALL1        8 GROUP        1 Z    ALL  0     ROOT ALL Z 15
    10 SEL2        2 GROUP        1 Z    SEL  0     **** SEL Z 16
    11 ZIL7       30 GROUP        1 Z    ZIL  0     **** ZIL Z 19
    12 GLL5        5 GROUP        1 Z    GLL  0     **** GLL Z 20
@<TRIPOS>SET

