#    Name: 1ozf_TPP_1_ligand
#    Modification time : Mon Mar 24 20:47:49 2014

@<TRIPOS>MOLECULE
1ozf_TPP_1_ligand
   42    43     1     0     0
SMALL
NO_CHARGES


@<TRIPOS>ATOM
      1 N1'       118.9960    5.2400   22.4130 N.ar      1 TPP700      0.0000 
      2 C2'       120.0580    5.2240   23.2940 C.ar      1 TPP700      0.0000 
      3 CM2       119.9090    5.1460   24.7870 C.3       1 TPP700      0.0000 
      4 N3'       121.3010    5.2780   22.7980 N.ar      1 TPP700      0.0000 
      5 C4'       121.5610    5.3520   21.4350 C.ar      1 TPP700      0.0000 
      6 N4'       122.8090    5.3960   21.1000 N.pl3     1 TPP700      0.0000 
      7 C5'       120.4850    5.3740   20.4480 C.ar      1 TPP700      0.0000 
      8 C6'       119.1560    5.3150   21.0080 C.ar      1 TPP700      0.0000 
      9 C7'       120.6620    5.4540   18.8740 C.3       1 TPP700      0.0000 
     10 N3        121.3750    6.7050   18.5020 N.pl3     1 TPP700      0.0000 
     11 C2        122.8460    6.6410   18.5220 C.2       1 TPP700      0.0000 
     12 S1        123.5340    8.0520   18.8470 S.3       1 TPP700      0.0000 
     13 C5        121.9770    8.8640   18.9790 C.2       1 TPP700      0.0000 
     14 C4        120.8980    7.9970   18.7660 C.2       1 TPP700      0.0000 
     15 CM4       119.5620    8.4110   18.8150 C.3       1 TPP700      0.0000 
     16 C6        121.7850   10.2790   19.2680 C.3       1 TPP700      0.0000 
     17 C7        122.2270   11.3490   18.3280 C.3       1 TPP700      0.0000 
     18 O7        121.7720   12.6570   19.0060 O.3       1 TPP700      0.0000 
     19 PA        122.8180   13.6170   19.5310 P.3       1 TPP700      0.0000 
     20 O1A       122.0280   14.8300   19.5930 O.co2     1 TPP700      0.0000 
     21 O2A       123.2600   13.0370   20.8030 O.co2     1 TPP700      0.0000 
     22 O3A       124.0210   13.6910   18.4840 O.3       1 TPP700      0.0000 
     23 PB        124.1710   14.2440   16.9680 P.3       1 TPP700      0.0000 
     24 O1B       125.2370   15.1900   17.1130 O.co2     1 TPP700      0.0000 
     25 O2B       124.4740   13.0230   16.1200 O.co2     1 TPP700      0.0000 
     26 O3B       122.8100   14.7470   16.7010 O.co2     1 TPP700      0.0000 
     27 H         122.9996    5.4605   20.1205 H         1 TPP700      0.0000 
     28 H         123.4678    5.3613   21.8515 H         1 TPP700      0.0000 
     29 H         118.3542    5.3278   20.3922 H         1 TPP700      0.0000 
     30 H         119.6701    5.4223   18.4363 H         1 TPP700      0.0000 
     31 H         121.2219    4.5769   18.5678 H         1 TPP700      0.0000 
     32 H         123.3790    5.8952   18.3710 H         1 TPP700      0.0000 
     33 H         122.2503   10.5113   20.2958 H         1 TPP700      0.0000 
     34 H         120.6704   10.4604   19.4950 H         1 TPP700      0.0000 
     35 H         121.7337   11.2583   17.3893 H         1 TPP700      0.0000 
     36 H         123.2872   11.3600   18.2356 H         1 TPP700      0.0000 
     37 H         120.7957    5.1490   25.2494 H         1 TPP700      0.0000 
     38 H         119.3871    5.9184   25.1490 H         1 TPP700      0.0000 
     39 H         119.4338    4.3128   25.0698 H         1 TPP700      0.0000 
     40 H         119.4826    9.3856   19.0244 H         1 TPP700      0.0000 
     41 H         119.0940    8.2592   17.9444 H         1 TPP700      0.0000 
     42 H         119.0458    7.9178   19.5152 H         1 TPP700      0.0000 
@<TRIPOS>BOND
     1    2    1 ar   
     2    8    1 ar   
     3    3    2 1    
     4    4    2 ar   
     5   37    3 1    
     6   38    3 1    
     7   39    3 1    
     8    5    4 ar   
     9    6    5 1    
    10    7    5 ar   
    11   27    6 1    
    12   28    6 1    
    13    8    7 ar   
    14    9    7 1    
    15   29    8 1    
    16   10    9 1    
    17   30    9 1    
    18   31    9 1    
    19   11   10 2    
    20   14   10 1    
    21   12   11 1    
    22   32   11 1    
    23   13   12 1    
    24   14   13 2    
    25   16   13 1    
    26   15   14 1    
    27   40   15 1    
    28   41   15 1    
    29   42   15 1    
    30   17   16 1    
    31   33   16 1    
    32   34   16 1    
    33   18   17 1    
    34   35   17 1    
    35   36   17 1    
    36   19   18 1    
    37   20   19 ar   
    38   21   19 ar   
    39   22   19 1    
    40   23   22 1    
    41   24   23 ar   
    42   25   23 ar   
    43   26   23 ar   
@<TRIPOS>SUBSTRUCTURE
     1 TPP700      1 GROUP   
@<TRIPOS>SET

