#    Name: 4aoa_IK2_1_INTS_M
#    Modification time : Tue Mar 25 05:54:47 2014

@<TRIPOS>MOLECULE
4aoa_IK2_1_INTS_M
   69     0     9     0     0
SMALL
NO_CHARGES


@<TRIPOS>ATOM
      1 N          75.4385  103.0040   23.0135 N.am      1 SEC2        0.0000 
      2 N          75.7570  101.6450   23.1830 N.am      7 SEL2        0.0000 
      3 N          75.1200  104.3630   22.8440 N.am      4 SEP2        0.0000 
      4 CA         75.5940  101.9715   21.4590 C.3       3 GLC5        0.0000 
      5 CA         77.0700  101.4090   23.0520 C.3       9 GLL5        0.0000 
      6 CA         74.1180  102.5340   19.8660 C.3       6 GLP5        0.0000 
      7 CA         78.5485  104.2545   22.2320 C.3       3 GLC5        0.0000 
      8 CA         78.0650  102.5730   23.0910 C.3       9 GLL5        0.0000 
      9 CA         79.0320  105.9360   21.3730 C.3       6 GLP5        0.0000 
     10 CA         79.5045  101.8725   24.6525 C.3       3 GLC5        0.0000 
     11 CA         80.9440  101.1720   26.2140 C.3       6 GLP5        0.0000 
     12 CA         76.7175   97.8265   20.9635 C.3       3 GLC5        0.0000 
     13 CA         77.2810   97.6510   22.6440 C.3       9 GLL5        0.0000 
     14 CA         76.1540   98.0020   19.2830 C.3       6 GLP5        0.0000 
     15 N          77.8545   95.3900   23.7135 N.am      1 SEC2        0.0000 
     16 N          77.1640   95.3640   22.3280 N.am      7 SEL2        0.0000 
     17 N          78.5450   95.4160   25.0990 N.am      4 SEP2        0.0000 
     18 CA         76.4665   96.1505   20.3640 C.3       3 GLC5        0.0000 
     19 CA         76.7790   94.2990   21.4450 C.3       9 GLL5        0.0000 
     20 CA         76.2420   93.3895   19.8380 C.3       3 GLC5        0.0000 
     21 CA         75.7050   92.4800   18.2310 C.3       6 GLP5        0.0000 
     22 CA         74.9990   93.3525   21.5960 C.3       3 GLC5        0.0000 
     23 CA         73.2190   92.4060   21.7470 C.3       6 GLP5        0.0000 
     24 NZ         76.8425   90.6955   22.0360 N.4       2 LYC4        0.0000 
     25 NZ         76.6760   91.9330   21.5450 N.4       8 LYL4        0.0000 
     26 NZ         77.8070   89.2730   23.5740 N.4       5 LYP4        0.0000 
     27 N          76.8425   90.6955   22.0360 N.am      1 SEC2        0.0000 
     28 N          76.6760   91.9330   21.5450 N.am      7 SEL2        0.0000 
     29 N          77.0090   89.4580   22.5270 N.am      4 SEP2        0.0000 
     30 N          75.3460   92.0590   21.0460 N.am      1 SEC2        0.0000 
     31 N          74.0160   92.1850   20.5470 N.am      4 SEP2        0.0000 
     32 NZ         78.4490   91.6045   23.3430 N.4       2 LYC4        0.0000 
     33 NZ         78.2900   92.9550   22.7130 N.4       8 LYL4        0.0000 
     34 NZ         78.4175   94.1855   23.9060 N.4       2 LYC4        0.0000 
     35 NZ         78.5450   95.4160   25.0990 N.4       5 LYP4        0.0000 
     36 N          78.4490   91.6045   23.3430 N.am      1 SEC2        0.0000 
     37 N          78.2900   92.9550   22.7130 N.am      7 SEL2        0.0000 
     38 N          78.6080   90.2540   23.9730 N.am      4 SEP2        0.0000 
     39 CA         74.4940  101.5965   21.5110 C.3       3 GLC5        0.0000 
     40 CA         74.8700  100.6590   23.1560 C.3       9 GLL5        0.0000 
     41 CA         72.7925   98.8400   24.4600 C.3       3 GLC5        0.0000 
     42 CA         74.0920   98.3200   22.9780 C.3       9 GLL5        0.0000 
     43 CA         71.4930   99.3600   25.9420 C.3       6 GLP5        0.0000 
     44 CA         75.1230   98.1610   21.1305 C.3       3 GLC5        0.0000 
     45 N          71.0720   97.7210   23.6585 N.am      1 SEC2        0.0000 
     46 N          71.7850   96.4790   23.4850 N.am      7 SEL2        0.0000 
     47 N          70.3590   98.9630   23.8320 N.am      4 SEP2        0.0000 
     48 N          71.1825   96.9815   22.4285 N.am      1 SEC2        0.0000 
     49 N          70.5800   97.4840   21.3720 N.am      4 SEP2        0.0000 
     50 N          74.1815   93.7855   23.7025 N.am      1 SEC2        0.0000 
     51 N          74.0100   95.1820   23.5350 N.am      7 SEL2        0.0000 
     52 N          74.3530   92.3890   23.8700 N.am      4 SEP2        0.0000 
     53 N          74.9760   94.6655   24.4555 N.am      1 SEC2        0.0000 
     54 N          75.9420   94.1490   25.3760 N.am      4 SEP2        0.0000 
     55 N          71.9355   96.9565   26.0660 N.am      1 SEC2        0.0000 
     56 N          72.8480   95.8600   25.7350 N.am      7 SEL2        0.0000 
     57 N          71.0230   98.0530   26.3970 N.am      4 SEP2        0.0000 
     58 CA         76.6902  101.7930   24.8598 C.3       3 GLC5        0.0000 
     59 CA         75.8130  101.5950   26.6480 C.3       6 GLP5        0.0000 
     60 CA         76.5052   99.8255   24.7275 C.3       3 GLC5        0.0000 
     61 CA         77.5190  100.1030   22.8770 C.3       9 GLL5        0.0000 
     62 CA         75.9340  100.0840   26.5960 C.3       6 GLP5        0.0000 
     63 CA         77.5943   97.4705   24.3413 C.3       3 GLC5        0.0000 
     64 CA         76.6340   99.0310   22.8410 C.3       9 GLL5        0.0000 
     65 CA         78.2310   96.6000   25.9400 C.3       6 GLP5        0.0000 
     66 CA         73.6361   99.0877   21.3384 C.3       3 GLC5        0.0000 
     67 CA         75.2590   99.3230   22.9910 C.3       9 GLL5        0.0000 
     68 CA         72.6940   99.0200   19.6510 C.3       6 GLP5        0.0000 
     69 CA         75.2561   99.6197   24.8109 C.3       3 GLC5        0.0000 
@<TRIPOS>BOND
@<TRIPOS>SUBSTRUCTURE
     1 SEC2        1 GROUP        1 X    SEC  0     ROOT SEC X 2
     2 LYC4       24 GROUP        1 X    LYC  0     **** LYC X 4
     3 GLC5        4 GROUP        1 X    GLC  0     **** GLC X 6
     4 SEP2        3 GROUP        1 Y    SEP  0     ROOT SEP Y 9
     5 LYP4       26 GROUP        1 Y    LYP  0     **** LYP Y 11
     6 GLP5        6 GROUP        1 Y    GLP  0     **** GLP Y 13
     7 SEL2        2 GROUP        1 Z    SEL  0     ROOT SEL Z 16
     8 LYL4       25 GROUP        1 Z    LYL  0     **** LYL Z 18
     9 GLL5        5 GROUP        1 Z    GLL  0     **** GLL Z 20
@<TRIPOS>SET

