#    Name: 4aoa_IK2_1_ligand
#    Modification time : Tue Mar 25 05:54:47 2014

@<TRIPOS>MOLECULE
4aoa_IK2_1_ligand
   32    32     1     0     0
SMALL
NO_CHARGES


@<TRIPOS>ATOM
      1 N1         75.7570  101.6450   23.1830 N.ar      1 IK21435     0.0000 
      2 C2         77.0700  101.4090   23.0520 C.ar      1 IK21435     0.0000 
      3 C2A        78.0650  102.5730   23.0910 C.3       1 IK21435     0.0000 
      4 C3         77.5190  100.1030   22.8770 C.ar      1 IK21435     0.0000 
      5 O3         78.8500   99.8470   22.7320 O.3       1 IK21435     0.0000 
      6 C4         76.6340   99.0310   22.8410 C.ar      1 IK21435     0.0000 
      7 C4A        77.2810   97.6510   22.6440 C.3       1 IK21435     0.0000 
      8 N4A        76.3440   96.5690   22.4010 N.4       1 IK21435     0.0000 
      9 OX         77.1640   95.3640   22.3280 O.3       1 IK21435     0.0000 
     10 C1'        76.7790   94.2990   21.4450 C.3       1 IK21435     0.0000 
     11 C2'        77.2940   92.9460   21.9450 C.2       1 IK21435     0.0000 
     12 O1'        76.6760   91.9330   21.5450 O.co2     1 IK21435     0.0000 
     13 O2'        78.2900   92.9550   22.7130 O.co2     1 IK21435     0.0000 
     14 C5         75.2590   99.3230   22.9910 C.ar      1 IK21435     0.0000 
     15 C6         74.8700  100.6590   23.1560 C.ar      1 IK21435     0.0000 
     16 C5A        74.0920   98.3200   22.9780 C.3       1 IK21435     0.0000 
     17 O4P        73.9200   97.6740   24.2440 O.3       1 IK21435     0.0000 
     18 P          73.1430   96.2620   24.3370 P.3       1 IK21435     0.0000 
     19 O1P        71.7850   96.4790   23.4850 O.co2     1 IK21435     0.0000 
     20 O2P        74.0100   95.1820   23.5350 O.co2     1 IK21435     0.0000 
     21 O3P        72.8480   95.8600   25.7350 O.co2     1 IK21435     0.0000 
     22 H          77.8991   97.4417   23.5466 H         1 IK21435     0.0000 
     23 H          78.0060   97.7406   21.8032 H         1 IK21435     0.0000 
     24 H          77.1778   94.4532   20.4299 H         1 IK21435     0.0000 
     25 H          75.6836   94.2264   21.3550 H         1 IK21435     0.0000 
     26 H          73.8434  100.8510   23.2581 H         1 IK21435     0.0000 
     27 H          74.2952   97.5900   22.1739 H         1 IK21435     0.0000 
     28 H          73.1849   98.8754   22.6789 H         1 IK21435     0.0000 
     29 H          79.0080  102.2594   22.9792 H         1 IK21435     0.0000 
     30 H          77.8887  103.2368   22.3641 H         1 IK21435     0.0000 
     31 H          78.0220  103.0694   23.9580 H         1 IK21435     0.0000 
     32 H          79.1234  100.3540   21.9146 H         1 IK21435     0.0000 
@<TRIPOS>BOND
     1    2    1 ar   
     2   15    1 ar   
     3    3    2 1    
     4    4    2 ar   
     5   29    3 1    
     6   30    3 1    
     7   31    3 1    
     8    5    4 1    
     9    6    4 ar   
    10   32    5 1    
    11    7    6 1    
    12   14    6 ar   
    13    8    7 1    
    14   22    7 1    
    15   23    7 1    
    16    9    8 1    
    17   10    9 1    
    18   11   10 1    
    19   24   10 1    
    20   25   10 1    
    21   12   11 ar   
    22   13   11 ar   
    23   15   14 ar   
    24   16   14 1    
    25   26   15 1    
    26   17   16 1    
    27   27   16 1    
    28   28   16 1    
    29   18   17 1    
    30   19   18 ar   
    31   20   18 ar   
    32   21   18 ar   
@<TRIPOS>SUBSTRUCTURE
     1 IK21435     1 GROUP   
@<TRIPOS>SET

