#    Name: 4elb_34R_3_INTS_M
#    Modification time : Mon Mar 24 18:08:58 2014

@<TRIPOS>MOLECULE
4elb_34R_3_INTS_M
   87     0     9     0     0
SMALL
NO_CHARGES


@<TRIPOS>ATOM
      1 CA         14.0540  -30.5485   38.2015 C.3       3 GLC5        0.0000 
      2 CA         13.4740  -32.0090   39.7790 C.3       9 GLL5        0.0000 
      3 CA         14.6340  -29.0880   36.6240 C.3       6 GLP5        0.0000 
      4 CA         13.6670  -35.6680   42.8325 C.3       3 GLC5        0.0000 
      5 CA         12.4360  -34.2800   42.6610 C.3       9 GLL5        0.0000 
      6 CA         14.8980  -37.0560   43.0040 C.3       6 GLP5        0.0000 
      7 CA         14.3355  -33.2280   43.0765 C.3       3 GLC5        0.0000 
      8 CA         16.2350  -32.1760   43.4920 C.3       6 GLP5        0.0000 
      9 CA         13.3655  -37.3575   41.4760 C.3       3 GLC5        0.0000 
     10 CA         12.6190  -36.3800   40.1570 C.3       9 GLL5        0.0000 
     11 CA         14.1120  -38.3350   42.7950 C.3       6 GLP5        0.0000 
     12 CA         10.2405  -39.3045   41.6440 C.3       3 GLC5        0.0000 
     13 CA         11.1700  -38.2770   40.3880 C.3       9 GLL5        0.0000 
     14 CA          9.3110  -40.3320   42.9000 C.3       6 GLP5        0.0000 
     15 CA         12.6410  -38.3060   41.5915 C.3       3 GLC5        0.0000 
     16 CA          9.4020  -37.5980   39.9120 C.3       3 GLC5        0.0000 
     17 CA          7.6340  -36.9190   39.4360 C.3       6 GLP5        0.0000 
     18 CA         15.7095  -35.6010   36.9135 C.3       3 GLC5        0.0000 
     19 CA         15.4060  -37.2370   37.7390 C.3       9 GLL5        0.0000 
     20 CA         16.0130  -33.9650   36.0880 C.3       6 GLP5        0.0000 
     21 CA         18.9080  -37.9895   39.8875 C.3       3 GLC5        0.0000 
     22 CA         17.3980  -36.6640   39.2110 C.3       9 GLL5        0.0000 
     23 CA         20.4180  -39.3150   40.5640 C.3       6 GLP5        0.0000 
     24 CA         17.4605  -35.0400   40.4725 C.3       3 GLC5        0.0000 
     25 CA         17.5230  -33.4160   41.7340 C.3       6 GLP5        0.0000 
     26 N          19.6150  -36.0580   40.5075 N.am      2 SEC2        0.0000 
     27 N          18.7260  -36.4830   39.3560 N.am      8 SEL2        0.0000 
     28 N          20.5040  -35.6330   41.6590 N.am      5 SEP2        0.0000 
     29 CA         20.2165  -36.0405   36.4125 C.3       3 GLC5        0.0000 
     30 CA         19.5590  -36.6430   38.3270 C.3       9 GLL5        0.0000 
     31 CA         20.8740  -35.4380   34.4980 C.3       6 GLP5        0.0000 
     32 CA         20.0675  -38.2515   37.0850 C.3       3 GLC5        0.0000 
     33 CA         20.5760  -39.8600   35.8430 C.3       6 GLP5        0.0000 
     34 CA         19.9885  -37.9790   39.4455 C.3       3 GLC5        0.0000 
     35 CA         20.1780  -35.0550   38.2670 C.3       3 GLC5        0.0000 
     36 CA         20.7970  -33.4670   38.2070 C.3       6 GLP5        0.0000 
     37 O          20.7355  -36.0420   40.0780 O.2       1 ALC1        0.0000 
     38 O          20.9670  -36.4510   38.4970 O.2       7 ALL1        0.0000 
     39 O          20.5040  -35.6330   41.6590 O.2       4 ALP1        0.0000 
     40 O          21.7010  -36.2475   39.5970 O.2       1 ALC1        0.0000 
     41 O          22.4350  -36.0440   40.6970 O.2       4 ALP1        0.0000 
     42 CA         19.3300  -36.3100   35.6955 C.3       3 GLC5        0.0000 
     43 CA         17.7860  -37.1820   36.8930 C.3       9 GLL5        0.0000 
     44 CA         19.1810  -38.5210   36.3680 C.3       3 GLC5        0.0000 
     45 O          18.3755  -37.9580   34.7010 O.2       1 ALC1        0.0000 
     46 O          17.3510  -37.5510   35.5760 O.2       7 ALL1        0.0000 
     47 O          19.4000  -38.3650   33.8260 O.2       4 ALP1        0.0000 
     48 O          16.3025  -37.7025   34.5885 O.2       1 ALC1        0.0000 
     49 O          15.2540  -37.8540   33.6010 O.2       4 ALP1        0.0000 
     50 CA         19.9355  -28.1780   41.8450 C.3       3 GLC5        0.0000 
     51 CA         17.9140  -28.0030   41.5820 C.3       9 GLL5        0.0000 
     52 CA         21.9570  -28.3530   42.1080 C.3       6 GLP5        0.0000 
     53 CA         19.0865  -27.3890   40.1065 C.3       3 GLC5        0.0000 
     54 CA         20.2590  -26.7750   38.6310 C.3       6 GLP5        0.0000 
     55 CA         19.7915  -27.1565   43.5075 C.3       3 GLC5        0.0000 
     56 CA         18.0650  -27.3070   42.7660 C.3       9 GLL5        0.0000 
     57 CA         21.5180  -27.0060   44.2490 C.3       6 GLP5        0.0000 
     58 CA         16.9715  -29.6920   42.2700 C.3       3 GLC5        0.0000 
     59 CA         15.5520  -28.1480   41.9560 C.3       9 GLL5        0.0000 
     60 CA         18.3910  -31.2360   42.5840 C.3       6 GLP5        0.0000 
     61 CA         12.2375  -26.5875   37.2975 C.3       3 GLC5        0.0000 
     62 CA         11.5870  -26.8850   39.4220 C.3       9 GLL5        0.0000 
     63 CA         12.8880  -26.2900   35.1730 C.3       6 GLP5        0.0000 
     64 CA         13.4815  -28.4790   38.3405 C.3       3 GLC5        0.0000 
     65 CA         12.3290  -27.8700   40.0570 C.3       9 GLL5        0.0000 
     66 CA         12.8517  -32.7040   38.5790 C.3       3 GLC5        0.0000 
     67 CA         11.8040  -32.8980   37.1780 C.3       6 GLP5        0.0000 
     68 CA         13.1113  -33.8433   38.2995 C.3       3 GLC5        0.0000 
     69 CA         14.0120  -34.4380   39.8620 C.3       9 GLL5        0.0000 
     70 CA         11.6822  -34.5032   39.1578 C.3       3 GLC5        0.0000 
     71 CA         12.9120  -35.0510   40.4520 C.3       9 GLL5        0.0000 
     72 CA         10.5990  -33.2910   38.0110 C.3       6 GLP5        0.0000 
     73 CA         14.4258  -38.0320   40.4265 C.3       3 GLC5        0.0000 
     74 CA         13.4350  -37.0830   39.2720 C.3       9 GLL5        0.0000 
     75 CA         14.8640  -39.2890   41.8720 C.3       6 GLP5        0.0000 
     76 CA         14.5207  -35.9989   41.2862 C.3       3 GLC5        0.0000 
     77 CA         14.8250  -35.1390   38.9800 C.3       9 GLL5        0.0000 
     78 CA         16.0099  -33.9239   40.6174 C.3       3 GLC5        0.0000 
     79 CA         18.0321  -29.4980   42.3297 C.3       3 GLC5        0.0000 
     80 CA         16.6490  -28.4230   41.1880 C.3       9 GLL5        0.0000 
     81 CA          9.8030  -26.0685   38.9607 C.3       3 GLC5        0.0000 
     82 CA         11.9390  -25.5530   39.5790 C.3       9 GLL5        0.0000 
     83 CA          7.8430  -25.9180   38.4210 C.3       6 GLP5        0.0000 
     84 CA         11.1340  -29.1113   39.1527 C.3       3 GLC5        0.0000 
     85 CA         10.3100  -30.8450   38.5660 C.3       6 GLP5        0.0000 
     86 CA         12.6664  -25.0832   38.2716 C.3       3 GLC5        0.0000 
     87 CA         13.2970  -24.0350   36.8460 C.3       6 GLP5        0.0000 
@<TRIPOS>BOND
@<TRIPOS>SUBSTRUCTURE
     1 ALC1       37 GROUP        1 X    ALC  0     ROOT ALC X 1
     2 SEC2       26 GROUP        1 X    SEC  0     **** SEC X 2
     3 GLC5        1 GROUP        1 X    GLC  0     **** GLC X 6
     4 ALP1       39 GROUP        1 Y    ALP  0     ROOT ALP Y 8
     5 SEP2       28 GROUP        1 Y    SEP  0     **** SEP Y 9
     6 GLP5        3 GROUP        1 Y    GLP  0     **** GLP Y 13
     7 ALL1       38 GROUP        1 Z    ALL  0     ROOT ALL Z 15
     8 SEL2       27 GROUP        1 Z    SEL  0     **** SEL Z 16
     9 GLL5        2 GROUP        1 Z    GLL  0     **** GLL Z 20
@<TRIPOS>SET

