#    Name: 4elb_34R_3_ligand
#    Modification time : Mon Mar 24 18:08:58 2014

@<TRIPOS>MOLECULE
4elb_34R_3_ligand
   67    71     1     0     0
SMALL
NO_CHARGES


@<TRIPOS>ATOM
      1 O30        12.3990  -30.7090   41.4290 O.2       1 34R203      0.0000 
      2 C16        13.3440  -30.8080   40.6650 C.2       1 34R203      0.0000 
      3 C15        13.4740  -32.0090   39.7790 C.2       1 34R203      0.0000 
      4 C14        14.3250  -33.0110   40.1810 C.2       1 34R203      0.0000 
      5 C13        14.0120  -34.4380   39.8620 C.ar      1 34R203      0.0000 
      6 C10        12.9120  -35.0510   40.4520 C.ar      1 34R203      0.0000 
      7 O11        12.1200  -34.3360   41.3160 O.3       1 34R203      0.0000 
      8 C12        12.4360  -34.2800   42.6610 C.3       1 34R203      0.0000 
      9 C07        12.6190  -36.3800   40.1570 C.ar      1 34R203      0.0000 
     10 O08        11.5260  -36.9850   40.7330 O.3       1 34R203      0.0000 
     11 C09        11.1700  -38.2770   40.3880 C.3       1 34R203      0.0000 
     12 C06        13.4350  -37.0830   39.2720 C.ar      1 34R203      0.0000 
     13 C05        14.5400  -36.4670   38.6900 C.ar      1 34R203      0.0000 
     14 C04        15.4060  -37.2370   37.7390 C.3       1 34R203      0.0000 
     15 C03        16.8770  -37.0210   37.9570 C.ar      1 34R203      0.0000 
     16 C32        17.3980  -36.6640   39.2110 C.ar      1 34R203      0.0000 
     17 N33        18.7260  -36.4830   39.3560 N.ar      1 34R203      0.0000 
     18 C34        19.5590  -36.6430   38.3270 C.ar      1 34R203      0.0000 
     19 N35        20.9670  -36.4510   38.4970 N.pl3     1 34R203      0.0000 
     20 N36        19.0950  -36.9840   37.1250 N.ar      1 34R203      0.0000 
     21 C02        17.7860  -37.1820   36.8930 C.ar      1 34R203      0.0000 
     22 N01        17.3510  -37.5510   35.5760 N.pl3     1 34R203      0.0000 
     23 C31        14.8250  -35.1390   38.9800 C.ar      1 34R203      0.0000 
     24 N17        14.3430  -29.7790   40.6250 N.am      1 34R203      0.0000 
     25 N18        15.4150  -29.8890   39.7650 N.2       1 34R203      0.0000 
     26 C19        16.4840  -29.1600   39.9410 C.2       1 34R203      0.0000 
     27 C22        16.6490  -28.4230   41.1880 C.ar      1 34R203      0.0000 
     28 C40        17.9140  -28.0030   41.5820 C.ar      1 34R203      0.0000 
     29 C38        18.0650  -27.3070   42.7660 C.ar      1 34R203      0.0000 
     30 C37        16.9660  -27.0320   43.5460 C.ar      1 34R203      0.0000 
     31 C23        15.7080  -27.4510   43.1540 C.ar      1 34R203      0.0000 
     32 C21        15.5520  -28.1480   41.9560 C.ar      1 34R203      0.0000 
     33 C20        14.2010  -28.6150   41.5160 C.3       1 34R203      0.0000 
     34 C24        13.4190  -27.5250   40.8430 C.ar      1 34R203      0.0000 
     35 C25        13.7720  -26.1910   41.0010 C.ar      1 34R203      0.0000 
     36 C26        13.0300  -25.2030   40.3660 C.ar      1 34R203      0.0000 
     37 C27        11.9390  -25.5530   39.5790 C.ar      1 34R203      0.0000 
     38 C28        11.5870  -26.8850   39.4220 C.ar      1 34R203      0.0000 
     39 C29        12.3290  -27.8700   40.0570 C.ar      1 34R203      0.0000 
     40 H          12.9370  -32.0265   38.9378 H         1 34R203      0.0000 
     41 H          15.1822  -32.8362   40.6988 H         1 34R203      0.0000 
     42 H          13.2185  -38.0651   39.0473 H         1 34R203      0.0000 
     43 H          15.1487  -36.9537   36.7009 H         1 34R203      0.0000 
     44 H          15.1809  -38.3162   37.8334 H         1 34R203      0.0000 
     45 H          16.7466  -36.5468   40.0021 H         1 34R203      0.0000 
     46 H          21.5251  -36.5327   37.6713 H         1 34R203      0.0000 
     47 H          21.2747  -36.2513   39.4273 H         1 34R203      0.0000 
     48 H          16.4482  -37.2198   35.3019 H         1 34R203      0.0000 
     49 H          17.9872  -38.1085   35.0426 H         1 34R203      0.0000 
     50 H          15.6321  -34.6776   38.5450 H         1 34R203      0.0000 
     51 H          17.2403  -29.0616   39.2503 H         1 34R203      0.0000 
     52 H          18.7301  -28.2108   40.9934 H         1 34R203      0.0000 
     53 H          19.0029  -26.9949   43.0625 H         1 34R203      0.0000 
     54 H          17.0779  -26.5088   44.4317 H         1 34R203      0.0000 
     55 H          14.8874  -27.2523   43.7394 H         1 34R203      0.0000 
     56 H          13.6441  -28.9312   42.4100 H         1 34R203      0.0000 
     57 H          14.5775  -25.9361   41.5843 H         1 34R203      0.0000 
     58 H          13.2872  -24.2139   40.4778 H         1 34R203      0.0000 
     59 H          11.3893  -24.8170   39.1100 H         1 34R203      0.0000 
     60 H          10.7814  -27.1411   38.8388 H         1 34R203      0.0000 
     61 H          12.0699  -28.8613   39.9447 H         1 34R203      0.0000 
     62 H          13.3390  -33.8785   42.8139 H         1 34R203      0.0000 
     63 H          11.7790  -33.7278   43.1742 H         1 34R203      0.0000 
     64 H          12.4447  -35.1886   43.0786 H         1 34R203      0.0000 
     65 H          11.9011  -38.9295   40.5873 H         1 34R203      0.0000 
     66 H          10.3591  -38.5843   40.8860 H         1 34R203      0.0000 
     67 H          10.9631  -38.3574   39.4129 H         1 34R203      0.0000 
@<TRIPOS>BOND
     1    2    1 2    
     2    3    2 1    
     3   24    2 am   
     4    4    3 2    
     5   40    3 1    
     6    5    4 1    
     7   41    4 1    
     8    6    5 ar   
     9   23    5 ar   
    10    7    6 1    
    11    9    6 ar   
    12    8    7 1    
    13   62    8 1    
    14   63    8 1    
    15   64    8 1    
    16   10    9 1    
    17   12    9 ar   
    18   11   10 1    
    19   65   11 1    
    20   66   11 1    
    21   67   11 1    
    22   13   12 ar   
    23   42   12 1    
    24   14   13 1    
    25   23   13 ar   
    26   15   14 1    
    27   43   14 1    
    28   44   14 1    
    29   16   15 ar   
    30   21   15 ar   
    31   17   16 ar   
    32   45   16 1    
    33   18   17 ar   
    34   19   18 1    
    35   20   18 ar   
    36   46   19 1    
    37   47   19 1    
    38   21   20 ar   
    39   22   21 1    
    40   48   22 1    
    41   49   22 1    
    42   50   23 1    
    43   25   24 1    
    44   33   24 1    
    45   26   25 2    
    46   27   26 1    
    47   51   26 1    
    48   28   27 ar   
    49   32   27 ar   
    50   29   28 ar   
    51   52   28 1    
    52   30   29 ar   
    53   53   29 1    
    54   31   30 ar   
    55   54   30 1    
    56   32   31 ar   
    57   55   31 1    
    58   33   32 1    
    59   34   33 1    
    60   56   33 1    
    61   35   34 ar   
    62   39   34 ar   
    63   36   35 ar   
    64   57   35 1    
    65   37   36 ar   
    66   58   36 1    
    67   38   37 ar   
    68   59   37 1    
    69   39   38 ar   
    70   60   38 1    
    71   61   39 1    
@<TRIPOS>SUBSTRUCTURE
     1 34R203      1 GROUP   
@<TRIPOS>SET

