#    Name: 2bzn_IMP_4_INTS_M
#    Modification time : Mon Mar 24 22:00:08 2014

@<TRIPOS>MOLECULE
2bzn_IMP_4_INTS_M
   50     0     9     0     0
SMALL
NO_CHARGES


@<TRIPOS>ATOM
      1 N          -2.0245   22.9845  -16.6205 N.am      2 SEC2        0.0000 
      2 N          -0.9440   22.4860  -15.7870 N.am      8 SEL2        0.0000 
      3 N          -3.1050   23.4830  -17.4540 N.am      5 SEP2        0.0000 
      4 N          -2.3855   21.5745  -16.0330 N.am      2 SEC2        0.0000 
      5 N          -3.8270   20.6630  -16.2790 N.am      5 SEP2        0.0000 
      6 N          -1.0825   18.8865  -15.9780 N.am      2 SEC2        0.0000 
      7 N          -1.0600   20.0780  -16.5860 N.am      8 SEL2        0.0000 
      8 N          -1.1050   17.6950  -15.3700 N.am      5 SEP2        0.0000 
      9 N          -2.4435   20.3705  -16.4325 N.am      2 SEC2        0.0000 
     10 N           1.2430   19.5570  -15.2770 N.am      2 SEC2        0.0000 
     11 N           0.7650   20.8830  -15.0950 N.am      8 SEL2        0.0000 
     12 N           1.7210   18.2310  -15.4590 N.am      5 SEP2        0.0000 
     13 N           1.7505   21.8345  -14.6065 N.am      2 SEC2        0.0000 
     14 N           2.7360   22.7860  -14.1180 N.am      5 SEP2        0.0000 
     15 CA         -1.7860   22.1895  -18.3830 C.3       3 GLC5        0.0000 
     16 CA          0.1740   22.0600  -18.6860 C.3       9 GLL5        0.0000 
     17 CA         -3.7460   22.3190  -18.0800 C.3       6 GLP5        0.0000 
     18 CA         -1.0125   23.5690  -21.2435 C.3       3 GLC5        0.0000 
     19 CA          0.8470   22.6210  -21.0790 C.3       9 GLL5        0.0000 
     20 CA         -2.8720   24.5170  -21.4080 C.3       6 GLP5        0.0000 
     21 O           0.7340   24.2915  -22.4105 O.2       1 ALC1        0.0000 
     22 O           0.5890   24.0070  -21.0990 O.2       7 ALL1        0.0000 
     23 O           0.8790   24.5760  -23.7220 O.2       4 ALP1        0.0000 
     24 O           2.4710   24.3480  -20.7915 O.2       1 ALC1        0.0000 
     25 O           3.0930   23.1570  -21.8170 O.2       7 ALL1        0.0000 
     26 O           1.8490   25.5390  -19.7660 O.2       4 ALP1        0.0000 
     27 O           3.1420   24.4480  -21.6685 O.2       1 ALC1        0.0000 
     28 O           3.1910   25.7390  -21.5200 O.2       4 ALP1        0.0000 
     29 N           0.8065   17.2485  -24.1740 N.am      2 SEC2        0.0000 
     30 N           1.4780   18.2340  -23.2720 N.am      8 SEL2        0.0000 
     31 N           0.1350   16.2630  -25.0760 N.am      5 SEP2        0.0000 
     32 CA          1.3510   16.4175  -22.9655 C.3       3 GLC5        0.0000 
     33 CA          2.6990   17.8110  -22.9320 C.3       9 GLL5        0.0000 
     34 CA          0.0030   15.0240  -22.9990 C.3       6 GLP5        0.0000 
     35 N           2.5580   15.4480  -25.1775 N.am      2 SEC2        0.0000 
     36 N           2.9540   15.6920  -23.7830 N.am      8 SEL2        0.0000 
     37 N           2.1620   15.2040  -26.5720 N.am      5 SEP2        0.0000 
     38 N           4.0000   15.1295  -24.7615 N.am      2 SEC2        0.0000 
     39 N           5.0460   14.5670  -25.7400 N.am      5 SEP2        0.0000 
     40 O           5.3270   15.3745  -22.6345 O.2       1 ALC1        0.0000 
     41 O           4.7120   16.5460  -22.7680 O.2       7 ALL1        0.0000 
     42 O           5.9420   14.2030  -22.5010 O.2       4 ALP1        0.0000 
     43 CA          4.2285   17.7860  -20.4900 C.3       3 GLC5        0.0000 
     44 CA          3.2360   18.7640  -22.1040 C.3       9 GLL5        0.0000 
     45 CA          5.2210   16.8080  -18.8760 C.3       6 GLP5        0.0000 
     46 CA          1.8017   23.0330  -17.7058 C.3       3 GLC5        0.0000 
     47 CA          2.8750   23.9500  -16.2250 C.3       6 GLP5        0.0000 
     48 CA         -0.7241   21.2467  -20.7564 C.3       3 GLC5        0.0000 
     49 CA          1.2830   22.1720  -19.6870 C.3       9 GLL5        0.0000 
     50 CA         -2.2360   20.1250  -21.3800 C.3       6 GLP5        0.0000 
@<TRIPOS>BOND
@<TRIPOS>SUBSTRUCTURE
     1 ALC1       21 GROUP        1 X    ALC  0     ROOT ALC X 1
     2 SEC2        1 GROUP        1 X    SEC  0     **** SEC X 2
     3 GLC5       15 GROUP        1 X    GLC  0     **** GLC X 6
     4 ALP1       23 GROUP        1 Y    ALP  0     ROOT ALP Y 8
     5 SEP2        3 GROUP        1 Y    SEP  0     **** SEP Y 9
     6 GLP5       17 GROUP        1 Y    GLP  0     **** GLP Y 13
     7 ALL1       22 GROUP        1 Z    ALL  0     ROOT ALL Z 15
     8 SEL2        2 GROUP        1 Z    SEL  0     **** SEL Z 16
     9 GLL5       16 GROUP        1 Z    GLL  0     **** GLL Z 20
@<TRIPOS>SET

