#    Name: 2bzn_IMP_4_ligand
#    Modification time : Mon Mar 24 22:00:08 2014

@<TRIPOS>MOLECULE
2bzn_IMP_4_ligand
   34    36     1     0     0
SMALL
NO_CHARGES


@<TRIPOS>ATOM
      1 P          -0.1810   21.2660  -16.2380 P.3       1 IMP1338     0.0000 
      2 O1P        -0.9440   22.4860  -15.7870 O.co2     1 IMP1338     0.0000 
      3 O2P        -1.0600   20.0780  -16.5860 O.co2     1 IMP1338     0.0000 
      4 O3P         0.7650   20.8830  -15.0950 O.co2     1 IMP1338     0.0000 
      5 O5'         0.7540   21.5750  -17.5010 O.3       1 IMP1338     0.0000 
      6 C5'         0.1740   22.0600  -18.6860 C.3       1 IMP1338     0.0000 
      7 C4'         1.2830   22.1720  -19.6870 C.3       1 IMP1338     0.0000 
      8 O4'         1.8900   20.9230  -19.8730 O.3       1 IMP1338     0.0000 
      9 C3'         0.8470   22.6210  -21.0790 C.3       1 IMP1338     0.0000 
     10 O3'         0.5890   24.0070  -21.0990 O.3       1 IMP1338     0.0000 
     11 C2'         2.0600   22.1910  -21.8810 C.3       1 IMP1338     0.0000 
     12 O2'         3.0930   23.1570  -21.8170 O.3       1 IMP1338     0.0000 
     13 C1'         2.5410   20.9510  -21.1270 C.3       1 IMP1338     0.0000 
     14 N9          2.3160   19.7380  -21.9340 N.pl3     1 IMP1338     0.0000 
     15 C8          1.2260   19.3940  -22.6730 C.2       1 IMP1338     0.0000 
     16 N7          1.4780   18.2340  -23.2720 N.2       1 IMP1338     0.0000 
     17 C5          2.6990   17.8110  -22.9320 C.2       1 IMP1338     0.0000 
     18 C6          3.4490   16.6800  -23.2620 C.2       1 IMP1338     0.0000 
     19 O6          2.9540   15.6920  -23.7830 O.2       1 IMP1338     0.0000 
     20 N1          4.7120   16.5460  -22.7680 N.am      1 IMP1338     0.0000 
     21 C2          5.2410   17.5140  -21.9380 C.2       1 IMP1338     0.0000 
     22 N3          4.4710   18.6270  -21.6110 N.2       1 IMP1338     0.0000 
     23 C4          3.2360   18.7640  -22.1040 C.2       1 IMP1338     0.0000 
     24 H          -0.2708   23.0449  -18.5535 H         1 IMP1338     0.0000 
     25 H          -0.5804   21.3823  -19.0825 H         1 IMP1338     0.0000 
     26 H           2.0196   22.8921  -19.3310 H         1 IMP1338     0.0000 
     27 H           0.0286   22.0042  -21.3600 H         1 IMP1338     0.0000 
     28 H           1.7741   21.9084  -22.8391 H         1 IMP1338     0.0000 
     29 H           3.6252   21.0877  -20.9867 H         1 IMP1338     0.0000 
     30 H           0.4157   19.9165  -22.7390 H         1 IMP1338     0.0000 
     31 H           5.2841   15.7168  -23.0118 H         1 IMP1338     0.0000 
     32 H           6.1904   17.4193  -21.5635 H         1 IMP1338     0.0000 
     33 H           0.2825   24.1997  -22.0312 H         1 IMP1338     0.0000 
     34 H           2.6237   24.0285  -21.6746 H         1 IMP1338     0.0000 
@<TRIPOS>BOND
     1    2    1 ar   
     2    3    1 ar   
     3    4    1 ar   
     4    5    1 1    
     5    6    5 1    
     6    7    6 1    
     7   24    6 1    
     8   25    6 1    
     9    8    7 1    
    10    9    7 1    
    11   26    7 1    
    12   13    8 1    
    13   10    9 1    
    14   11    9 1    
    15   27    9 1    
    16   33   10 1    
    17   12   11 1    
    18   13   11 1    
    19   28   11 1    
    20   34   12 1    
    21   14   13 1    
    22   29   13 1    
    23   15   14 1    
    24   23   14 1    
    25   16   15 2    
    26   30   15 1    
    27   17   16 1    
    28   18   17 1    
    29   23   17 2    
    30   19   18 2    
    31   20   18 am   
    32   21   20 1    
    33   31   20 1    
    34   22   21 2    
    35   32   21 1    
    36   23   22 1    
@<TRIPOS>SUBSTRUCTURE
     1 IMP1338     1 GROUP   
@<TRIPOS>SET

