#    Name: 4h98_14Q_1_INTS_M
#    Modification time : Tue Mar 25 00:44:03 2014

@<TRIPOS>MOLECULE
4h98_14Q_1_INTS_M
   99     0     9     0     0
SMALL
NO_CHARGES


@<TRIPOS>ATOM
      1 CA         12.3250   -9.7750   -7.7690 C.3       3 GLC5        0.0000 
      2 CA         13.7790   -9.5270   -6.5960 C.3       9 GLL5        0.0000 
      3 CA         10.8710  -10.0230   -8.9420 C.3       6 GLP5        0.0000 
      4 CA         13.3365  -11.0390   -5.4005 C.3       3 GLC5        0.0000 
      5 CA         12.8940  -12.5510   -4.2050 C.3       6 GLP5        0.0000 
      6 CA         14.8665   -6.9200   -6.9725 C.3       3 GLC5        0.0000 
      7 CA         14.6700   -8.5380   -5.8450 C.3       9 GLL5        0.0000 
      8 CA         15.0630   -5.3020   -8.1000 C.3       6 GLP5        0.0000 
      9 CA         14.0695  -10.8470   -4.3790 C.3       3 GLC5        0.0000 
     10 CA         15.2450   -9.1430   -4.5530 C.3       9 GLL5        0.0000 
     11 N          16.4030  -10.7140   -5.9150 N.am      2 SEC2        0.0000 
     12 N          16.0940  -10.2640   -4.6820 N.am      8 SEL2        0.0000 
     13 N          16.7120  -11.1640   -7.1480 N.am      5 SEP2        0.0000 
     14 CA         16.4880  -12.0495   -1.7350 C.3       3 GLC5        0.0000 
     15 CA         16.6640  -10.8760   -3.5520 C.3       9 GLL5        0.0000 
     16 CA         16.3120  -13.2230    0.0820 C.3       6 GLP5        0.0000 
     17 CA         18.1415  -10.4700   -2.2275 C.3       3 GLC5        0.0000 
     18 CA         19.6190  -10.0640   -0.9030 C.3       6 GLP5        0.0000 
     19 CA         18.1515  -10.4800   -4.6130 C.3       3 GLC5        0.0000 
     20 CA         19.6390  -10.0840   -5.6740 C.3       6 GLP5        0.0000 
     21 CA         14.7790  -11.7135   -3.8785 C.3       3 GLC5        0.0000 
     22 O          18.9735  -11.8765   -3.0060 O.2       1 ALC1        0.0000 
     23 O          17.4610  -11.9340   -3.6900 O.2       7 ALL1        0.0000 
     24 O          20.4860  -11.8190   -2.3220 O.2       4 ALP1        0.0000 
     25 O          17.4430  -12.4815   -4.9635 O.2       1 ALC1        0.0000 
     26 O          17.4250  -13.0290   -6.2370 O.2       4 ALP1        0.0000 
     27 CA         15.3380  -10.3705   -0.3130 C.3       3 GLC5        0.0000 
     28 CA         15.5500   -9.2500   -2.1400 C.3       9 GLL5        0.0000 
     29 CA         15.1260  -11.4910    1.5140 C.3       6 GLP5        0.0000 
     30 CA         17.5845   -9.6570   -1.5215 C.3       3 GLC5        0.0000 
     31 O          16.4090   -9.2220   -0.0100 O.2       1 ALC1        0.0000 
     32 O          15.2970   -8.7770   -0.9200 O.2       7 ALL1        0.0000 
     33 O          17.5210   -9.6670    0.9000 O.2       4 ALP1        0.0000 
     34 CA         13.1170   -3.6465   -1.6790 C.3       3 GLC5        0.0000 
     35 CA         12.5200   -5.3800   -2.7400 C.3       9 GLL5        0.0000 
     36 CA         13.7140   -1.9130   -0.6180 C.3       6 GLP5        0.0000 
     37 CA         10.8615   -4.0895   -2.2720 C.3       3 GLC5        0.0000 
     38 CA          9.2030   -2.7990   -1.8040 C.3       6 GLP5        0.0000 
     39 CA         14.5190   -4.6515   -2.1855 C.3       3 GLC5        0.0000 
     40 CA         16.5180   -3.9230   -1.6310 C.3       6 GLP5        0.0000 
     41 CA         13.2880   -2.6965   -2.4855 C.3       3 GLC5        0.0000 
     42 CA         12.8620   -3.4800   -4.3530 C.3       9 GLL5        0.0000 
     43 CA         14.3075   -3.4965   -6.6310 C.3       3 GLC5        0.0000 
     44 CA         12.5520   -2.7800   -5.5190 C.3       9 GLL5        0.0000 
     45 CA         16.0630   -4.2130   -7.7430 C.3       6 GLP5        0.0000 
     46 N          13.0405   -0.4430   -5.3215 N.am      2 SEC2        0.0000 
     47 N          13.2350   -1.6400   -5.8490 N.am      8 SEL2        0.0000 
     48 N          12.8460    0.7540   -4.7940 N.am      5 SEP2        0.0000 
     49 CA         15.6180   -0.3730   -6.9040 C.3       3 GLC5        0.0000 
     50 CA         14.6530   -1.7090   -5.5900 C.3       9 GLL5        0.0000 
     51 CA         16.5830    0.9630   -8.2180 C.3       6 GLP5        0.0000 
     52 CA         15.3580   -2.9610   -6.6665 C.3       3 GLC5        0.0000 
     53 CA         13.5540    0.1490   -5.4565 C.3       3 GLC5        0.0000 
     54 CA         12.4550    2.0070   -5.3230 C.3       6 GLP5        0.0000 
     55 CA         16.2600   -1.0920   -4.8130 C.3       3 GLC5        0.0000 
     56 CA         17.8670   -0.4750   -4.0360 C.3       6 GLP5        0.0000 
     57 CA         13.2935   -4.2720   -7.2250 C.3       3 GLC5        0.0000 
     58 CA         11.5240   -3.2420   -6.3500 C.3       9 GLL5        0.0000 
     59 CA          7.2770   -3.7390   -9.8640 C.3       3 GLC5        0.0000 
     60 CA          7.2370   -5.4630  -10.6000 C.3       9 GLL5        0.0000 
     61 CA          7.3170   -2.0150   -9.1280 C.3       6 GLP5        0.0000 
     62 CA          5.4950   -5.1285  -10.0480 C.3       3 GLC5        0.0000 
     63 CA          3.7530   -4.7940   -9.4960 C.3       6 GLP5        0.0000 
     64 CA          7.6040   -6.0365   -4.4580 C.3       3 GLC5        0.0000 
     65 CA          8.6230   -5.4090   -6.2800 C.3       9 GLL5        0.0000 
     66 CA          6.5850   -6.6640   -2.6360 C.3       6 GLP5        0.0000 
     67 CA         12.5265   -8.3240   -2.2680 C.3       3 GLC5        0.0000 
     68 CA         13.3940   -6.5410   -2.9530 C.3       9 GLL5        0.0000 
     69 CA         11.2930   -9.6230   -1.5110 C.3       6 GLP5        0.0000 
     70 CA         15.4035   -6.0645   -2.5890 C.3       3 GLC5        0.0000 
     71 CA         14.1260   -7.5090   -3.0970 C.3       9 GLL5        0.0000 
     72 CA         17.0470   -5.1040   -2.1530 C.3       6 GLP5        0.0000 
     73 CA         12.1665   -5.7878   -0.9708 C.3       3 GLC5        0.0000 
     74 CA         11.3760   -5.6150    0.9050 C.3       6 GLP5        0.0000 
     75 CA         10.5620   -3.5485   -3.8122 C.3       3 GLC5        0.0000 
     76 CA         12.1630   -4.6380   -4.0260 C.3       9 GLL5        0.0000 
     77 CA          9.4730   -2.2290   -3.1830 C.3       6 GLP5        0.0000 
     78 CA         10.5405   -6.6282   -6.1075 C.3       3 GLC5        0.0000 
     79 CA         11.1390   -5.0980   -4.8570 C.3       9 GLL5        0.0000 
     80 CA         10.1050   -8.5040   -6.7710 C.3       6 GLP5        0.0000 
     81 CA         11.0900   -2.6795   -4.0595 C.3       3 GLC5        0.0000 
     82 CA         10.3208   -3.0267   -4.6867 C.3       3 GLC5        0.0000 
     83 CA          9.5957   -2.8137   -7.0017 C.3       3 GLC5        0.0000 
     84 CA         10.8130   -4.4070   -6.0310 C.3       9 GLL5        0.0000 
     85 CA          8.0230   -1.8030   -7.8130 C.3       6 GLP5        0.0000 
     86 CA          9.9630   -6.6712   -7.1635 C.3       3 GLC5        0.0000 
     87 CA          9.7780   -4.8720   -6.8580 C.3       9 GLL5        0.0000 
     88 CA          8.9220   -3.3207   -7.6845 C.3       3 GLC5        0.0000 
     89 CA          9.1720   -7.0213   -7.7640 C.3       3 GLC5        0.0000 
     90 CA          8.8120   -5.2690   -9.0530 C.3       9 GLL5        0.0000 
     91 CA          7.7780   -3.7768   -8.9425 C.3       3 GLC5        0.0000 
     92 CA          7.6660   -5.8080   -8.4610 C.3       9 GLL5        0.0000 
     93 CA          5.7223   -5.4980   -7.3838 C.3       3 GLC5        0.0000 
     94 CA          3.8240   -5.1540   -7.0010 C.3       6 GLP5        0.0000 
     95 CA          9.1020   -7.0732   -6.7235 C.3       3 GLC5        0.0000 
     96 CA          7.5750   -5.8760   -7.0720 C.3       9 GLL5        0.0000 
     97 CA          7.8444   -4.1611   -5.5578 C.3       3 GLC5        0.0000 
     98 CA          7.3010   -2.8140   -4.2950 C.3       6 GLP5        0.0000 
     99 CA          8.0610   -3.7228   -7.2445 C.3       3 GLC5        0.0000 
@<TRIPOS>BOND
@<TRIPOS>SUBSTRUCTURE
     1 ALC1       22 GROUP        1 X    ALC  0     ROOT ALC X 1
     2 SEC2       11 GROUP        1 X    SEC  0     **** SEC X 2
     3 GLC5        1 GROUP        1 X    GLC  0     **** GLC X 6
     4 ALP1       24 GROUP        1 Y    ALP  0     ROOT ALP Y 8
     5 SEP2       13 GROUP        1 Y    SEP  0     **** SEP Y 9
     6 GLP5        3 GROUP        1 Y    GLP  0     **** GLP Y 13
     7 ALL1       23 GROUP        1 Z    ALL  0     ROOT ALL Z 15
     8 SEL2       12 GROUP        1 Z    SEL  0     **** SEL Z 16
     9 GLL5        2 GROUP        1 Z    GLL  0     **** GLL Z 20
@<TRIPOS>SET

