#    Name: 4h98_14Q_1_ligand
#    Modification time : Tue Mar 25 00:44:03 2014

@<TRIPOS>MOLECULE
4h98_14Q_1_ligand
   52    55     1     0     0
SMALL
NO_CHARGES


@<TRIPOS>ATOM
      1 CAY        13.7790   -9.5270   -6.5960 C.3       1 14Q302      0.0000 
      2 CAH        14.6700   -8.5380   -5.8450 C.3       1 14Q302      0.0000 
      3 C4         15.2450   -9.1430   -4.5530 C.ar      1 14Q302      0.0000 
      4 N3         16.0940  -10.2640   -4.6820 N.ar      1 14Q302      0.0000 
      5 C2         16.6640  -10.8760   -3.5520 C.ar      1 14Q302      0.0000 
      6 NAG        17.4610  -11.9340   -3.6900 N.pl3     1 14Q302      0.0000 
      7 N1         16.3890  -10.3660   -2.2760 N.ar      1 14Q302      0.0000 
      8 C6         15.5500   -9.2500   -2.1400 C.ar      1 14Q302      0.0000 
      9 NAI        15.2970   -8.7770   -0.9200 N.pl3     1 14Q302      0.0000 
     10 C5         14.9830   -8.6460   -3.2710 C.ar      1 14Q302      0.0000 
     11 CAJ        14.1260   -7.5090   -3.0970 C.1       1 14Q302      0.0000 
     12 CAK        13.3940   -6.5410   -2.9530 C.1       1 14Q302      0.0000 
     13 CAL        12.5200   -5.3800   -2.7400 C.3       1 14Q302      0.0000 
     14 CAM        12.1630   -4.6380   -4.0260 C.ar      1 14Q302      0.0000 
     15 CAR        11.1390   -5.0980   -4.8570 C.ar      1 14Q302      0.0000 
     16 CAN        12.8620   -3.4800   -4.3530 C.ar      1 14Q302      0.0000 
     17 CAO        12.5520   -2.7800   -5.5190 C.ar      1 14Q302      0.0000 
     18 OAZ        13.2350   -1.6400   -5.8490 O.3       1 14Q302      0.0000 
     19 CBA        14.6530   -1.7090   -5.5900 C.3       1 14Q302      0.0000 
     20 CAP        11.5240   -3.2420   -6.3500 C.ar      1 14Q302      0.0000 
     21 CAQ        10.8130   -4.4070   -6.0310 C.ar      1 14Q302      0.0000 
     22 CAS         9.7780   -4.8720   -6.8580 C.ar      1 14Q302      0.0000 
     23 CAX         9.8640   -4.8050   -8.2540 C.ar      1 14Q302      0.0000 
     24 CAW         8.8120   -5.2690   -9.0530 C.ar      1 14Q302      0.0000 
     25 OBB         8.6530   -5.3160  -10.4060 O.3       1 14Q302      0.0000 
     26 CBC         7.2370   -5.4630  -10.6000 C.3       1 14Q302      0.0000 
     27 OBD         6.8000   -6.1890   -9.4420 O.3       1 14Q302      0.0000 
     28 CAV         7.6660   -5.8080   -8.4610 C.ar      1 14Q302      0.0000 
     29 CAU         7.5750   -5.8760   -7.0720 C.ar      1 14Q302      0.0000 
     30 CAT         8.6230   -5.4090   -6.2800 C.ar      1 14Q302      0.0000 
     31 H          14.0877   -7.6486   -5.5908 H         1 14Q302      0.0000 
     32 H          15.4968   -8.2338   -6.4919 H         1 14Q302      0.0000 
     33 H          17.2802  -12.5211   -4.4791 H         1 14Q302      0.0000 
     34 H          18.1684  -12.0461   -2.9921 H         1 14Q302      0.0000 
     35 H          16.0920   -8.4885   -0.3863 H         1 14Q302      0.0000 
     36 H          14.3350   -8.7532   -0.6481 H         1 14Q302      0.0000 
     37 H          13.0002   -4.6584   -2.0503 H         1 14Q302      0.0000 
     38 H          11.5762   -5.6934   -2.2521 H         1 14Q302      0.0000 
     39 H          10.6196   -5.9500   -4.6067 H         1 14Q302      0.0000 
     40 H          13.6093   -3.1382   -3.7344 H         1 14Q302      0.0000 
     41 H          11.2871   -2.7199   -7.2060 H         1 14Q302      0.0000 
     42 H          10.7056   -4.4123   -8.6954 H         1 14Q302      0.0000 
     43 H           7.0313   -6.0226  -11.5035 H         1 14Q302      0.0000 
     44 H           6.7556   -4.4947  -10.6496 H         1 14Q302      0.0000 
     45 H           6.7350   -6.2706   -6.6310 H         1 14Q302      0.0000 
     46 H           8.5473   -5.4594   -5.2509 H         1 14Q302      0.0000 
     47 H          14.2788  -10.3528   -6.8572 H         1 14Q302      0.0000 
     48 H          12.9993   -9.8191   -6.0421 H         1 14Q302      0.0000 
     49 H          13.4094   -9.1300   -7.4361 H         1 14Q302      0.0000 
     50 H          15.0898   -2.4444   -6.1081 H         1 14Q302      0.0000 
     51 H          15.1177   -0.8592   -5.8386 H         1 14Q302      0.0000 
     52 H          14.8462   -1.8767   -4.6233 H         1 14Q302      0.0000 
@<TRIPOS>BOND
     1    2    1 1    
     2   47    1 1    
     3   48    1 1    
     4   49    1 1    
     5    3    2 1    
     6   31    2 1    
     7   32    2 1    
     8    4    3 ar   
     9   10    3 ar   
    10    5    4 ar   
    11    6    5 1    
    12    7    5 ar   
    13   33    6 1    
    14   34    6 1    
    15    8    7 ar   
    16    9    8 1    
    17   10    8 ar   
    18   35    9 1    
    19   36    9 1    
    20   11   10 1    
    21   12   11 3    
    22   13   12 1    
    23   14   13 1    
    24   37   13 1    
    25   38   13 1    
    26   15   14 ar   
    27   16   14 ar   
    28   21   15 ar   
    29   39   15 1    
    30   17   16 ar   
    31   40   16 1    
    32   18   17 1    
    33   20   17 ar   
    34   19   18 1    
    35   50   19 1    
    36   51   19 1    
    37   52   19 1    
    38   21   20 ar   
    39   41   20 1    
    40   22   21 1    
    41   23   22 ar   
    42   30   22 ar   
    43   24   23 ar   
    44   42   23 1    
    45   25   24 1    
    46   28   24 ar   
    47   26   25 1    
    48   27   26 1    
    49   43   26 1    
    50   44   26 1    
    51   28   27 1    
    52   29   28 ar   
    53   30   29 ar   
    54   45   29 1    
    55   46   30 1    
@<TRIPOS>SUBSTRUCTURE
     1 14Q302      1 GROUP   
@<TRIPOS>SET

