#    Name: 3qpw_ADP_2_INTS_M
#    Modification time : Tue Mar 25 10:00:39 2014

@<TRIPOS>MOLECULE
3qpw_ADP_2_INTS_M
   82     0    12     0     0
SMALL
NO_CHARGES


@<TRIPOS>ATOM
      1 NZ         -5.3660   49.1750    4.8175 N.4       3 LYC4        0.0000 
      2 NZ         -6.5680   48.6860    5.3800 N.4      11 LYL4        0.0000 
      3 NZ         -4.1640   49.6640    4.2550 N.4       7 LYP4        0.0000 
      4 N          -6.3240   47.7065    6.4995 N.am      2 SEC2        0.0000 
      5 N          -6.5680   48.6860    5.3800 N.am     10 SEL2        0.0000 
      6 N          -6.0800   46.7270    7.6190 N.am      6 SEP2        0.0000 
      7 N          -7.2490   49.8170    6.1560 N.am      2 SEC2        0.0000 
      8 N          -7.9300   50.9480    6.9320 N.am      6 SEP2        0.0000 
      9 N          -5.3660   49.1750    4.8175 N.am      2 SEC2        0.0000 
     10 N          -4.1640   49.6640    4.2550 N.am      6 SEP2        0.0000 
     11 N          -8.8885   50.7600    4.2375 N.am      2 SEC2        0.0000 
     12 N          -8.2010   49.5970    3.6620 N.am     10 SEL2        0.0000 
     13 N          -9.5760   51.9230    4.8130 N.am      6 SEP2        0.0000 
     14 N          -9.0985   50.4200    2.8210 N.am      2 SEC2        0.0000 
     15 N          -9.9960   51.2430    1.9800 N.am      6 SEP2        0.0000 
     16 NZ         -8.3295   46.5225    2.8735 N.4       3 LYC4        0.0000 
     17 NZ         -7.2570   47.1830    3.5710 N.4      11 LYL4        0.0000 
     18 NZ         -9.4020   45.8620    2.1760 N.4       7 LYP4        0.0000 
     19 N          -6.5715   46.3085    4.3580 N.am      2 SEC2        0.0000 
     20 N          -7.2570   47.1830    3.5710 N.am     10 SEL2        0.0000 
     21 N          -5.8860   45.4340    5.1450 N.am      6 SEP2        0.0000 
     22 N          -8.3295   46.5225    2.8735 N.am      2 SEC2        0.0000 
     23 N          -9.4020   45.8620    2.1760 N.am      6 SEP2        0.0000 
     24 N         -11.4735   50.5095    5.9035 N.am      2 SEC2        0.0000 
     25 N         -10.7850   49.3000    5.8560 N.am     10 SEL2        0.0000 
     26 N         -12.1620   51.7190    5.9510 N.am      6 SEP2        0.0000 
     27 NZ        -10.1915   46.6615    3.1060 N.4       3 LYC4        0.0000 
     28 NZ        -10.9810   47.4610    4.0360 N.4      11 LYL4        0.0000 
     29 N         -10.1915   46.6615    3.1060 N.am      2 SEC2        0.0000 
     30 N         -10.9810   47.4610    4.0360 N.am     10 SEL2        0.0000 
     31 N          -8.4020   48.1850    6.8710 N.am      2 SEC2        0.0000 
     32 N          -8.8000   47.8080    5.4080 N.am     10 SEL2        0.0000 
     33 N          -8.0040   48.5620    8.3340 N.am      6 SEP2        0.0000 
     34 CA        -13.0605   47.9935    5.6445 C.3       4 GLC5        0.0000 
     35 CA        -12.0720   46.8840    7.0180 C.3      12 GLL5        0.0000 
     36 CA        -14.0490   49.1030    4.2710 C.3       8 GLP5        0.0000 
     37 CA        -11.0600   44.7620    8.6275 C.3       4 GLC5        0.0000 
     38 CA        -12.0900   46.4260    8.4580 C.3      12 GLL5        0.0000 
     39 CA        -10.0300   43.0980    8.7970 C.3       8 GLP5        0.0000 
     40 CA        -14.2550   45.8605    7.3050 C.3       4 GLC5        0.0000 
     41 CA        -13.4380   46.5130    9.1900 C.3      12 GLL5        0.0000 
     42 CA        -15.0720   45.2080    5.4200 C.3       8 GLP5        0.0000 
     43 N         -13.6405   44.1155   10.4520 N.am      2 SEC2        0.0000 
     44 N         -13.8500   45.1860    9.4880 N.am     10 SEL2        0.0000 
     45 N         -13.4310   43.0450   11.4160 N.am      6 SEP2        0.0000 
     46 CA        -13.2070   48.1740   12.5295 C.3       4 GLC5        0.0000 
     47 CA        -13.1830   47.1690   10.5430 C.3      12 GLL5        0.0000 
     48 CA        -13.2310   49.1790   14.5160 C.3       8 GLP5        0.0000 
     49 CA        -10.3625   48.3045    9.6080 C.3       4 GLC5        0.0000 
     50 CA        -11.6630   47.0900   10.6280 C.3      12 GLL5        0.0000 
     51 CA         -9.0620   49.5190    8.5880 C.3       8 GLP5        0.0000 
     52 CA         -9.8740   48.7245   14.4435 C.3       4 GLC5        0.0000 
     53 CA         -9.5850   49.4470   12.4820 C.3      12 GLL5        0.0000 
     54 CA        -10.1630   48.0020   16.4050 C.3       8 GLP5        0.0000 
     55 CA         -8.1370   49.3375   15.1670 C.3       4 GLC5        0.0000 
     56 CA         -8.3090   49.6500   13.1820 C.3      12 GLL5        0.0000 
     57 CA         -7.9650   49.0250   17.1520 C.3       8 GLP5        0.0000 
     58 O          -6.5300   50.5575   14.1985 O.2       1 ALC1        0.0000 
     59 O          -7.9880   50.8440   13.7550 O.2       9 ALL1        0.0000 
     60 O          -5.0720   50.2710   14.6420 O.2       5 ALP1        0.0000 
     61 CA         -6.8090   47.4230   10.7620 C.3       4 GLC5        0.0000 
     62 CA         -7.7770   47.3920   12.6680 C.3      12 GLL5        0.0000 
     63 CA         -5.8410   47.4540    8.8560 C.3       8 GLP5        0.0000 
     64 CA         -5.9100   46.7170   13.0985 C.3       4 GLC5        0.0000 
     65 CA         -4.0430   46.0420   13.5290 C.3       8 GLP5        0.0000 
     66 CA         -8.0425   45.5820   13.3225 C.3       4 GLC5        0.0000 
     67 CA         -8.3080   43.7720   13.9770 C.3       8 GLP5        0.0000 
     68 CA         -7.9935   46.9690   14.6000 C.3       4 GLC5        0.0000 
     69 CA         -8.2100   46.5460   16.5320 C.3       8 GLP5        0.0000 
     70 N          -8.9295   45.9055   11.1665 N.am      2 SEC2        0.0000 
     71 N          -8.9170   47.1320   12.0350 N.am     10 SEL2        0.0000 
     72 N          -8.9420   44.6790   10.2980 N.am      6 SEP2        0.0000 
     73 CA        -10.5715   48.0870    8.1630 C.3       4 GLC5        0.0000 
     74 CA        -12.5585   48.7190    7.8640 C.3       4 GLC5        0.0000 
     75 CA        -13.0360   50.7830    7.9900 C.3       8 GLP5        0.0000 
     76 CA        -12.4030   45.5805    6.1785 C.3       4 GLC5        0.0000 
     77 CA        -12.7250   44.5060    4.6190 C.3       8 GLP5        0.0000 
     78 CA        -14.2052   48.4160    9.5442 C.3       4 GLC5        0.0000 
     79 CA        -15.1000   49.9910    9.2220 C.3       8 GLP5        0.0000 
     80 CA         -9.3863   49.1490   10.3912 C.3       4 GLC5        0.0000 
     81 CA         -9.8360   48.1110   11.9070 C.3      12 GLL5        0.0000 
     82 CA        -11.4708   48.9790   13.3552 C.3       4 GLC5        0.0000 
@<TRIPOS>BOND
@<TRIPOS>SUBSTRUCTURE
     1 ALC1       58 GROUP        1 X    ALC  0     ROOT ALC X 1
     2 SEC2        4 GROUP        1 X    SEC  0     **** SEC X 2
     3 LYC4        1 GROUP        1 X    LYC  0     **** LYC X 4
     4 GLC5       34 GROUP        1 X    GLC  0     **** GLC X 6
     5 ALP1       60 GROUP        1 Y    ALP  0     ROOT ALP Y 8
     6 SEP2        6 GROUP        1 Y    SEP  0     **** SEP Y 9
     7 LYP4        3 GROUP        1 Y    LYP  0     **** LYP Y 11
     8 GLP5       36 GROUP        1 Y    GLP  0     **** GLP Y 13
     9 ALL1       59 GROUP        1 Z    ALL  0     ROOT ALL Z 15
    10 SEL2        5 GROUP        1 Z    SEL  0     **** SEL Z 16
    11 LYL4        2 GROUP        1 Z    LYL  0     **** LYL Z 18
    12 GLL5       35 GROUP        1 Z    GLL  0     **** GLL Z 20
@<TRIPOS>SET

