#    Name: 3qpw_ADP_2_ligand
#    Modification time : Tue Mar 25 10:00:39 2014

@<TRIPOS>MOLECULE
3qpw_ADP_2_ligand
   39    41     1     0     0
SMALL
NO_CHARGES


@<TRIPOS>ATOM
      1 PB         -7.6820   48.3770    4.4150 P.3       1 ADP800      0.0000 
      2 O1B        -6.5680   48.6860    5.3800 O.co2     1 ADP800      0.0000 
      3 O2B        -8.2010   49.5970    3.6620 O.co2     1 ADP800      0.0000 
      4 O3B        -7.2570   47.1830    3.5710 O.co2     1 ADP800      0.0000 
      5 PA        -10.3930   47.9390    5.3460 P.3       1 ADP800      0.0000 
      6 O1A       -10.7850   49.3000    5.8560 O.co2     1 ADP800      0.0000 
      7 O2A       -10.9810   47.4610    4.0360 O.co2     1 ADP800      0.0000 
      8 O3A        -8.8000   47.8080    5.4080 O.3       1 ADP800      0.0000 
      9 O5'       -10.7290   46.9270    6.5170 O.3       1 ADP800      0.0000 
     10 C5'       -12.0720   46.8840    7.0180 C.3       1 ADP800      0.0000 
     11 C4'       -12.0900   46.4260    8.4580 C.3       1 ADP800      0.0000 
     12 O4'       -11.2040   47.1910    9.2700 O.3       1 ADP800      0.0000 
     13 C3'       -13.4380   46.5130    9.1900 C.3       1 ADP800      0.0000 
     14 O3'       -13.8500   45.1860    9.4880 O.3       1 ADP800      0.0000 
     15 C2'       -13.1830   47.1690   10.5430 C.3       1 ADP800      0.0000 
     16 O2'       -13.7220   46.3720   11.6000 O.3       1 ADP800      0.0000 
     17 C1'       -11.6630   47.0900   10.6280 C.3       1 ADP800      0.0000 
     18 N9        -11.0320   48.1880   11.3520 N.pl3     1 ADP800      0.0000 
     19 C8        -11.5320   49.4310   11.5320 C.2       1 ADP800      0.0000 
     20 N7        -10.6660   50.1830   12.2510 N.2       1 ADP800      0.0000 
     21 C5         -9.5850   49.4470   12.4820 C.ar      1 ADP800      0.0000 
     22 C6         -8.3090   49.6500   13.1820 C.ar      1 ADP800      0.0000 
     23 N6         -7.9880   50.8440   13.7550 N.pl3     1 ADP800      0.0000 
     24 N1         -7.4760   48.5790   13.2130 N.ar      1 ADP800      0.0000 
     25 C2         -7.7770   47.3920   12.6680 C.ar      1 ADP800      0.0000 
     26 N3         -8.9170   47.1320   12.0350 N.ar      1 ADP800      0.0000 
     27 C4         -9.8360   48.1110   11.9070 C.ar      1 ADP800      0.0000 
     28 H         -12.6953   46.1926    6.4303 H         1 ADP800      0.0000 
     29 H         -12.5489   47.8749    6.9672 H         1 ADP800      0.0000 
     30 H         -11.7798   45.3699    8.5048 H         1 ADP800      0.0000 
     31 H         -14.1168   47.0571    8.6451 H         1 ADP800      0.0000 
     32 H         -13.4765   48.1517   10.5247 H         1 ADP800      0.0000 
     33 H         -11.3847   46.1429   11.0305 H         1 ADP800      0.0000 
     34 H         -12.3924   49.7421   11.1932 H         1 ADP800      0.0000 
     35 H          -8.6654   51.5735   13.6608 H         1 ADP800      0.0000 
     36 H          -7.1033   50.8855   14.2193 H         1 ADP800      0.0000 
     37 H          -7.0500   46.6057   12.7500 H         1 ADP800      0.0000 
     38 H         -14.0276   45.1851   10.4721 H         1 ADP800      0.0000 
     39 H         -13.1418   46.5650   12.3912 H         1 ADP800      0.0000 
@<TRIPOS>BOND
     1    2    1 ar   
     2    3    1 ar   
     3    4    1 ar   
     4    8    1 1    
     5    6    5 ar   
     6    7    5 ar   
     7    8    5 1    
     8    9    5 1    
     9   10    9 1    
    10   11   10 1    
    11   28   10 1    
    12   29   10 1    
    13   12   11 1    
    14   13   11 1    
    15   30   11 1    
    16   17   12 1    
    17   14   13 1    
    18   15   13 1    
    19   31   13 1    
    20   38   14 1    
    21   16   15 1    
    22   17   15 1    
    23   32   15 1    
    24   39   16 1    
    25   18   17 1    
    26   33   17 1    
    27   19   18 1    
    28   27   18 1    
    29   20   19 2    
    30   34   19 1    
    31   21   20 1    
    32   22   21 ar   
    33   27   21 ar   
    34   23   22 1    
    35   24   22 ar   
    36   35   23 1    
    37   36   23 1    
    38   25   24 ar   
    39   26   25 ar   
    40   37   25 1    
    41   27   26 ar   
@<TRIPOS>SUBSTRUCTURE
     1 ADP800      1 GROUP   
@<TRIPOS>SET

