#    Name: 2wd4_TBV_1_INTS_M
#    Modification time : Tue Mar 25 04:05:33 2014

@<TRIPOS>MOLECULE
2wd4_TBV_1_INTS_M
  128     0     6     0     0
SMALL
NO_CHARGES


@<TRIPOS>ATOM
      1 CA         12.0380   56.8730   20.9715 C.3       2 GLC5        0.0000 
      2 CA         13.5410   57.6440   20.3480 C.3       6 GLL5        0.0000 
      3 CA         10.5350   56.1020   21.5950 C.3       4 GLP5        0.0000 
      4 CA         10.9520   54.8955   14.9995 C.3       2 GLC5        0.0000 
      5 CA         12.7380   55.0770   16.2710 C.3       6 GLL5        0.0000 
      6 CA          9.1660   54.7140   13.7280 C.3       4 GLP5        0.0000 
      7 CA         18.6655   54.5285   23.0090 C.3       2 GLC5        0.0000 
      8 CA         16.9970   54.4320   21.5500 C.3       6 GLL5        0.0000 
      9 CA         20.3340   54.6250   24.4680 C.3       4 GLP5        0.0000 
     10 CA         18.3110   56.2120   21.2760 C.3       2 GLC5        0.0000 
     11 CA         19.6250   57.9920   21.0020 C.3       4 GLP5        0.0000 
     12 CA          9.7840   59.5390   19.5795 C.3       2 GLC5        0.0000 
     13 CA         11.3640   59.3190   18.8030 C.3       6 GLL5        0.0000 
     14 CA          8.2040   59.7590   20.3560 C.3       4 GLP5        0.0000 
     15 CA         10.9495   57.7105   20.1990 C.3       2 GLC5        0.0000 
     16 CA         10.6465   60.5260   19.9060 C.3       2 GLC5        0.0000 
     17 CA         12.2430   60.5100   18.4600 C.3       6 GLL5        0.0000 
     18 CA          9.0500   60.5420   21.3520 C.3       4 GLP5        0.0000 
     19 N          11.5615   63.0260   21.0665 N.am      1 SEC2        0.0000 
     20 N          12.0140   62.3280   19.9610 N.am      5 SEL2        0.0000 
     21 N          11.1090   63.7240   22.1720 N.am      3 SEP2        0.0000 
     22 N           9.5630   62.4315   19.5395 N.am      1 SEC2        0.0000 
     23 N          10.4170   62.0350   18.4840 N.am      5 SEL2        0.0000 
     24 N           8.7090   62.8280   20.5950 N.am      3 SEP2        0.0000 
     25 N          10.2815   62.7450   17.1660 N.am      1 SEC2        0.0000 
     26 N          10.1460   63.4550   15.8480 N.am      3 SEP2        0.0000 
     27 N           9.6645   61.4315   17.5280 N.am      1 SEC2        0.0000 
     28 N           8.9120   60.8280   16.5720 N.am      3 SEP2        0.0000 
     29 CA          9.9780   56.1415   14.8725 C.3       2 GLC5        0.0000 
     30 CA         10.7900   57.5690   16.0170 C.3       6 GLL5        0.0000 
     31 CA         10.2745   59.3040   15.7390 C.3       2 GLC5        0.0000 
     32 CA          9.7590   61.0390   15.4610 C.3       4 GLP5        0.0000 
     33 CA          8.6360   57.9475   15.6295 C.3       2 GLC5        0.0000 
     34 CA          6.4820   58.3260   15.2420 C.3       4 GLP5        0.0000 
     35 CA         14.2535   52.3545   13.3370 C.3       2 GLC5        0.0000 
     36 CA         12.6140   52.7130   14.1140 C.3       6 GLL5        0.0000 
     37 CA         15.8930   51.9960   12.5600 C.3       4 GLP5        0.0000 
     38 CA         10.9600   53.1620   13.4000 C.3       2 GLC5        0.0000 
     39 CA          9.3060   53.6110   12.6860 C.3       4 GLP5        0.0000 
     40 CA         11.0300   51.3085   14.2260 C.3       2 GLC5        0.0000 
     41 CA          9.4460   49.9040   14.3380 C.3       4 GLP5        0.0000 
     42 CA         15.1425   51.1420   14.0635 C.3       2 GLC5        0.0000 
     43 CA         14.3920   50.2880   15.5670 C.3       6 GLL5        0.0000 
     44 CA         20.2620   52.5530   18.8135 C.3       2 GLC5        0.0000 
     45 CA         19.1680   50.8700   18.4770 C.3       6 GLL5        0.0000 
     46 CA         21.3560   54.2360   19.1500 C.3       4 GLP5        0.0000 
     47 CA         19.0335   49.5000   16.9480 C.3       2 GLC5        0.0000 
     48 CA         18.8990   48.1300   15.4190 C.3       4 GLP5        0.0000 
     49 CA         19.0630   49.0400   19.2365 C.3       2 GLC5        0.0000 
     50 CA         18.9580   47.2100   19.9960 C.3       4 GLP5        0.0000 
     51 CA         21.1845   50.7620   18.6715 C.3       2 GLC5        0.0000 
     52 CA         23.2010   50.6540   18.8660 C.3       4 GLP5        0.0000 
     53 CA         19.7085   53.4120   23.0375 C.3       2 GLC5        0.0000 
     54 CA         19.0830   52.1990   21.6070 C.3       6 GLL5        0.0000 
     55 CA         20.5910   52.4295   23.0560 C.3       2 GLC5        0.0000 
     56 CA         19.5250   50.9870   21.8580 C.3       6 GLL5        0.0000 
     57 CA         21.6570   53.8720   24.2540 C.3       4 GLP5        0.0000 
     58 CA         20.3580   49.3390   21.4615 C.3       2 GLC5        0.0000 
     59 CA         21.1910   47.6910   21.0650 C.3       4 GLP5        0.0000 
     60 CA         19.6660   49.6710   23.3550 C.3       2 GLC5        0.0000 
     61 CA         19.8070   48.3550   24.8520 C.3       4 GLP5        0.0000 
     62 CA         17.1045   57.5630   25.4720 C.3       2 GLC5        0.0000 
     63 CA         16.6420   56.2050   24.1600 C.3       6 GLL5        0.0000 
     64 CA         17.5670   58.9210   26.7840 C.3       4 GLP5        0.0000 
     65 CA         18.0155   55.0105   24.7530 C.3       2 GLC5        0.0000 
     66 CA         19.3890   53.8160   25.3460 C.3       4 GLP5        0.0000 
     67 CA         16.6395   55.6605   26.1285 C.3       2 GLC5        0.0000 
     68 CA         16.6370   55.1160   28.0970 C.3       4 GLP5        0.0000 
     69 CA         13.5550   58.2980   25.1705 C.3       2 GLC5        0.0000 
     70 CA         14.2700   58.3860   23.3540 C.3       6 GLL5        0.0000 
     71 CA         12.8400   58.2100   26.9870 C.3       4 GLP5        0.0000 
     72 CA         12.4495   57.3560   23.1675 C.3       2 GLC5        0.0000 
     73 CA         10.6290   56.3260   22.9810 C.3       4 GLP5        0.0000 
     74 CA         16.7730   60.6830   23.6775 C.3       2 GLC5        0.0000 
     75 CA         14.8830   59.7290   22.9960 C.3       6 GLL5        0.0000 
     76 CA         18.6630   61.6370   24.3590 C.3       4 GLP5        0.0000 
     77 CA         15.7680   59.8940   21.2645 C.3       2 GLC5        0.0000 
     78 CA         16.6530   60.0590   19.5330 C.3       4 GLP5        0.0000 
     79 CA         17.0305   53.4970   13.5270 C.3       2 GLC5        0.0000 
     80 CA         17.0610   54.2080   15.1580 C.3       6 GLL5        0.0000 
     81 CA         17.0000   52.7860   11.8960 C.3       4 GLP5        0.0000 
     82 N          12.5605   59.7865   25.1805 N.am      1 SEC2        0.0000 
     83 N          13.8060   60.5250   24.9920 N.am      5 SEL2        0.0000 
     84 N          11.3150   59.0480   25.3690 N.am      3 SEP2        0.0000 
     85 CA         20.2260   54.0990   17.8390 C.3       2 GLC5        0.0000 
     86 CA         19.0960   53.9620   16.5280 C.3       6 GLL5        0.0000 
     87 CA         16.8865   52.6095   14.2725 C.3       2 GLC5        0.0000 
     88 CA         17.8800   53.2230   15.9850 C.3       6 GLL5        0.0000 
     89 CA         17.7035   52.4355   13.5075 C.3       2 GLC5        0.0000 
     90 CA         18.4070   52.0850   15.1190 C.3       6 GLL5        0.0000 
     91 CA         18.0155   50.3615   15.1575 C.3       2 GLC5        0.0000 
     92 CA         17.6240   48.6380   15.1960 C.3       4 GLP5        0.0000 
     93 CA         19.7365   50.9715   13.8365 C.3       2 GLC5        0.0000 
     94 CA         21.0660   49.8580   12.5540 C.3       4 GLP5        0.0000 
     95 CA         15.3422   58.6688   20.1367 C.3       2 GLC5        0.0000 
     96 CA         14.5220   56.9130   21.1330 C.3       6 GLL5        0.0000 
     97 CA         13.3020   55.5268   20.6157 C.3       2 GLC5        0.0000 
     98 CA         13.2940   53.5900   21.5470 C.3       4 GLP5        0.0000 
     99 CA         15.2222   53.8118   21.2518 C.3       2 GLC5        0.0000 
    100 CA         17.3040   53.6350   20.3630 C.3       6 GLL5        0.0000 
    101 CA         10.2390   55.7172   17.0602 C.3       2 GLC5        0.0000 
    102 CA         11.7540   57.2740   17.1420 C.3       6 GLL5        0.0000 
    103 CA          9.2060   54.0130   17.5410 C.3       4 GLP5        0.0000 
    104 CA         10.7812   60.4768   17.0463 C.3       2 GLC5        0.0000 
    105 CA         11.1230   54.3510   17.0793 C.3       2 GLC5        0.0000 
    106 CA         12.7060   56.1510   17.2730 C.3       6 GLL5        0.0000 
    107 CA         14.7942   52.0815   14.1640 C.3       2 GLC5        0.0000 
    108 CA         13.3050   52.6970   15.4440 C.3       6 GLL5        0.0000 
    109 CA         13.6878   48.6755   14.5815 C.3       2 GLC5        0.0000 
    110 CA         13.0190   47.5780   13.1840 C.3       4 GLP5        0.0000 
    111 CA         15.5962   48.9405   15.0795 C.3       2 GLC5        0.0000 
    112 CA         14.3210   49.2580   16.3910 C.3       6 GLL5        0.0000 
    113 CA         16.8360   48.1080   14.1800 C.3       4 GLP5        0.0000 
    114 CA         19.5918   53.3325   18.9262 C.3       2 GLC5        0.0000 
    115 CA         17.3210   52.8620   18.3670 C.3       6 GLL5        0.0000 
    116 CA         19.8994   53.4420   20.0718 C.3       2 GLC5        0.0000 
    117 CA         18.3010   52.5590   20.3970 C.3       6 GLL5        0.0000 
    118 CA         17.9035   51.1390   23.2368 C.3       2 GLC5        0.0000 
    119 CA         16.5030   50.6850   24.7410 C.3       4 GLP5        0.0000 
    120 CA         16.9040   57.7600   21.6654 C.3       2 GLC5        0.0000 
    121 CA         16.0360   55.5300   21.6430 C.3       6 GLL5        0.0000 
    122 CA         18.3900   58.9050   20.9470 C.3       4 GLP5        0.0000 
    123 CA         15.3212   59.1123   25.0870 C.3       2 GLC5        0.0000 
    124 CA         16.0660   59.1670   26.9990 C.3       4 GLP5        0.0000 
    125 CA         18.7356   55.4849   16.2494 C.3       2 GLC5        0.0000 
    126 CA         19.1880   57.1310   16.4490 C.3       4 GLP5        0.0000 
    127 CA         14.3129   55.0545   21.7927 C.3       2 GLC5        0.0000 
    128 CA         15.9020   56.3360   22.8640 C.3       6 GLL5        0.0000 
@<TRIPOS>BOND
@<TRIPOS>SUBSTRUCTURE
     1 SEC2       19 GROUP        1 X    SEC  0     ROOT SEC X 2
     2 GLC5        1 GROUP        1 X    GLC  0     **** GLC X 6
     3 SEP2       21 GROUP        1 Y    SEP  0     ROOT SEP Y 9
     4 GLP5        3 GROUP        1 Y    GLP  0     **** GLP Y 13
     5 SEL2       20 GROUP        1 Z    SEL  0     ROOT SEL Z 16
     6 GLL5        2 GROUP        1 Z    GLL  0     **** GLL Z 20
@<TRIPOS>SET

