#    Name: 2wd4_TBV_1_ligand
#    Modification time : Tue Mar 25 04:05:33 2014

@<TRIPOS>MOLECULE
2wd4_TBV_1_ligand
   83    86     1     0     0
SMALL
NO_CHARGES


@<TRIPOS>ATOM
      1 CHA        13.5410   57.6440   20.3480 C.3       1 TBV1253     0.0000 
      2 CHB        12.7380   55.0770   16.2710 C.2       1 TBV1253     0.0000 
      3 CHD        16.9970   54.4320   21.5500 C.3       1 TBV1253     0.0000 
      4 NA         13.4280   56.1300   18.4170 N.pl3     1 TBV1253     0.0000 
      5 C1A        13.0790   57.2830   19.0210 C.2       1 TBV1253     0.0000 
      6 C2A        12.0020   58.0360   18.3630 C.2       1 TBV1253     0.0000 
      7 C3A        11.7540   57.2740   17.1420 C.2       1 TBV1253     0.0000 
      8 C4A        12.7060   56.1510   17.2730 C.2       1 TBV1253     0.0000 
      9 CAA        11.3640   59.3190   18.8030 C.3       1 TBV1253     0.0000 
     10 CBA        12.2430   60.5100   18.4600 C.3       1 TBV1253     0.0000 
     11 CGA        11.5140   61.7110   18.9990 C.2       1 TBV1253     0.0000 
     12 O1A        12.0140   62.3280   19.9610 O.co2     1 TBV1253     0.0000 
     13 O2A        10.4170   62.0350   18.4840 O.co2     1 TBV1253     0.0000 
     14 CMA        10.7900   57.5690   16.0170 C.3       1 TBV1253     0.0000 
     15 NB         14.0720   53.4820   17.5670 N.am      1 TBV1253     0.0000 
     16 C1B        13.3580   53.7640   16.4630 C.2       1 TBV1253     0.0000 
     17 C2B        13.3050   52.6970   15.4440 C.2       1 TBV1253     0.0000 
     18 C3B        14.0860   51.6370   16.0920 C.2       1 TBV1253     0.0000 
     19 C4B        14.4800   52.2110   17.3910 C.2       1 TBV1253     0.0000 
     20 CMB        12.6140   52.7130   14.1140 C.3       1 TBV1253     0.0000 
     21 CAB        14.3920   50.2880   15.5670 C.2       1 TBV1253     0.0000 
     22 CBB        14.3210   49.2580   16.3910 C.2       1 TBV1253     0.0000 
     23 NC         16.7130   53.8080   19.1520 N.pl3     1 TBV1253     0.0000 
     24 C1C        17.3210   52.8620   18.3670 C.2       1 TBV1253     0.0000 
     25 C2C        18.3340   51.9960   19.0380 C.2       1 TBV1253     0.0000 
     26 C3C        18.3010   52.5590   20.3970 C.2       1 TBV1253     0.0000 
     27 C4C        17.3040   53.6350   20.3630 C.2       1 TBV1253     0.0000 
     28 CMC        19.1680   50.8700   18.4770 C.3       1 TBV1253     0.0000 
     29 CAC        19.0830   52.1990   21.6070 C.2       1 TBV1253     0.0000 
     30 CBC        19.5250   50.9870   21.8580 C.2       1 TBV1253     0.0000 
     31 ND         15.2240   55.8780   20.6200 N.pl3     1 TBV1253     0.0000 
     32 C1D        16.0360   55.5300   21.6430 C.2       1 TBV1253     0.0000 
     33 C2D        15.9020   56.3360   22.8640 C.2       1 TBV1253     0.0000 
     34 C3D        14.8670   57.2970   22.5140 C.2       1 TBV1253     0.0000 
     35 C4D        14.5220   56.9130   21.1330 C.2       1 TBV1253     0.0000 
     36 CMD        16.6420   56.2050   24.1600 C.3       1 TBV1253     0.0000 
     37 OC         17.0360   52.6860   17.0260 O.3       1 TBV1253     0.0000 
     38 CAD        14.2700   58.3860   23.3540 C.3       1 TBV1253     0.0000 
     39 CBD        14.8830   59.7290   22.9960 C.3       1 TBV1253     0.0000 
     40 C46        17.0610   54.2080   15.1580 C.3       1 TBV1253     0.0000 
     41 CGD        14.3730   60.8200   23.9160 C.2       1 TBV1253     0.0000 
     42 O2D        14.5660   61.9940   23.5470 O.co2     1 TBV1253     0.0000 
     43 O1D        13.8060   60.5250   24.9920 O.co2     1 TBV1253     0.0000 
     44 C47        19.0960   53.9620   16.5280 C.3       1 TBV1253     0.0000 
     45 C44        17.8800   53.2230   15.9850 C.3       1 TBV1253     0.0000 
     46 OB         15.2000   51.5610   18.2390 O.2       1 TBV1253     0.0000 
     47 C45        18.4070   52.0850   15.1190 C.3       1 TBV1253     0.0000 
     48 H          12.5926   57.7917   21.0228 H         1 TBV1253     0.0000 
     49 H          13.8897   58.7636   20.3068 H         1 TBV1253     0.0000 
     50 H          12.2840   55.2657   15.3533 H         1 TBV1253     0.0000 
     51 H          18.0198   54.8294   21.9749 H         1 TBV1253     0.0000 
     52 H          16.7477   53.6784   22.4187 H         1 TBV1253     0.0000 
     53 H          11.1983   59.2988   19.8838 H         1 TBV1253     0.0000 
     54 H          10.3948   59.4387   18.3107 H         1 TBV1253     0.0000 
     55 H          12.3446   60.5863   17.3977 H         1 TBV1253     0.0000 
     56 H          13.1915   60.4065   18.9438 H         1 TBV1253     0.0000 
     57 H          14.6442   50.2314   14.5827 H         1 TBV1253     0.0000 
     58 H          19.2572   53.0098   22.2590 H         1 TBV1253     0.0000 
     59 H          14.4525   58.1814   24.4103 H         1 TBV1253     0.0000 
     60 H          13.1920   58.4315   23.1902 H         1 TBV1253     0.0000 
     61 H          14.6291   59.9770   21.9637 H         1 TBV1253     0.0000 
     62 H          15.9694   59.6627   23.0795 H         1 TBV1253     0.0000 
     63 H          10.9856   58.4475   15.5810 H         1 TBV1253     0.0000 
     64 H          10.8295   56.8715   15.3015 H         1 TBV1253     0.0000 
     65 H           9.8439   57.6057   16.3387 H         1 TBV1253     0.0000 
     66 H          12.9609   53.4421   13.5240 H         1 TBV1253     0.0000 
     67 H          12.7386   51.8523   13.6204 H         1 TBV1253     0.0000 
     68 H          11.6289   52.8565   14.2090 H         1 TBV1253     0.0000 
     69 H          19.7510   51.1785   17.7254 H         1 TBV1253     0.0000 
     70 H          19.7692   50.4722   19.1700 H         1 TBV1253     0.0000 
     71 H          18.5994   50.1282   18.1215 H         1 TBV1253     0.0000 
     72 H          17.6279   56.3191   24.0379 H         1 TBV1253     0.0000 
     73 H          16.3480   56.8902   24.8264 H         1 TBV1253     0.0000 
     74 H          16.5004   55.3084   24.5795 H         1 TBV1253     0.0000 
     75 H          17.6001   54.6094   14.4176 H         1 TBV1253     0.0000 
     76 H          16.2666   53.7695   14.7378 H         1 TBV1253     0.0000 
     77 H          16.7179   54.9648   15.7144 H         1 TBV1253     0.0000 
     78 H          19.6751   53.3659   17.0841 H         1 TBV1253     0.0000 
     79 H          19.6689   54.3247   15.7930 H         1 TBV1253     0.0000 
     80 H          18.8335   54.7361   17.1041 H         1 TBV1253     0.0000 
     81 H          18.9982   52.4198   14.3852 H         1 TBV1253     0.0000 
     82 H          18.9433   51.4304   15.6519 H         1 TBV1253     0.0000 
     83 H          17.6648   51.5728   14.6868 H         1 TBV1253     0.0000 
@<TRIPOS>BOND
     1    5    1 1    
     2   35    1 1    
     3   48    1 1    
     4   49    1 1    
     5    8    2 1    
     6   16    2 2    
     7   50    2 1    
     8   27    3 1    
     9   32    3 1    
    10   51    3 1    
    11   52    3 1    
    12    5    4 1    
    13    8    4 1    
    14    6    5 2    
    15    7    6 1    
    16    9    6 1    
    17    8    7 2    
    18   14    7 1    
    19   10    9 1    
    20   53    9 1    
    21   54    9 1    
    22   11   10 1    
    23   55   10 1    
    24   56   10 1    
    25   12   11 ar   
    26   13   11 ar   
    27   63   14 1    
    28   64   14 1    
    29   65   14 1    
    30   16   15 1    
    31   19   15 am   
    32   17   16 1    
    33   18   17 2    
    34   20   17 1    
    35   19   18 1    
    36   21   18 1    
    37   46   19 2    
    38   66   20 1    
    39   67   20 1    
    40   68   20 1    
    41   22   21 2    
    42   57   21 1    
    43   24   23 1    
    44   27   23 1    
    45   25   24 2    
    46   37   24 1    
    47   26   25 1    
    48   28   25 1    
    49   27   26 2    
    50   29   26 1    
    51   69   28 1    
    52   70   28 1    
    53   71   28 1    
    54   30   29 2    
    55   58   29 1    
    56   32   31 1    
    57   35   31 1    
    58   33   32 2    
    59   34   33 1    
    60   36   33 1    
    61   35   34 2    
    62   38   34 1    
    63   72   36 1    
    64   73   36 1    
    65   74   36 1    
    66   45   37 1    
    67   39   38 1    
    68   59   38 1    
    69   60   38 1    
    70   41   39 1    
    71   61   39 1    
    72   62   39 1    
    73   45   40 1    
    74   75   40 1    
    75   76   40 1    
    76   77   40 1    
    77   42   41 ar   
    78   43   41 ar   
    79   45   44 1    
    80   78   44 1    
    81   79   44 1    
    82   80   44 1    
    83   47   45 1    
    84   81   47 1    
    85   82   47 1    
    86   83   47 1    
@<TRIPOS>SUBSTRUCTURE
     1 TBV1253     1 GROUP   
@<TRIPOS>SET

