#    Name: 3zs7_ATP_1_INTS_M
#    Modification time : Tue Mar 25 03:54:18 2014

@<TRIPOS>MOLECULE
3zs7_ATP_1_INTS_M
   45     0    12     0     0
SMALL
NO_CHARGES


@<TRIPOS>ATOM
      1 N          -8.9495   -6.9930  -17.6495 N.am      2 SEC2        0.0000 
      2 N          -7.6690   -6.4570  -17.8620 N.am     10 SEL2        0.0000 
      3 N         -10.2300   -7.5290  -17.4370 N.am      6 SEP2        0.0000 
      4 N          -8.2270   -8.2055  -15.3030 N.am      2 SEC2        0.0000 
      5 N          -6.9530   -7.8030  -15.8200 N.am     10 SEL2        0.0000 
      6 N          -9.5010   -8.6080  -14.7860 N.am      6 SEP2        0.0000 
      7 N          -5.8460  -11.8205  -19.2235 N.am      2 SEC2        0.0000 
      8 N          -7.0110  -10.5920  -19.4900 N.am     10 SEL2        0.0000 
      9 N          -4.6810  -13.0490  -18.9570 N.am      6 SEP2        0.0000 
     10 NZ         -7.3245  -12.2115  -16.0460 N.4       3 LYC4        0.0000 
     11 NZ         -6.6380  -10.8030  -16.9150 N.4      11 LYL4        0.0000 
     12 NZ         -8.0110  -13.6200  -15.1770 N.4       7 LYP4        0.0000 
     13 N          -8.7305   -8.7400  -16.3155 N.am      2 SEC2        0.0000 
     14 N          -7.9600   -8.8720  -17.8450 N.am     10 SEL2        0.0000 
     15 CA        -11.6045   -8.9855  -17.1235 C.3       4 GLC5        0.0000 
     16 CA        -11.8260  -10.9030  -17.5150 C.3      12 GLL5        0.0000 
     17 CA        -11.3830   -7.0680  -16.7320 C.3       8 GLP5        0.0000 
     18 CA        -10.4655  -10.3820  -15.8255 C.3       4 GLC5        0.0000 
     19 CA         -9.1050   -9.8610  -14.1360 C.3       8 GLP5        0.0000 
     20 CA        -12.5065  -13.8020  -18.1190 C.3       4 GLC5        0.0000 
     21 CA        -13.6790  -12.0380  -18.7990 C.3      12 GLL5        0.0000 
     22 CA        -11.3340  -15.5660  -17.4390 C.3       8 GLP5        0.0000 
     23 O         -13.7825  -14.5125  -18.8650 O.2       1 ALC1        0.0000 
     24 O         -13.9830  -13.3170  -18.2350 O.2       9 ALL1        0.0000 
     25 O         -13.5820  -15.7080  -19.4950 O.2       5 ALP1        0.0000 
     26 CA        -14.6675  -11.5105  -21.5985 C.3       4 GLC5        0.0000 
     27 CA        -14.8910  -11.4710  -19.5050 C.3      12 GLL5        0.0000 
     28 CA        -14.4440  -11.5500  -23.6920 C.3       8 GLP5        0.0000 
     29 CA        -16.6445  -11.9380  -20.5010 C.3       4 GLC5        0.0000 
     30 CA        -18.3980  -12.4050  -21.4970 C.3       8 GLP5        0.0000 
     31 CA        -15.8645   -9.2015  -17.3200 C.3       4 GLC5        0.0000 
     32 CA        -15.0040  -10.0280  -19.0450 C.3      12 GLL5        0.0000 
     33 CA        -16.7250   -8.3750  -15.5950 C.3       8 GLP5        0.0000 
     34 CA        -15.3115   -7.9250  -19.3195 C.3       4 GLC5        0.0000 
     35 CA        -15.6190   -5.8220  -19.5940 C.3       8 GLP5        0.0000 
     36 CA        -11.8710   -6.7395  -19.2480 C.3       4 GLC5        0.0000 
     37 CA        -11.7860   -7.6130  -21.0570 C.3      12 GLL5        0.0000 
     38 CA        -11.9560   -5.8660  -17.4390 C.3       8 GLP5        0.0000 
     39 CA        -13.7025   -6.7175  -20.3255 C.3       4 GLC5        0.0000 
     40 CA        -15.6050  -13.0137  -18.0585 C.3       4 GLC5        0.0000 
     41 CA        -16.9250  -14.2730  -16.9650 C.3       8 GLP5        0.0000 
     42 CA        -14.3095   -9.8370  -22.5008 C.3       4 GLC5        0.0000 
     43 CA        -13.9370   -8.4900  -20.7170 C.3      12 GLL5        0.0000 
     44 CA        -14.7726   -6.8701  -20.5416 C.3       4 GLC5        0.0000 
     45 CA        -14.4130   -7.7580  -21.9020 C.3      12 GLL5        0.0000 
@<TRIPOS>BOND
@<TRIPOS>SUBSTRUCTURE
     1 ALC1       23 GROUP        1 X    ALC  0     ROOT ALC X 1
     2 SEC2        1 GROUP        1 X    SEC  0     **** SEC X 2
     3 LYC4       10 GROUP        1 X    LYC  0     **** LYC X 4
     4 GLC5       15 GROUP        1 X    GLC  0     **** GLC X 6
     5 ALP1       25 GROUP        1 Y    ALP  0     ROOT ALP Y 8
     6 SEP2        3 GROUP        1 Y    SEP  0     **** SEP Y 9
     7 LYP4       12 GROUP        1 Y    LYP  0     **** LYP Y 11
     8 GLP5       17 GROUP        1 Y    GLP  0     **** GLP Y 13
     9 ALL1       24 GROUP        1 Z    ALL  0     ROOT ALL Z 15
    10 SEL2        2 GROUP        1 Z    SEL  0     **** SEL Z 16
    11 LYL4       11 GROUP        1 Z    LYL  0     **** LYL Z 18
    12 GLL5       16 GROUP        1 Z    GLL  0     **** GLL Z 20
@<TRIPOS>SET

