#    Name: 3zs7_ATP_1_ligand
#    Modification time : Tue Mar 25 03:54:18 2014

@<TRIPOS>MOLECULE
3zs7_ATP_1_ligand
   43    45     1     0     0
SMALL
NO_CHARGES


@<TRIPOS>ATOM
      1 PG         -6.9740   -7.6900  -17.3270 P.3       1 ATP1301     0.0000 
      2 O1G        -7.6690   -6.4570  -17.8620 O.co2     1 ATP1301     0.0000 
      3 O2G        -6.9530   -7.8030  -15.8200 O.co2     1 ATP1301     0.0000 
      4 O3G        -5.6450   -7.9830  -17.9740 O.co2     1 ATP1301     0.0000 
      5 PB         -7.5120  -10.4040  -18.0800 P.3       1 ATP1301     0.0000 
      6 O1B        -7.0110  -10.5920  -19.4900 O.co2     1 ATP1301     0.0000 
      7 O2B        -6.6380  -10.8030  -16.9150 O.co2     1 ATP1301     0.0000 
      8 O3B        -7.9600   -8.8720  -17.8450 O.3       1 ATP1301     0.0000 
      9 PA         -9.8670  -11.5590  -19.1600 P.3       1 ATP1301     0.0000 
     10 O1A        -9.2970  -10.9670  -20.4230 O.co2     1 ATP1301     0.0000 
     11 O2A       -10.2030  -13.0280  -19.1290 O.co2     1 ATP1301     0.0000 
     12 O3A        -8.8980  -11.2180  -17.9190 O.3       1 ATP1301     0.0000 
     13 O5'       -11.1920  -10.7340  -18.7790 O.3       1 ATP1301     0.0000 
     14 C5'       -11.8260  -10.9030  -17.5150 C.3       1 ATP1301     0.0000 
     15 C4'       -13.3320  -11.0160  -17.7260 C.3       1 ATP1301     0.0000 
     16 O4'       -13.9020   -9.7770  -18.1630 O.3       1 ATP1301     0.0000 
     17 C3'       -13.6790  -12.0380  -18.7990 C.3       1 ATP1301     0.0000 
     18 O3'       -13.9830  -13.3170  -18.2350 O.3       1 ATP1301     0.0000 
     19 C2'       -14.8910  -11.4710  -19.5050 C.3       1 ATP1301     0.0000 
     20 O2'       -16.0690  -12.1940  -19.1470 O.3       1 ATP1301     0.0000 
     21 C1'       -15.0040  -10.0280  -19.0450 C.3       1 ATP1301     0.0000 
     22 N9        -14.9930   -9.1430  -20.2370 N.pl3     1 ATP1301     0.0000 
     23 C8        -16.0630   -8.8810  -21.0230 C.2       1 ATP1301     0.0000 
     24 N7        -15.7260   -8.0400  -22.0360 N.2       1 ATP1301     0.0000 
     25 C5        -14.4130   -7.7580  -21.9020 C.ar      1 ATP1301     0.0000 
     26 C6        -13.4180   -6.9350  -22.6210 C.ar      1 ATP1301     0.0000 
     27 N6        -13.7620   -6.2280  -23.7200 N.pl3     1 ATP1301     0.0000 
     28 N1        -12.1540   -6.9160  -22.1470 N.ar      1 ATP1301     0.0000 
     29 C2        -11.7860   -7.6130  -21.0570 C.ar      1 ATP1301     0.0000 
     30 N3        -12.6400   -8.3770  -20.3540 N.ar      1 ATP1301     0.0000 
     31 C4        -13.9370   -8.4900  -20.7170 C.ar      1 ATP1301     0.0000 
     32 H         -11.6437  -10.0538  -16.8501 H         1 ATP1301     0.0000 
     33 H         -11.4896  -11.8120  -17.0079 H         1 ATP1301     0.0000 
     34 H         -13.7947  -11.3395  -16.8037 H         1 ATP1301     0.0000 
     35 H         -12.8721  -12.0745  -19.4995 H         1 ATP1301     0.0000 
     36 H         -14.7075  -11.4749  -20.5554 H         1 ATP1301     0.0000 
     37 H         -15.9446   -9.9296  -18.5261 H         1 ATP1301     0.0000 
     38 H         -16.9604   -9.2465  -20.8834 H         1 ATP1301     0.0000 
     39 H         -14.7229   -6.2779  -23.9923 H         1 ATP1301     0.0000 
     40 H         -13.0251   -5.7177  -24.1634 H         1 ATP1301     0.0000 
     41 H         -10.7729   -7.5569  -20.7369 H         1 ATP1301     0.0000 
     42 H         -14.2472  -13.8867  -19.0132 H         1 ATP1301     0.0000 
     43 H         -15.8113  -12.7251  -18.3398 H         1 ATP1301     0.0000 
@<TRIPOS>BOND
     1    2    1 ar   
     2    3    1 ar   
     3    4    1 ar   
     4    8    1 1    
     5    6    5 ar   
     6    7    5 ar   
     7    8    5 1    
     8   12    5 1    
     9   10    9 ar   
    10   11    9 ar   
    11   12    9 1    
    12   13    9 1    
    13   14   13 1    
    14   15   14 1    
    15   32   14 1    
    16   33   14 1    
    17   16   15 1    
    18   17   15 1    
    19   34   15 1    
    20   21   16 1    
    21   18   17 1    
    22   19   17 1    
    23   35   17 1    
    24   42   18 1    
    25   20   19 1    
    26   21   19 1    
    27   36   19 1    
    28   43   20 1    
    29   22   21 1    
    30   37   21 1    
    31   23   22 1    
    32   31   22 1    
    33   24   23 2    
    34   38   23 1    
    35   25   24 1    
    36   26   25 ar   
    37   31   25 ar   
    38   27   26 1    
    39   28   26 ar   
    40   39   27 1    
    41   40   27 1    
    42   29   28 ar   
    43   30   29 ar   
    44   41   29 1    
    45   31   30 ar   
@<TRIPOS>SUBSTRUCTURE
     1 ATP1301     1 GROUP   
@<TRIPOS>SET

