#    Name: 3kmg_538_2_INTS_M
#    Modification time : Mon Mar 24 19:48:29 2014

@<TRIPOS>MOLECULE
3kmg_538_2_INTS_M
  117     0    12     0     0
SMALL
NO_CHARGES


@<TRIPOS>ATOM
      1 CA          3.6240   60.6750    2.4265 C.3       4 GLC5        0.0000 
      2 CA          4.2640   58.8900    3.2230 C.3      12 GLL5        0.0000 
      3 CA          2.9840   62.4600    1.6300 C.3       8 GLP5        0.0000 
      4 CA          2.7390   58.5645    2.0145 C.3       4 GLC5        0.0000 
      5 CA          1.2140   58.2390    0.8060 C.3       8 GLP5        0.0000 
      6 CA          3.3755   60.4620    4.4815 C.3       4 GLC5        0.0000 
      7 CA          2.4870   62.0340    5.7400 C.3       8 GLP5        0.0000 
      8 CA          6.2965   58.7405    5.4160 C.3       4 GLC5        0.0000 
      9 CA          5.7460   59.1700    3.4050 C.3      12 GLL5        0.0000 
     10 CA          6.8470   58.3110    7.4270 C.3       8 GLP5        0.0000 
     11 CA          4.5195   61.4925    2.2050 C.3       4 GLC5        0.0000 
     12 CA          6.0550   60.5250    2.7800 C.3      12 GLL5        0.0000 
     13 O           5.1470   61.3140    1.0850 O.2       1 ALC1        0.0000 
     14 O           6.1630   60.4420    1.3250 O.2       9 ALL1        0.0000 
     15 O           4.1310   62.1860    0.8450 O.2       5 ALP1        0.0000 
     16 N           8.0590   58.1095    1.1500 N.am      2 SEC2        0.0000 
     17 N           8.1580   59.3970    0.7710 N.am     10 SEL2        0.0000 
     18 N           7.9600   56.8220    1.5290 N.am      6 SEP2        0.0000 
     19 CA          6.2810   60.5595   -5.1050 C.3       4 GLC5        0.0000 
     20 CA          6.4290   61.6240   -3.4500 C.3      12 GLL5        0.0000 
     21 CA          6.1330   59.4950   -6.7600 C.3       8 GLP5        0.0000 
     22 CA          6.5010   61.0605   -6.1955 C.3       4 GLC5        0.0000 
     23 CA          6.8690   62.6260   -5.6310 C.3      12 GLL5        0.0000 
     24 CA          7.4730   62.1210   -7.6685 C.3       4 GLC5        0.0000 
     25 CA          8.0770   61.6160   -9.7060 C.3       8 GLP5        0.0000 
     26 CA          8.7380   61.7445   -5.7100 C.3       4 GLC5        0.0000 
     27 CA         10.6070   60.8630   -5.7890 C.3       8 GLP5        0.0000 
     28 CA          6.5980   65.9080   -2.7345 C.3       4 GLC5        0.0000 
     29 CA          6.3930   66.2890   -4.6050 C.3      12 GLL5        0.0000 
     30 CA          6.8030   65.5270   -0.8640 C.3       8 GLP5        0.0000 
     31 CA          9.1695   63.8520   -7.8305 C.3       4 GLC5        0.0000 
     32 CA          8.1430   64.7300   -6.0920 C.3      12 GLL5        0.0000 
     33 CA         10.1960   62.9740   -9.5690 C.3       8 GLP5        0.0000 
     34 CA          7.9125   67.4985   -7.2225 C.3       4 GLC5        0.0000 
     35 CA          7.7150   68.3360   -5.1530 C.3      12 GLL5        0.0000 
     36 CA          8.1100   66.6610   -9.2920 C.3       8 GLP5        0.0000 
     37 CA          7.5900   70.2410   -7.5355 C.3       4 GLC5        0.0000 
     38 CA          6.9180   70.6510   -5.4370 C.3      12 GLL5        0.0000 
     39 CA          8.2620   69.8310   -9.6340 C.3       8 GLP5        0.0000 
     40 CA          6.8105   68.4775   -7.5280 C.3       4 GLC5        0.0000 
     41 CA          6.6460   69.2910   -5.5290 C.3      12 GLL5        0.0000 
     42 CA          6.9750   67.6640   -9.5270 C.3       8 GLP5        0.0000 
     43 N           4.6205   68.2140   -8.0855 N.am      2 SEC2        0.0000 
     44 N           5.1610   67.8710   -6.7500 N.am     10 SEL2        0.0000 
     45 N           4.0800   68.5570   -9.4210 N.am      6 SEP2        0.0000 
     46 NZ          2.9445   69.4515   -5.8760 N.4       3 LYC4        0.0000 
     47 NZ          4.2840   69.5040   -5.6100 N.4      11 LYL4        0.0000 
     48 NZ          0.6940   68.6680   -5.5060 N.4       7 LYP4        0.0000 
     49 N           2.9445   69.4515   -5.8760 N.am      2 SEC2        0.0000 
     50 N           4.2840   69.5040   -5.6100 N.am     10 SEL2        0.0000 
     51 N           1.6050   69.3990   -6.1420 N.am      6 SEP2        0.0000 
     52 CA          3.2050   64.2005   -5.0635 C.3       4 GLC5        0.0000 
     53 CA          3.7740   62.5350   -5.8560 C.3      12 GLL5        0.0000 
     54 CA          2.6360   65.8660   -4.2710 C.3       8 GLP5        0.0000 
     55 CA          3.4085   62.0510   -7.6765 C.3       4 GLC5        0.0000 
     56 CA          3.0430   61.5670   -9.4970 C.3       8 GLP5        0.0000 
     57 CA          5.1175   60.4930   -5.0940 C.3       4 GLC5        0.0000 
     58 CA          4.1020   61.4910   -3.4280 C.3      12 GLL5        0.0000 
     59 CA          2.7695   63.1965   -2.8970 C.3       4 GLC5        0.0000 
     60 CA          2.7250   61.1780   -2.8910 C.3      12 GLL5        0.0000 
     61 CA          2.8140   65.2150   -2.9030 C.3       8 GLP5        0.0000 
     62 CA          2.2615   62.0005   -1.0770 C.3       4 GLC5        0.0000 
     63 CA          1.7980   62.8230    0.7370 C.3       8 GLP5        0.0000 
     64 CA          0.8295   60.8695   -2.1840 C.3       4 GLC5        0.0000 
     65 CA         -1.0660   60.5610   -1.4770 C.3       8 GLP5        0.0000 
     66 CA          6.3125   59.6270   -3.8265 C.3       4 GLC5        0.0000 
     67 CA          5.2940   61.2050   -2.6110 C.3      12 GLL5        0.0000 
     68 CA          7.3310   58.0490   -5.0420 C.3       8 GLP5        0.0000 
     69 CA          4.2520   61.5620    0.1335 C.3       4 GLC5        0.0000 
     70 CA          5.5200   60.6640   -1.3630 C.3      12 GLL5        0.0000 
     71 CA          5.3295   57.3285    3.7260 C.3       4 GLC5        0.0000 
     72 CA          5.6540   55.6270    4.1380 C.3       8 GLP5        0.0000 
     73 CA          7.7023   62.6785   -0.9902 C.3       4 GLC5        0.0000 
     74 CA          6.8450   60.5120   -0.9040 C.3      12 GLL5        0.0000 
     75 CA          8.0210   64.6280   -0.6900 C.3       8 GLP5        0.0000 
     76 CA          7.5762   59.6345   -3.6752 C.3       4 GLC5        0.0000 
     77 CA          7.9220   60.9460   -1.6770 C.3      12 GLL5        0.0000 
     78 CA          9.4932   61.0755   -3.2033 C.3       4 GLC5        0.0000 
     79 CA          7.7210   61.4940   -2.9400 C.3      12 GLL5        0.0000 
     80 CA         11.1650   60.9310   -4.0980 C.3       8 GLP5        0.0000 
     81 CA          8.0835   63.1225   -2.6690 C.3       4 GLC5        0.0000 
     82 CA          9.0920   64.6860   -2.1430 C.3       8 GLP5        0.0000 
     83 CA          4.4615   65.7343   -4.4660 C.3       4 GLC5        0.0000 
     84 CA          6.1810   64.9160   -4.7170 C.3      12 GLL5        0.0000 
     85 CA          8.0706   66.1344   -7.5716 C.3       4 GLC5        0.0000 
     86 CA          7.6345   68.9360   -3.1027 C.3       4 GLC5        0.0000 
     87 CA          6.9400   69.2920   -1.2590 C.3       8 GLP5        0.0000 
     88 CA         10.3805   69.5068   -3.2300 C.3       4 GLC5        0.0000 
     89 CA          8.9430   68.8240   -4.7400 C.3      12 GLL5        0.0000 
     90 CA         11.7100   69.5040   -1.7530 C.3       8 GLP5        0.0000 
     91 CA         10.4780   69.3133   -6.3640 C.3       4 GLC5        0.0000 
     92 CA          9.1590   70.1950   -4.6740 C.3      12 GLL5        0.0000 
     93 CA         11.9050   69.1170   -8.0210 C.3       8 GLP5        0.0000 
     94 CA          7.8003   69.9685   -3.0513 C.3       4 GLC5        0.0000 
     95 CA          6.8610   69.6315   -3.3710 C.3       4 GLC5        0.0000 
     96 CA          3.5870   63.4968   -3.4815 C.3       4 GLC5        0.0000 
     97 CA          4.6180   62.0660   -4.6920 C.3      12 GLL5        0.0000 
     98 CA          5.1645   60.8978   -6.0170 C.3       4 GLC5        0.0000 
     99 CA          3.3298   59.5793   -2.3392 C.3       4 GLC5        0.0000 
    100 CA          3.2460   57.8240   -1.5190 C.3       8 GLP5        0.0000 
    101 CA          4.3265   59.3792   -1.7530 C.3       4 GLC5        0.0000 
    102 CA          8.8665   60.6298    6.3647 C.3       4 GLC5        0.0000 
    103 CA          7.5100   61.3080    4.7200 C.3      12 GLL5        0.0000 
    104 CA          9.7660   59.5010    7.7410 C.3       8 GLP5        0.0000 
    105 CA          7.6742   64.4785    4.6775 C.3       4 GLC5        0.0000 
    106 CA          8.4240   62.2090    5.2570 C.3      12 GLL5        0.0000 
    107 CA          6.6840   66.2290    4.4880 C.3       8 GLP5        0.0000 
    108 CA          8.5723   63.5410    6.6880 C.3       4 GLC5        0.0000 
    109 CA          8.9050   63.2470    4.4770 C.3      12 GLL5        0.0000 
    110 CA          8.4800   64.3540    8.5090 C.3       8 GLP5        0.0000 
    111 CA          6.0867   62.7665    5.2205 C.3       4 GLC5        0.0000 
    112 CA          4.3110   63.7470    5.7850 C.3       8 GLP5        0.0000 
    113 CA          8.0188   63.7860    1.1025 C.3       4 GLC5        0.0000 
    114 CA          7.5600   62.4920    2.6280 C.3      12 GLL5        0.0000 
    115 CA          7.3502   64.5865    3.6915 C.3       4 GLC5        0.0000 
    116 CA          8.3716   65.1206   -3.8714 C.3       4 GLC5        0.0000 
    117 CA          7.4830   66.8730   -5.2390 C.3      12 GLL5        0.0000 
@<TRIPOS>BOND
@<TRIPOS>SUBSTRUCTURE
     1 ALC1       13 GROUP        1 X    ALC  0     ROOT ALC X 1
     2 SEC2       16 GROUP        1 X    SEC  0     **** SEC X 2
     3 LYC4       46 GROUP        1 X    LYC  0     **** LYC X 4
     4 GLC5        1 GROUP        1 X    GLC  0     **** GLC X 6
     5 ALP1       15 GROUP        1 Y    ALP  0     ROOT ALP Y 8
     6 SEP2       18 GROUP        1 Y    SEP  0     **** SEP Y 9
     7 LYP4       48 GROUP        1 Y    LYP  0     **** LYP Y 11
     8 GLP5        3 GROUP        1 Y    GLP  0     **** GLP Y 13
     9 ALL1       14 GROUP        1 Z    ALL  0     ROOT ALL Z 15
    10 SEL2       17 GROUP        1 Z    SEL  0     **** SEL Z 16
    11 LYL4       47 GROUP        1 Z    LYL  0     **** LYL Z 18
    12 GLL5        2 GROUP        1 Z    GLL  0     **** GLL Z 20
@<TRIPOS>SET

