#    Name: 3kmg_538_2_ligand
#    Modification time : Mon Mar 24 19:48:29 2014

@<TRIPOS>MOLECULE
3kmg_538_2_ligand
   70    74     1     0     0
SMALL
NO_CHARGES


@<TRIPOS>ATOM
      1 C1          4.2640   58.8900    3.2230 C.3       1 5381        0.0000 
      2 C2          5.7460   59.1700    3.4050 C.3       1 5381        0.0000 
      3 C3          6.0550   60.5250    2.7800 C.3       1 5381        0.0000 
      4 N4          6.1630   60.4420    1.3250 N.am      1 5381        0.0000 
      5 C5          7.1200   60.0000    0.4840 C.2       1 5381        0.0000 
      6 O6          8.1580   59.3970    0.7710 O.2       1 5381        0.0000 
      7 C7          6.8450   60.5120   -0.9040 C.ar      1 5381        0.0000 
      8 C8          7.9220   60.9460   -1.6770 C.ar      1 5381        0.0000 
      9 C9          7.7210   61.4940   -2.9400 C.ar      1 5381        0.0000 
     10 C10         6.4290   61.6240   -3.4500 C.ar      1 5381        0.0000 
     11 N11         5.9670   62.1000   -4.6080 N.pl3     1 5381        0.0000 
     12 C12         6.8690   62.6260   -5.6310 C.3       1 5381        0.0000 
     13 C13         7.0650   64.1230   -5.4560 C.ar      1 5381        0.0000 
     14 C14         6.1810   64.9160   -4.7170 C.ar      1 5381        0.0000 
     15 C15         6.3930   66.2890   -4.6050 C.ar      1 5381        0.0000 
     16 C16         7.4830   66.8730   -5.2390 C.ar      1 5381        0.0000 
     17 C17         8.3560   66.0980   -5.9820 C.ar      1 5381        0.0000 
     18 C18         8.1430   64.7300   -6.0920 C.ar      1 5381        0.0000 
     19 C19         7.7150   68.3360   -5.1530 C.ar      1 5381        0.0000 
     20 C20         8.9430   68.8240   -4.7400 C.ar      1 5381        0.0000 
     21 C21         9.1590   70.1950   -4.6740 C.ar      1 5381        0.0000 
     22 C22         8.1620   71.0950   -5.0130 C.ar      1 5381        0.0000 
     23 C23         6.9180   70.6510   -5.4370 C.ar      1 5381        0.0000 
     24 C24         6.6460   69.2910   -5.5290 C.ar      1 5381        0.0000 
     25 C25         5.2860   68.8580   -5.9900 C.2       1 5381        0.0000 
     26 O26         5.1610   67.8710   -6.7500 O.co2     1 5381        0.0000 
     27 O27         4.2840   69.5040   -5.6100 O.co2     1 5381        0.0000 
     28 C28         4.6180   62.0660   -4.6920 C.2       1 5381        0.0000 
     29 C29         3.7740   62.5350   -5.8560 C.3       1 5381        0.0000 
     30 C30         4.1020   61.4910   -3.4280 C.2       1 5381        0.0000 
     31 C31         2.7250   61.1780   -2.8910 C.3       1 5381        0.0000 
     32 C32         5.2940   61.2050   -2.6110 C.ar      1 5381        0.0000 
     33 C33         5.5200   60.6640   -1.3630 C.ar      1 5381        0.0000 
     34 C34         7.0920   61.4180    3.3900 C.ar      1 5381        0.0000 
     35 C35         7.5100   61.3080    4.7200 C.ar      1 5381        0.0000 
     36 C36         8.4240   62.2090    5.2570 C.ar      1 5381        0.0000 
     37 C37         8.9050   63.2470    4.4770 C.ar      1 5381        0.0000 
     38 C38         8.4730   63.3960    3.1620 C.ar      1 5381        0.0000 
     39 C39         7.5600   62.4920    2.6280 C.ar      1 5381        0.0000 
     40 H           6.3235   58.4051    2.9089 H         1 5381        0.0000 
     41 H           5.9838   59.1968    4.4574 H         1 5381        0.0000 
     42 H           5.0375   61.1266    2.9333 H         1 5381        0.0000 
     43 H           5.2321   60.8401    0.8340 H         1 5381        0.0000 
     44 H           8.8827   60.8586   -1.3048 H         1 5381        0.0000 
     45 H           8.5257   61.8045   -3.5002 H         1 5381        0.0000 
     46 H           6.4657   62.4447   -6.6346 H         1 5381        0.0000 
     47 H           7.8499   62.1392   -5.5712 H         1 5381        0.0000 
     48 H           5.3712   64.4817   -4.2548 H         1 5381        0.0000 
     49 H           5.7452   66.8652   -4.0557 H         1 5381        0.0000 
     50 H           9.1612   66.5317   -6.4525 H         1 5381        0.0000 
     51 H           8.7935   64.1545   -6.6536 H         1 5381        0.0000 
     52 H           9.6974   68.1731   -4.4814 H         1 5381        0.0000 
     53 H          10.0840   70.5491   -4.3651 H         1 5381        0.0000 
     54 H           8.3467   72.1118   -4.9494 H         1 5381        0.0000 
     55 H           6.1864   71.3363   -5.6869 H         1 5381        0.0000 
     56 H           4.7437   60.3713   -0.7649 H         1 5381        0.0000 
     57 H           7.1337   60.5473    5.3084 H         1 5381        0.0000 
     58 H           8.7391   62.1020    6.2291 H         1 5381        0.0000 
     59 H           9.5863   63.9144    4.8688 H         1 5381        0.0000 
     60 H           8.8270   64.1701    2.5886 H         1 5381        0.0000 
     61 H           7.2236   62.6134    1.6604 H         1 5381        0.0000 
     62 H           4.0066   58.8651    2.2570 H         1 5381        0.0000 
     63 H           4.0008   58.0104    3.6192 H         1 5381        0.0000 
     64 H           3.6976   59.5892    3.6593 H         1 5381        0.0000 
     65 H           3.9157   63.5057   -6.0501 H         1 5381        0.0000 
     66 H           3.9872   62.0342   -6.6949 H         1 5381        0.0000 
     67 H           2.7974   62.4107   -5.6805 H         1 5381        0.0000 
     68 H           2.7653   60.7818   -1.9737 H         1 5381        0.0000 
     69 H           2.1545   61.9971   -2.8317 H         1 5381        0.0000 
     70 H           2.2397   60.5242   -3.4716 H         1 5381        0.0000 
@<TRIPOS>BOND
     1    2    1 1    
     2   62    1 1    
     3   63    1 1    
     4   64    1 1    
     5    3    2 1    
     6   40    2 1    
     7   41    2 1    
     8    4    3 1    
     9   34    3 1    
    10   42    3 1    
    11    5    4 am   
    12   43    4 1    
    13    6    5 2    
    14    7    5 1    
    15    8    7 ar   
    16   33    7 ar   
    17    9    8 ar   
    18   44    8 1    
    19   10    9 ar   
    20   45    9 1    
    21   11   10 1    
    22   32   10 ar   
    23   12   11 1    
    24   28   11 1    
    25   13   12 1    
    26   46   12 1    
    27   47   12 1    
    28   14   13 ar   
    29   18   13 ar   
    30   15   14 ar   
    31   48   14 1    
    32   16   15 ar   
    33   49   15 1    
    34   17   16 ar   
    35   19   16 1    
    36   18   17 ar   
    37   50   17 1    
    38   51   18 1    
    39   20   19 ar   
    40   24   19 ar   
    41   21   20 ar   
    42   52   20 1    
    43   22   21 ar   
    44   53   21 1    
    45   23   22 ar   
    46   54   22 1    
    47   24   23 ar   
    48   55   23 1    
    49   25   24 1    
    50   26   25 ar   
    51   27   25 ar   
    52   29   28 1    
    53   30   28 2    
    54   65   29 1    
    55   66   29 1    
    56   67   29 1    
    57   31   30 1    
    58   32   30 1    
    59   68   31 1    
    60   69   31 1    
    61   70   31 1    
    62   33   32 ar   
    63   56   33 1    
    64   35   34 ar   
    65   39   34 ar   
    66   36   35 ar   
    67   57   35 1    
    68   37   36 ar   
    69   58   36 1    
    70   38   37 ar   
    71   59   37 1    
    72   39   38 ar   
    73   60   38 1    
    74   61   39 1    
@<TRIPOS>SUBSTRUCTURE
     1 5381        1 GROUP   
@<TRIPOS>SET

