#    Name: 2j62_GSZ_2_INTS_M
#    Modification time : Tue Mar 25 19:19:48 2014

@<TRIPOS>MOLECULE
2j62_GSZ_2_INTS_M
   74     0     9     0     0
SMALL
NO_CHARGES


@<TRIPOS>ATOM
      1 CA          6.3970   -1.5070   17.1905 C.3       3 GLC5        0.0000 
      2 CA          5.4110   -1.4890   15.8160 C.3       9 GLL5        0.0000 
      3 CA          7.3830   -1.5250   18.5650 C.3       6 GLP5        0.0000 
      4 CA          6.9020   -1.0790   15.4750 C.3       3 GLC5        0.0000 
      5 CA          8.3930   -0.6690   15.1340 C.3       6 GLP5        0.0000 
      6 CA          5.6165   -1.6885   13.8685 C.3       3 GLC5        0.0000 
      7 CA          5.8220   -1.8880   11.9210 C.3       6 GLP5        0.0000 
      8 CA          4.7715   -0.8315   17.8890 C.3       3 GLC5        0.0000 
      9 CA          3.9640   -1.3490   16.2100 C.3       9 GLL5        0.0000 
     10 CA          5.5790   -0.3140   19.5680 C.3       6 GLP5        0.0000 
     11 CA          3.3150   -4.2415   15.2800 C.3       3 GLC5        0.0000 
     12 CA          3.1290   -2.2670   15.3200 C.3       9 GLL5        0.0000 
     13 CA          3.5010   -6.2160   15.2400 C.3       6 GLP5        0.0000 
     14 N           5.3775    1.6100   14.8800 N.am      2 SEC2        0.0000 
     15 N           4.2020    0.9300   15.4580 N.am      8 SEL2        0.0000 
     16 N           6.5530    2.2900   14.3020 N.am      5 SEP2        0.0000 
     17 O           1.3615   -0.6795   17.0535 O.2       1 ALC1        0.0000 
     18 O           2.2900    0.3600   16.5910 O.2       7 ALL1        0.0000 
     19 O           0.4330   -1.7190   17.5160 O.2       4 ALP1        0.0000 
     20 CA          1.8535    0.6085   13.6005 C.3       3 GLC5        0.0000 
     21 CA          1.3830    2.1560   15.1120 C.3       9 GLL5        0.0000 
     22 CA          2.3240   -0.9390   12.0890 C.3       6 GLP5        0.0000 
     23 N          -0.4840    0.6195   15.2560 N.am      2 SEC2        0.0000 
     24 N           0.0530    1.8950   14.7980 N.am      8 SEL2        0.0000 
     25 N          -1.0210   -0.6560   15.7140 N.am      5 SEP2        0.0000 
     26 O          -0.3275    1.5325   13.5720 O.2       1 ALC1        0.0000 
     27 O           0.0530    1.8950   14.7980 O.2       7 ALL1        0.0000 
     28 O          -0.7080    1.1700   12.3460 O.2       4 ALP1        0.0000 
     29 CA         -0.1780    4.1650   15.5390 C.3       3 GLC5        0.0000 
     30 CA          1.6240    3.6670   14.8720 C.3       9 GLL5        0.0000 
     31 CA         -1.9800    4.6630   16.2060 C.3       6 GLP5        0.0000 
     32 N           1.9365    3.3870   12.2960 N.am      2 SEC2        0.0000 
     33 N           1.4100    3.9510   13.5070 N.am      8 SEL2        0.0000 
     34 N           2.4630    2.8230   11.0850 N.am      5 SEP2        0.0000 
     35 O           0.5810    5.0695   13.4710 O.2       1 ALC1        0.0000 
     36 O           1.4100    3.9510   13.5070 O.2       7 ALL1        0.0000 
     37 O          -0.2480    6.1880   13.4350 O.2       4 ALP1        0.0000 
     38 CA          4.0480    5.6725   12.7885 C.3       3 GLC5        0.0000 
     39 CA          3.4330    5.4660   14.8540 C.3       9 GLL5        0.0000 
     40 CA          4.6630    5.8790   10.7230 C.3       6 GLP5        0.0000 
     41 CA          3.9420    7.3840   14.5480 C.3       3 GLC5        0.0000 
     42 CA          4.4510    9.3020   14.2420 C.3       6 GLP5        0.0000 
     43 O           1.9895    7.0230   14.6990 O.2       1 ALC1        0.0000 
     44 O           2.6010    6.4210   15.5890 O.2       7 ALL1        0.0000 
     45 O           1.3780    7.6250   13.8090 O.2       4 ALP1        0.0000 
     46 N           2.2865    1.7495   19.3815 N.am      2 SEC2        0.0000 
     47 N           2.8980    2.7330   18.6100 N.am      8 SEL2        0.0000 
     48 N           1.6750    0.7660   20.1530 N.am      5 SEP2        0.0000 
     49 CA          4.9300    5.9500   19.4275 C.3       3 GLC5        0.0000 
     50 CA          4.3600    4.1930   20.1320 C.3       9 GLL5        0.0000 
     51 CA          5.5000    7.7070   18.7230 C.3       6 GLP5        0.0000 
     52 CA         -0.3380    7.6185   19.2565 C.3       3 GLC5        0.0000 
     53 CA          0.1100    6.8970   21.0060 C.3       9 GLL5        0.0000 
     54 CA         -0.7860    8.3400   17.5070 C.3       6 GLP5        0.0000 
     55 CA         -1.4670    6.6460   19.5290 C.3       3 GLC5        0.0000 
     56 CA          0.0120    5.6320   20.4040 C.3       9 GLL5        0.0000 
     57 CA         -2.9460    7.6600   18.6540 C.3       6 GLP5        0.0000 
     58 CA          4.6212   -3.4460   16.6690 C.3       3 GLC5        0.0000 
     59 CA          4.5550   -5.4730   17.3250 C.3       6 GLP5        0.0000 
     60 CA          2.7302   -2.4180   17.3340 C.3       3 GLC5        0.0000 
     61 CA          1.9140   -3.0280   18.9030 C.3       6 GLP5        0.0000 
     62 CA          3.6313   -1.3990   13.9050 C.3       3 GLC5        0.0000 
     63 CA          3.7160   -0.9900   12.0450 C.3       6 GLP5        0.0000 
     64 CA         -0.0688    2.8442   16.5230 C.3       3 GLC5        0.0000 
     65 CA         -1.6470    3.7620   17.2090 C.3       6 GLP5        0.0000 
     66 CA         -0.2488    0.9677   16.2395 C.3       3 GLC5        0.0000 
     67 CA          1.6360    1.6970   16.5620 C.3       9 GLL5        0.0000 
     68 CA         -2.0070    0.0090   16.6420 C.3       6 GLP5        0.0000 
     69 CA          5.5590    3.7192   18.5111 C.3       3 GLC5        0.0000 
     70 CA          3.7010    3.7760   18.8040 C.3       9 GLL5        0.0000 
     71 CA          7.0380    3.3000   17.8480 C.3       6 GLP5        0.0000 
     72 CA          0.3845    8.2752   22.9637 C.3       3 GLC5        0.0000 
     73 CA          1.2800    7.2840   21.6970 C.3       9 GLL5        0.0000 
     74 CA          0.0740    9.4600   24.5760 C.3       6 GLP5        0.0000 
@<TRIPOS>BOND
@<TRIPOS>SUBSTRUCTURE
     1 ALC1       17 GROUP        1 X    ALC  0     ROOT ALC X 1
     2 SEC2       14 GROUP        1 X    SEC  0     **** SEC X 2
     3 GLC5        1 GROUP        1 X    GLC  0     **** GLC X 6
     4 ALP1       19 GROUP        1 Y    ALP  0     ROOT ALP Y 8
     5 SEP2       16 GROUP        1 Y    SEP  0     **** SEP Y 9
     6 GLP5        3 GROUP        1 Y    GLP  0     **** GLP Y 13
     7 ALL1       18 GROUP        1 Z    ALL  0     ROOT ALL Z 15
     8 SEL2       15 GROUP        1 Z    SEL  0     **** SEL Z 16
     9 GLL5        2 GROUP        1 Z    GLL  0     **** GLL Z 20
@<TRIPOS>SET

