#    Name: 2j62_GSZ_2_ligand
#    Modification time : Tue Mar 25 19:19:48 2014

@<TRIPOS>MOLECULE
2j62_GSZ_2_ligand
   54    56     1     0     0
SMALL
NO_CHARGES


@<TRIPOS>ATOM
      1 CAZ         5.4110   -1.4890   15.8160 C.3       1 GSZ1627     0.0000 
      2 CAN         3.9640   -1.3490   16.2100 C.3       1 GSZ1627     0.0000 
      3 CBA         3.1290   -2.2670   15.3200 C.3       1 GSZ1627     0.0000 
      4 CAL         3.5000    0.0970   16.0530 C.2       1 GSZ1627     0.0000 
      5 OAM         4.2020    0.9300   15.4580 O.2       1 GSZ1627     0.0000 
      6 NAK         2.2900    0.3600   16.5910 N.am      1 GSZ1627     0.0000 
      7 CAC         1.6360    1.6970   16.5620 C.3       1 GSZ1627     0.0000 
      8 CAB         1.3830    2.1560   15.1120 C.3       1 GSZ1627     0.0000 
      9 OAG         0.0530    1.8950   14.7980 O.3       1 GSZ1627     0.0000 
     10 CAA         1.6240    3.6670   14.8720 C.3       1 GSZ1627     0.0000 
     11 OAH         1.4100    3.9510   13.5070 O.3       1 GSZ1627     0.0000 
     12 CAF         3.0460    4.0200   15.2290 C.3       1 GSZ1627     0.0000 
     13 CAI         3.4330    5.4660   14.8540 C.3       1 GSZ1627     0.0000 
     14 OAJ         2.6010    6.4210   15.5890 O.3       1 GSZ1627     0.0000 
     15 NAE         3.2010    3.7670   16.6860 N.pl3     1 GSZ1627     0.0000 
     16 CAQ         3.8990    4.3920   17.6290 C.2       1 GSZ1627     0.0000 
     17 CAD         2.5500    2.6900   17.3260 C.2       1 GSZ1627     0.0000 
     18 NAO         2.8980    2.7330   18.6100 N.2       1 GSZ1627     0.0000 
     19 CAP         3.7010    3.7760   18.8040 C.2       1 GSZ1627     0.0000 
     20 CAR         4.3600    4.1930   20.1320 C.3       1 GSZ1627     0.0000 
     21 CAS         3.4340    4.1590   21.3380 C.3       1 GSZ1627     0.0000 
     22 CAT         2.2660    5.1400   21.2120 C.ar      1 GSZ1627     0.0000 
     23 CAU         2.3660    6.4050   21.8130 C.ar      1 GSZ1627     0.0000 
     24 CAV         1.2800    7.2840   21.6970 C.ar      1 GSZ1627     0.0000 
     25 CAW         0.1100    6.8970   21.0060 C.ar      1 GSZ1627     0.0000 
     26 CAX         0.0120    5.6320   20.4040 C.ar      1 GSZ1627     0.0000 
     27 CAY         1.0970    4.7570   20.5120 C.ar      1 GSZ1627     0.0000 
     28 H           3.8393   -1.6528   17.2301 H         1 GSZ1627     0.0000 
     29 H           1.7311   -0.3877   17.0721 H         1 GSZ1627     0.0000 
     30 H           0.6935    1.6486   17.0833 H         1 GSZ1627     0.0000 
     31 H           2.0517    1.6075   14.4614 H         1 GSZ1627     0.0000 
     32 H           0.9564    4.2108   15.5071 H         1 GSZ1627     0.0000 
     33 H           3.7088    3.3376   14.6916 H         1 GSZ1627     0.0000 
     34 H           3.3027    5.5800   13.7755 H         1 GSZ1627     0.0000 
     35 H           4.4906    5.6030   15.0902 H         1 GSZ1627     0.0000 
     36 H           4.4667    5.1743   17.4950 H         1 GSZ1627     0.0000 
     37 H           4.7667    5.2137   20.0150 H         1 GSZ1627     0.0000 
     38 H           5.2229    3.5284   20.3178 H         1 GSZ1627     0.0000 
     39 H           4.0067    4.4027   22.2414 H         1 GSZ1627     0.0000 
     40 H           3.0344    3.1446   21.4593 H         1 GSZ1627     0.0000 
     41 H           3.2014    6.6746   22.3170 H         1 GSZ1627     0.0000 
     42 H           1.3308    8.2203   22.1171 H         1 GSZ1627     0.0000 
     43 H          -0.6796    7.5540   20.9450 H         1 GSZ1627     0.0000 
     44 H          -0.8274    5.3623   19.9033 H         1 GSZ1627     0.0000 
     45 H           1.0527    3.8250   20.0816 H         1 GSZ1627     0.0000 
     46 H           6.0051   -0.9072   16.3715 H         1 GSZ1627     0.0000 
     47 H           5.7362   -2.4284   15.9244 H         1 GSZ1627     0.0000 
     48 H           5.5620   -1.2350   14.8607 H         1 GSZ1627     0.0000 
     49 H           3.2215   -2.0311   14.3526 H         1 GSZ1627     0.0000 
     50 H           3.4008   -3.2246   15.4154 H         1 GSZ1627     0.0000 
     51 H           2.1555   -2.2151   15.5426 H         1 GSZ1627     0.0000 
     52 H           0.0584    1.6574   13.8267 H         1 GSZ1627     0.0000 
     53 H           0.8450    4.7760   13.4999 H         1 GSZ1627     0.0000 
     54 H           1.7930    6.5552   15.0153 H         1 GSZ1627     0.0000 
@<TRIPOS>BOND
     1    2    1 1    
     2   46    1 1    
     3   47    1 1    
     4   48    1 1    
     5    3    2 1    
     6    4    2 1    
     7   28    2 1    
     8   49    3 1    
     9   50    3 1    
    10   51    3 1    
    11    5    4 2    
    12    6    4 am   
    13    7    6 1    
    14   29    6 1    
    15    8    7 1    
    16   17    7 1    
    17   30    7 1    
    18    9    8 1    
    19   10    8 1    
    20   31    8 1    
    21   52    9 1    
    22   11   10 1    
    23   12   10 1    
    24   32   10 1    
    25   53   11 1    
    26   13   12 1    
    27   15   12 1    
    28   33   12 1    
    29   14   13 1    
    30   34   13 1    
    31   35   13 1    
    32   54   14 1    
    33   16   15 1    
    34   17   15 1    
    35   19   16 2    
    36   36   16 1    
    37   18   17 2    
    38   19   18 1    
    39   20   19 1    
    40   21   20 1    
    41   37   20 1    
    42   38   20 1    
    43   22   21 1    
    44   39   21 1    
    45   40   21 1    
    46   23   22 ar   
    47   27   22 ar   
    48   24   23 ar   
    49   41   23 1    
    50   25   24 ar   
    51   42   24 1    
    52   26   25 ar   
    53   43   25 1    
    54   27   26 ar   
    55   44   26 1    
    56   45   27 1    
@<TRIPOS>SUBSTRUCTURE
     1 GSZ1627     1 GROUP   
@<TRIPOS>SET

