#    Name: 2b5j_3AC_1_INTS_M
#    Modification time : Mon Mar 24 20:16:56 2014

@<TRIPOS>MOLECULE
2b5j_3AC_1_INTS_M
   68     0     6     0     0
SMALL
NO_CHARGES


@<TRIPOS>ATOM
      1 CA        144.4785  -27.9130   73.2730 C.3       2 GLC5        0.0000 
      2 CA        142.9420  -26.9140   73.2820 C.3       6 GLL5        0.0000 
      3 CA        146.0150  -28.9120   73.2640 C.3       4 GLP5        0.0000 
      4 CA        143.8420  -28.1230   71.7655 C.3       2 GLC5        0.0000 
      5 CA        143.1970  -26.3650   72.0000 C.3       6 GLL5        0.0000 
      6 CA        144.4870  -29.8810   71.5310 C.3       4 GLP5        0.0000 
      7 CA        145.5025  -27.2210   72.4035 C.3       2 GLC5        0.0000 
      8 CA        144.9900  -25.5300   71.5430 C.3       6 GLL5        0.0000 
      9 CA        144.5830  -23.4955   71.3555 C.3       2 GLC5        0.0000 
     10 CA        144.1760  -21.4610   71.1680 C.3       4 GLP5        0.0000 
     11 CA        146.1490  -24.6285   73.0055 C.3       2 GLC5        0.0000 
     12 CA        147.3080  -23.7270   74.4680 C.3       4 GLP5        0.0000 
     13 CA        147.1610  -25.5945   71.0015 C.3       2 GLC5        0.0000 
     14 CA        149.3320  -25.6590   70.4600 C.3       4 GLP5        0.0000 
     15 CA        145.7250  -26.4680   70.1145 C.3       2 GLC5        0.0000 
     16 CA        146.4600  -27.4060   68.6860 C.3       4 GLP5        0.0000 
     17 O         140.1225  -27.4520   70.2735 O.2       1 ALC1        0.0000 
     18 O         141.0010  -26.9680   71.2860 O.2       5 ALL1        0.0000 
     19 O         139.2440  -27.9360   69.2610 O.2       3 ALP1        0.0000 
     20 CA        138.3830  -29.0570   70.8780 C.3       2 GLC5        0.0000 
     21 CA        139.3210  -28.1240   72.6840 C.3       6 GLL5        0.0000 
     22 CA        137.4450  -29.9900   69.0720 C.3       4 GLP5        0.0000 
     23 CA        138.2865  -29.1230   73.6050 C.3       2 GLC5        0.0000 
     24 CA        137.2520  -30.1220   74.5260 C.3       4 GLP5        0.0000 
     25 CA        143.0730  -28.6940   72.5450 C.3       2 GLC5        0.0000 
     26 CA        141.6590  -27.5070   73.5590 C.3       6 GLL5        0.0000 
     27 CA        140.3790  -27.4130   76.8350 C.3       2 GLC5        0.0000 
     28 CA        141.3260  -28.1240   74.9490 C.3       6 GLL5        0.0000 
     29 CA        139.4320  -26.7020   78.7210 C.3       4 GLP5        0.0000 
     30 CA        139.3660  -28.5995   75.1845 C.3       2 GLC5        0.0000 
     31 CA        137.4060  -29.0750   75.4200 C.3       4 GLP5        0.0000 
     32 CA        144.1045  -29.1415   74.2570 C.3       2 GLC5        0.0000 
     33 CA        142.1940  -29.3710   75.2500 C.3       6 GLL5        0.0000 
     34 CA        146.8965  -26.8570   76.7460 C.3       2 GLC5        0.0000 
     35 CA        144.9820  -25.9880   76.2660 C.3       6 GLL5        0.0000 
     36 CA        148.8110  -27.7260   77.2260 C.3       4 GLP5        0.0000 
     37 CA        147.4985  -24.1790   78.1370 C.3       2 GLC5        0.0000 
     38 CA        146.2160  -25.2190   78.3500 C.3       6 GLL5        0.0000 
     39 CA        148.7810  -23.1390   77.9240 C.3       4 GLP5        0.0000 
     40 CA        143.8620  -26.1560   79.2930 C.3       2 GLC5        0.0000 
     41 CA        145.8820  -26.1070   79.5040 C.3       6 GLL5        0.0000 
     42 CA        141.8420  -26.2050   79.0820 C.3       4 GLP5        0.0000 
     43 CA        141.6852  -25.0243   72.7610 C.3       2 GLC5        0.0000 
     44 CA        140.3010  -23.4090   72.8810 C.3       4 GLP5        0.0000 
     45 CA        139.0870  -26.2332   72.6670 C.3       2 GLC5        0.0000 
     46 CA        140.6990  -27.5170   72.5000 C.3       6 GLL5        0.0000 
     47 CA        138.1640  -24.6460   72.7420 C.3       4 GLP5        0.0000 
     48 CA        140.4748  -26.2182   74.5610 C.3       2 GLC5        0.0000 
     49 CA        139.4570  -24.6210   74.8680 C.3       4 GLP5        0.0000 
     50 CA        145.2355  -27.4297   74.5270 C.3       2 GLC5        0.0000 
     51 CA        143.9300  -25.9070   75.3140 C.3       6 GLL5        0.0000 
     52 CA        145.8820  -24.8373   75.1290 C.3       2 GLC5        0.0000 
     53 CA        142.6363  -25.8000   77.2370 C.3       2 GLC5        0.0000 
     54 CA        141.2113  -24.5232   75.4415 C.3       2 GLC5        0.0000 
     55 CA        143.0000  -23.9680   76.5600 C.3       6 GLL5        0.0000 
     56 CA        142.6875  -25.1125   78.0580 C.3       2 GLC5        0.0000 
     57 CA        145.9358  -24.1538   75.9497 C.3       2 GLC5        0.0000 
     58 CA        144.0660  -24.0720   77.5080 C.3       6 GLL5        0.0000 
     59 CA        143.4318  -25.8717   77.9463 C.3       2 GLC5        0.0000 
     60 CA        145.0610  -25.0890   77.3550 C.3       6 GLL5        0.0000 
     61 CA        147.4300  -26.6945   78.0765 C.3       2 GLC5        0.0000 
     62 CA        147.0420  -24.1388   79.3077 C.3       2 GLC5        0.0000 
     63 CA        147.8620  -22.2720   78.4810 C.3       4 GLP5        0.0000 
     64 CA        145.6150  -27.4408   80.7208 C.3       2 GLC5        0.0000 
     65 CA        145.0080  -28.8760   81.3070 C.3       4 GLP5        0.0000 
     66 CA        145.6008  -24.3478   80.6760 C.3       2 GLC5        0.0000 
     67 CA        146.5620  -25.9040   80.7650 C.3       6 GLL5        0.0000 
     68 CA        144.8960  -22.9120   81.5060 C.3       4 GLP5        0.0000 
@<TRIPOS>BOND
@<TRIPOS>SUBSTRUCTURE
     1 ALC1       17 GROUP        1 X    ALC  0     ROOT ALC X 1
     2 GLC5        1 GROUP        1 X    GLC  0     **** GLC X 6
     3 ALP1       19 GROUP        1 Y    ALP  0     ROOT ALP Y 8
     4 GLP5        3 GROUP        1 Y    GLP  0     **** GLP Y 13
     5 ALL1       18 GROUP        1 Z    ALL  0     ROOT ALL Z 15
     6 GLL5        2 GROUP        1 Z    GLL  0     **** GLL Z 20
@<TRIPOS>SET

