#    Name: 2b5j_3AC_1_ligand
#    Modification time : Mon Mar 24 20:16:56 2014

@<TRIPOS>MOLECULE
2b5j_3AC_1_ligand
   37    38     1     0     0
SMALL
NO_CHARGES


@<TRIPOS>ATOM
      1 O11       143.9380  -26.8740   74.2660 O.3       1 3AC562      0.0000 
      2 C11       142.9420  -26.9140   73.2820 C.2       1 3AC562      0.0000 
      3 C12       143.1970  -26.3650   72.0000 C.2       1 3AC562      0.0000 
      4 I12       144.9900  -25.5300   71.5430 I         1 3AC562      0.0000 
      5 C13       142.2060  -26.4060   71.0180 C.2       1 3AC562      0.0000 
      6 O13       142.4540  -25.8640   69.7600 O.2       1 3AC562      0.0000 
      7 N14       141.0010  -26.9680   71.2860 N.am      1 3AC562      0.0000 
      8 C15       140.6990  -27.5170   72.5000 C.2       1 3AC562      0.0000 
      9 C51       139.3210  -28.1240   72.6840 C.3       1 3AC562      0.0000 
     10 C16       141.6590  -27.5070   73.5590 C.2       1 3AC562      0.0000 
     11 C61       141.3260  -28.1240   74.9490 C.3       1 3AC562      0.0000 
     12 C62       142.1940  -29.3710   75.2500 C.3       1 3AC562      0.0000 
     13 C21       143.9300  -25.9070   75.3140 C.ar      1 3AC562      0.0000 
     14 C22       142.9310  -24.8830   75.4700 C.ar      1 3AC562      0.0000 
     15 C23       143.0000  -23.9680   76.5600 C.ar      1 3AC562      0.0000 
     16 C24       144.0660  -24.0720   77.5080 C.ar      1 3AC562      0.0000 
     17 C25       145.0610  -25.0890   77.3550 C.ar      1 3AC562      0.0000 
     18 C26       144.9820  -25.9880   76.2660 C.ar      1 3AC562      0.0000 
     19 C27       146.2160  -25.2190   78.3500 C.2       1 3AC562      0.0000 
     20 C28       145.8820  -26.1070   79.5040 C.2       1 3AC562      0.0000 
     21 N29       147.1000  -25.7440   81.7860 N.1       1 3AC562      0.0000 
     22 C29       146.5620  -25.9040   80.7650 C.1       1 3AC562      0.0000 
     23 H         140.2647  -26.9839   70.5294 H         1 3AC562      0.0000 
     24 H         140.2762  -28.4086   74.9639 H         1 3AC562      0.0000 
     25 H         141.5018  -27.3738   75.7169 H         1 3AC562      0.0000 
     26 H         142.1731  -24.8171   74.7943 H         1 3AC562      0.0000 
     27 H         142.2969  -23.2446   76.6655 H         1 3AC562      0.0000 
     28 H         144.1169  -23.4256   78.2882 H         1 3AC562      0.0000 
     29 H         145.7002  -26.7173   76.1582 H         1 3AC562      0.0000 
     30 H         147.0324  -24.7839   78.2324 H         1 3AC562      0.0000 
     31 H         145.1997  -26.8207   79.3861 H         1 3AC562      0.0000 
     32 H         139.1560  -28.8723   72.0415 H         1 3AC562      0.0000 
     33 H         139.1987  -28.4956   73.6043 H         1 3AC562      0.0000 
     34 H         138.5962  -27.4500   72.5413 H         1 3AC562      0.0000 
     35 H         143.1698  -29.1522   75.2537 H         1 3AC562      0.0000 
     36 H         141.9789  -29.7665   76.1429 H         1 3AC562      0.0000 
     37 H         142.0577  -30.0913   74.5699 H         1 3AC562      0.0000 
@<TRIPOS>BOND
     1    2    1 1    
     2   13    1 1    
     3    3    2 2    
     4   10    2 1    
     5    4    3 1    
     6    5    3 1    
     7    6    5 2    
     8    7    5 am   
     9    8    7 1    
    10   23    7 1    
    11    9    8 1    
    12   10    8 2    
    13   32    9 1    
    14   33    9 1    
    15   34    9 1    
    16   11   10 1    
    17   12   11 1    
    18   24   11 1    
    19   25   11 1    
    20   35   12 1    
    21   36   12 1    
    22   37   12 1    
    23   14   13 ar   
    24   18   13 ar   
    25   15   14 ar   
    26   26   14 1    
    27   16   15 ar   
    28   27   15 1    
    29   17   16 ar   
    30   28   16 1    
    31   18   17 ar   
    32   19   17 1    
    33   29   18 1    
    34   20   19 2    
    35   30   19 1    
    36   22   20 1    
    37   31   20 1    
    38   22   21 3    
@<TRIPOS>SUBSTRUCTURE
     1 3AC562      1 GROUP   
@<TRIPOS>SET

