#    Name: 3fl9_TOP_7_INTS_M
#    Modification time : Tue Mar 25 05:42:59 2014

@<TRIPOS>MOLECULE
3fl9_TOP_7_INTS_M
   63     0     6     0     0
SMALL
NO_CHARGES


@<TRIPOS>ATOM
      1 CA         20.1050   48.7825   41.3340 C.3       2 GLC5        0.0000 
      2 CA         21.0250   48.4390   42.9800 C.3       6 GLL5        0.0000 
      3 CA         19.1850   49.1260   39.6880 C.3       4 GLP5        0.0000 
      4 CA         19.7845   46.7735   42.9220 C.3       2 GLC5        0.0000 
      5 CA         18.5440   45.1080   42.8640 C.3       4 GLP5        0.0000 
      6 CA         21.0255   45.8480   45.1990 C.3       2 GLC5        0.0000 
      7 CA         21.7100   46.2660   43.4070 C.3       6 GLL5        0.0000 
      8 CA         20.3410   45.4300   46.9910 C.3       4 GLP5        0.0000 
      9 CA         23.3115   45.5825   44.6900 C.3       2 GLC5        0.0000 
     10 CA         24.9130   44.8990   45.9730 C.3       4 GLP5        0.0000 
     11 CA         23.0275   45.9450   42.3155 C.3       2 GLC5        0.0000 
     12 CA         24.3450   45.6240   41.2240 C.3       4 GLP5        0.0000 
     13 CA         20.1270   45.6870   43.1355 C.3       2 GLC5        0.0000 
     14 O          21.2130   45.1920   41.4830 O.2       1 ALC1        0.0000 
     15 O          21.6630   44.9730   43.0920 O.2       5 ALL1        0.0000 
     16 O          20.7630   45.4110   39.8740 O.2       3 ALP1        0.0000 
     17 O          21.1355   44.2795   42.0840 O.2       1 ALC1        0.0000 
     18 O          20.6080   43.5860   41.0760 O.2       3 ALP1        0.0000 
     19 CA         21.4345   46.7030   45.8795 C.3       2 GLC5        0.0000 
     20 CA         22.5280   47.9760   44.7680 C.3       6 GLL5        0.0000 
     21 CA         23.7205   46.4375   45.3705 C.3       2 GLC5        0.0000 
     22 O          23.3310   47.4140   46.6940 O.2       1 ALC1        0.0000 
     23 O          23.2900   48.3540   45.7930 O.2       5 ALL1        0.0000 
     24 O          23.3720   46.4740   47.5950 O.2       3 ALP1        0.0000 
     25 O          23.5905   49.1890   46.8080 O.2       1 ALC1        0.0000 
     26 O          23.8910   50.0240   47.8230 O.2       3 ALP1        0.0000 
     27 CA         21.4745   52.5520   44.6735 C.3       2 GLC5        0.0000 
     28 CA         21.7740   50.4290   44.3040 C.3       6 GLL5        0.0000 
     29 CA         21.1750   54.6750   45.0430 C.3       4 GLP5        0.0000 
     30 CA         20.3915   50.5155   45.3795 C.3       2 GLC5        0.0000 
     31 CA         19.0090   50.6020   46.4550 C.3       4 GLP5        0.0000 
     32 CA         22.9375   51.8455   41.2255 C.3       2 GLC5        0.0000 
     33 CA         21.4200   51.6320   42.0910 C.3       6 GLL5        0.0000 
     34 CA         24.4550   52.0590   40.3600 C.3       4 GLP5        0.0000 
     35 CA         21.8155   51.3260   40.1090 C.3       2 GLC5        0.0000 
     36 CA         20.5860   52.2220   41.1440 C.3       6 GLL5        0.0000 
     37 CA         23.0450   50.4300   39.0740 C.3       4 GLP5        0.0000 
     38 CA         22.9180   53.1090   40.2565 C.3       2 GLC5        0.0000 
     39 CA         21.3810   54.1590   40.1530 C.3       6 GLL5        0.0000 
     40 CA         20.8985   55.5790   41.3960 C.3       2 GLC5        0.0000 
     41 CA         20.4160   56.9990   42.6390 C.3       4 GLP5        0.0000 
     42 CA         17.7475   51.0730   38.8295 C.3       2 GLC5        0.0000 
     43 CA         17.1980   52.1660   40.1490 C.3       6 GLL5        0.0000 
     44 CA         18.2970   49.9800   37.5100 C.3       4 GLP5        0.0000 
     45 CA         16.0080   52.8645   41.8225 C.3       2 GLC5        0.0000 
     46 CA         14.8180   53.5630   43.4960 C.3       4 GLP5        0.0000 
     47 CA         17.3625   48.5390   44.1350 C.3       2 GLC5        0.0000 
     48 CA         16.9620   50.5510   43.5150 C.3       6 GLL5        0.0000 
     49 CA         17.7630   46.5270   44.7550 C.3       4 GLP5        0.0000 
     50 CA         16.7100   51.9475   44.4530 C.3       2 GLC5        0.0000 
     51 CA         16.4580   53.3440   45.3910 C.3       4 GLP5        0.0000 
     52 CA         17.9855   50.5765   44.9850 C.3       2 GLC5        0.0000 
     53 CA         20.1665   50.2425   41.1790 C.3       2 GLC5        0.0000 
     54 CA         20.8760   51.0860   43.2490 C.3       6 GLL5        0.0000 
     55 CA         20.6320   53.1200   43.3300 C.3       2 GLC5        0.0000 
     56 CA         20.1160   54.8810   43.9900 C.3       4 GLP5        0.0000 
     57 CA         19.5412   50.6780   40.4633 C.3       2 GLC5        0.0000 
     58 CA         20.0068   53.5555   42.6142 C.3       2 GLC5        0.0000 
     59 CA         19.2090   52.2380   41.3330 C.3       6 GLL5        0.0000 
     60 CA         19.1325   50.2668   41.3287 C.3       2 GLC5        0.0000 
     61 CA         18.6590   51.6950   42.4980 C.3       6 GLL5        0.0000 
     62 CA         19.5980   53.1442   43.4798 C.3       2 GLC5        0.0000 
     63 CA         17.7690   52.3757   44.1803 C.3       2 GLC5        0.0000 
@<TRIPOS>BOND
@<TRIPOS>SUBSTRUCTURE
     1 ALC1       14 GROUP        1 X    ALC  0     ROOT ALC X 1
     2 GLC5        1 GROUP        1 X    GLC  0     **** GLC X 6
     3 ALP1       16 GROUP        1 Y    ALP  0     ROOT ALP Y 8
     4 GLP5        3 GROUP        1 Y    GLP  0     **** GLP Y 13
     5 ALL1       15 GROUP        1 Z    ALL  0     ROOT ALL Z 15
     6 GLL5        2 GROUP        1 Z    GLL  0     **** GLL Z 20
@<TRIPOS>SET

