#    Name: 3fl9_TOP_7_ligand
#    Modification time : Tue Mar 25 05:42:59 2014

@<TRIPOS>MOLECULE
3fl9_TOP_7_ligand
   39    40     1     0     0
SMALL
NO_CHARGES


@<TRIPOS>ATOM
      1 C1         21.0250   48.4390   42.9800 C.ar      1 TOP200      0.0000 
      2 N2         20.9970   47.1500   42.6900 N.ar      1 TOP200      0.0000 
      3 C3         21.7100   46.2660   43.4070 C.ar      1 TOP200      0.0000 
      4 N4         21.6630   44.9730   43.0920 N.pl3     1 TOP200      0.0000 
      5 N5         22.4690   46.6790   44.4380 N.ar      1 TOP200      0.0000 
      6 C6         22.5280   47.9760   44.7680 C.ar      1 TOP200      0.0000 
      7 N7         23.2900   48.3540   45.7930 N.pl3     1 TOP200      0.0000 
      8 C8         21.7950   48.9120   44.0370 C.ar      1 TOP200      0.0000 
      9 C9         21.7740   50.4290   44.3040 C.3       1 TOP200      0.0000 
     10 C10        20.8760   51.0860   43.2490 C.ar      1 TOP200      0.0000 
     11 C11        21.4200   51.6320   42.0910 C.ar      1 TOP200      0.0000 
     12 C12        20.5860   52.2220   41.1440 C.ar      1 TOP200      0.0000 
     13 O13        21.1010   52.7580   40.0020 O.3       1 TOP200      0.0000 
     14 C14        21.3810   54.1590   40.1530 C.3       1 TOP200      0.0000 
     15 C15        19.2090   52.2380   41.3330 C.ar      1 TOP200      0.0000 
     16 O16        18.4500   52.8280   40.3630 O.3       1 TOP200      0.0000 
     17 C17        17.1980   52.1660   40.1490 C.3       1 TOP200      0.0000 
     18 C18        18.6590   51.6950   42.4980 C.ar      1 TOP200      0.0000 
     19 O19        17.3190   51.7060   42.7400 O.3       1 TOP200      0.0000 
     20 C20        16.9620   50.5510   43.5150 C.3       1 TOP200      0.0000 
     21 C21        19.5010   51.1200   43.4410 C.ar      1 TOP200      0.0000 
     22 H          20.4739   49.1343   42.4280 H         1 TOP200      0.0000 
     23 H          22.1846   44.3570   43.6824 H         1 TOP200      0.0000 
     24 H          21.1104   44.7345   42.2934 H         1 TOP200      0.0000 
     25 H          23.8001   47.6275   46.2535 H         1 TOP200      0.0000 
     26 H          23.2834   49.3302   46.0097 H         1 TOP200      0.0000 
     27 H          22.7729   50.8184   44.2199 H         1 TOP200      0.0000 
     28 H          21.3712   50.6116   45.2842 H         1 TOP200      0.0000 
     29 H          22.4343   51.6006   41.9337 H         1 TOP200      0.0000 
     30 H          19.0963   50.7094   44.3025 H         1 TOP200      0.0000 
     31 H          22.0401   54.3292   40.8856 H         1 TOP200      0.0000 
     32 H          21.7633   54.5535   39.3174 H         1 TOP200      0.0000 
     33 H          20.5568   54.6808   40.3731 H         1 TOP200      0.0000 
     34 H          17.3242   51.2141   39.8698 H         1 TOP200      0.0000 
     35 H          16.6366   52.1568   40.9765 H         1 TOP200      0.0000 
     36 H          16.6594   52.6122   39.4343 H         1 TOP200      0.0000 
     37 H          17.1865   49.7006   43.0392 H         1 TOP200      0.0000 
     38 H          17.4402   50.5306   44.3930 H         1 TOP200      0.0000 
     39 H          15.9824   50.5257   43.7141 H         1 TOP200      0.0000 
@<TRIPOS>BOND
     1    2    1 ar   
     2    8    1 ar   
     3   22    1 1    
     4    3    2 ar   
     5    4    3 1    
     6    5    3 ar   
     7   23    4 1    
     8   24    4 1    
     9    6    5 ar   
    10    7    6 1    
    11    8    6 ar   
    12   25    7 1    
    13   26    7 1    
    14    9    8 1    
    15   10    9 1    
    16   27    9 1    
    17   28    9 1    
    18   11   10 ar   
    19   21   10 ar   
    20   12   11 ar   
    21   29   11 1    
    22   13   12 1    
    23   15   12 ar   
    24   14   13 1    
    25   31   14 1    
    26   32   14 1    
    27   33   14 1    
    28   16   15 1    
    29   18   15 ar   
    30   17   16 1    
    31   34   17 1    
    32   35   17 1    
    33   36   17 1    
    34   19   18 1    
    35   21   18 ar   
    36   20   19 1    
    37   37   20 1    
    38   38   20 1    
    39   39   20 1    
    40   30   21 1    
@<TRIPOS>SUBSTRUCTURE
     1 TOP200      1 GROUP   
@<TRIPOS>SET

