#    Name: 3e6n_AS3_1_INTS_M
#    Modification time : Tue Mar 25 01:00:04 2014

@<TRIPOS>MOLECULE
3e6n_AS3_1_INTS_M
   35     0     9     0     0
SMALL
NO_CHARGES


@<TRIPOS>ATOM
      1 O         -67.9090   18.2255   -8.7345 O.2       1 ALC1        0.0000 
      2 O         -68.1420   19.2850   -7.9120 O.2       7 ALL1        0.0000 
      3 O         -67.6760   17.1660   -9.5570 O.2       4 ALP1        0.0000 
      4 O         -67.4650   20.3145   -6.7665 O.2       1 ALC1        0.0000 
      5 O         -66.7880   21.3440   -5.6210 O.2       4 ALP1        0.0000 
      6 O         -66.9580   19.8945   -7.6420 O.2       1 ALC1        0.0000 
      7 O         -65.7740   20.5040   -7.3720 O.2       4 ALP1        0.0000 
      8 CA        -69.0705   18.2385   -5.9945 C.3       3 GLC5        0.0000 
      9 CA        -69.2630   19.6050   -7.2350 C.3       9 GLL5        0.0000 
     10 CA        -68.8780   16.8720   -4.7540 C.3       6 GLP5        0.0000 
     11 N         -67.9860   20.8295   -5.8485 N.am      2 SEC2        0.0000 
     12 N         -69.1840   20.3150   -6.0760 N.am      8 SEL2        0.0000 
     13 N         -66.7880   21.3440   -5.6210 N.am      5 SEP2        0.0000 
     14 CA        -72.3115   21.1745   -3.7345 C.3       3 GLC5        0.0000 
     15 CA        -70.1170   21.4430   -4.0870 C.3       9 GLL5        0.0000 
     16 CA        -74.5060   20.9060   -3.3820 C.3       6 GLP5        0.0000 
     17 CA        -70.9960   19.4000   -0.6580 C.3       3 GLC5        0.0000 
     18 CA        -70.4520   19.4720   -2.5430 C.3       9 GLL5        0.0000 
     19 CA        -71.5400   19.3280    1.2270 C.3       6 GLP5        0.0000 
     20 CA        -72.4790   20.1890   -2.9625 C.3       3 GLC5        0.0000 
     21 CA        -73.0285   20.5885   -4.6140 C.3       3 GLC5        0.0000 
     22 CA        -71.5510   20.2710   -5.8460 C.3       9 GLL5        0.0000 
     23 CA        -74.9625   19.0880   -7.0425 C.3       3 GLC5        0.0000 
     24 CA        -73.0060   19.1250   -7.5320 C.3       9 GLL5        0.0000 
     25 CA        -76.9190   19.0510   -6.5530 C.3       6 GLP5        0.0000 
     26 CA        -73.6450   17.1540   -7.1000 C.3       3 GLC5        0.0000 
     27 CA        -74.2840   15.1830   -6.6680 C.3       6 GLP5        0.0000 
     28 CA        -72.4570   17.2515   -8.5750 C.3       3 GLC5        0.0000 
     29 CA        -71.9080   15.3780   -9.6180 C.3       6 GLP5        0.0000 
     30 CA        -69.6760   17.6100   -6.8480 C.3       3 GLC5        0.0000 
     31 CA        -70.4980   19.2080   -7.7270 C.3       9 GLL5        0.0000 
     32 CA        -68.8540   16.0120   -5.9690 C.3       6 GLP5        0.0000 
     33 CA        -71.2030   17.2930   -8.6725 C.3       3 GLC5        0.0000 
     34 CA        -69.4350   18.4580   -3.7465 C.3       3 GLC5        0.0000 
     35 CA        -70.0836   18.4385   -5.5349 C.3       3 GLC5        0.0000 
@<TRIPOS>BOND
@<TRIPOS>SUBSTRUCTURE
     1 ALC1        1 GROUP        1 X    ALC  0     ROOT ALC X 1
     2 SEC2       11 GROUP        1 X    SEC  0     **** SEC X 2
     3 GLC5        8 GROUP        1 X    GLC  0     **** GLC X 6
     4 ALP1        3 GROUP        1 Y    ALP  0     ROOT ALP Y 8
     5 SEP2       13 GROUP        1 Y    SEP  0     **** SEP Y 9
     6 GLP5       10 GROUP        1 Y    GLP  0     **** GLP Y 13
     7 ALL1        2 GROUP        1 Z    ALL  0     ROOT ALL Z 15
     8 SEL2       12 GROUP        1 Z    SEL  0     **** SEL Z 16
     9 GLL5        9 GROUP        1 Z    GLL  0     **** GLL Z 20
@<TRIPOS>SET

