#    Name: 3e6n_AS3_1_ligand
#    Modification time : Tue Mar 25 01:00:04 2014

@<TRIPOS>MOLECULE
3e6n_AS3_1_ligand
   25    25     1     0     0
SMALL
NO_CHARGES


@<TRIPOS>ATOM
      1 N8        -68.1420   19.2850   -7.9120 N.pl3     1 AS3903      0.0000 
      2 C1        -69.2630   19.6050   -7.2350 C.ar      1 AS3903      0.0000 
      3 N6        -69.1840   20.3150   -6.0760 N.ar      1 AS3903      0.0000 
      4 C5        -70.2980   20.6570   -5.3710 C.ar      1 AS3903      0.0000 
      5 C9        -70.1170   21.4430   -4.0870 C.3       1 AS3903      0.0000 
      6 C10       -69.5320   20.6160   -2.9350 C.3       1 AS3903      0.0000 
      7 C11       -70.4520   19.4720   -2.5430 C.3       1 AS3903      0.0000 
      8 C4        -71.5510   20.2710   -5.8460 C.ar      1 AS3903      0.0000 
      9 C3        -71.6540   19.5460   -7.0230 C.ar      1 AS3903      0.0000 
     10 C7        -73.0060   19.1250   -7.5320 C.3       1 AS3903      0.0000 
     11 C2        -70.4980   19.2080   -7.7270 C.ar      1 AS3903      0.0000 
     12 H         -68.2737   18.8048   -8.7792 H         1 AS3903      0.0000 
     13 H         -67.2786   19.5563   -7.4867 H         1 AS3903      0.0000 
     14 H         -71.0900   21.8504   -3.7688 H         1 AS3903      0.0000 
     15 H         -69.4532   22.3019   -4.2759 H         1 AS3903      0.0000 
     16 H         -69.3762   21.2697   -2.0737 H         1 AS3903      0.0000 
     17 H         -68.5635   20.2153   -3.2432 H         1 AS3903      0.0000 
     18 H         -72.3973   20.5263   -5.3199 H         1 AS3903      0.0000 
     19 H         -70.5639   18.6729   -8.5966 H         1 AS3903      0.0000 
     20 H         -70.6105   18.8448   -3.3056 H         1 AS3903      0.0000 
     21 H         -70.0727   18.9309   -1.7924 H         1 AS3903      0.0000 
     22 H         -71.3474   19.8014   -2.2435 H         1 AS3903      0.0000 
     23 H         -72.9374   18.6108   -8.3869 H         1 AS3903      0.0000 
     24 H         -73.4843   18.5409   -6.8762 H         1 AS3903      0.0000 
     25 H         -73.5974   19.9116   -7.7097 H         1 AS3903      0.0000 
@<TRIPOS>BOND
     1    2    1 1    
     2   12    1 1    
     3   13    1 1    
     4    3    2 ar   
     5   11    2 ar   
     6    4    3 ar   
     7    5    4 1    
     8    8    4 ar   
     9    6    5 1    
    10   14    5 1    
    11   15    5 1    
    12    7    6 1    
    13   16    6 1    
    14   17    6 1    
    15   20    7 1    
    16   21    7 1    
    17   22    7 1    
    18    9    8 ar   
    19   18    8 1    
    20   10    9 1    
    21   11    9 ar   
    22   23   10 1    
    23   24   10 1    
    24   25   10 1    
    25   19   11 1    
@<TRIPOS>SUBSTRUCTURE
     1 AS3903      1 GROUP   
@<TRIPOS>SET

