#    Name: 2brt_NAR_1_INTS_M
#    Modification time : Mon Mar 24 21:34:06 2014

@<TRIPOS>MOLECULE
2brt_NAR_1_INTS_M
   34     0     9     0     0
SMALL
NO_CHARGES


@<TRIPOS>ATOM
      1 CA         13.8210   24.3455   29.5035 C.3       3 GLC5        0.0000 
      2 CA         15.9030   24.7230   29.9400 C.3       9 GLL5        0.0000 
      3 CA         11.7390   23.9680   29.0670 C.3       6 GLP5        0.0000 
      4 CA         17.8870   25.8125   28.4885 C.3       3 GLC5        0.0000 
      5 CA         18.6190   25.1880   30.2830 C.3       9 GLL5        0.0000 
      6 CA         17.1550   26.4370   26.6940 C.3       6 GLP5        0.0000 
      7 CA         16.5375   24.3225   31.6950 C.3       3 GLC5        0.0000 
      8 CA         18.0970   23.8130   30.3210 C.3       9 GLL5        0.0000 
      9 CA         14.9780   24.8320   33.0690 C.3       6 GLP5        0.0000 
     10 CA         20.0180   24.9185   32.4155 C.3       3 GLC5        0.0000 
     11 CA         20.9830   24.1770   30.7990 C.3       9 GLL5        0.0000 
     12 CA         19.0530   25.6600   34.0320 C.3       6 GLP5        0.0000 
     13 CA         22.1905   22.0080   33.1395 C.3       3 GLC5        0.0000 
     14 CA         22.0900   21.2970   31.3660 C.3       9 GLL5        0.0000 
     15 CA         22.2910   22.7190   34.9130 C.3       6 GLP5        0.0000 
     16 CA         23.2200   21.3020   33.0115 C.3       3 GLC5        0.0000 
     17 CA         22.6280   20.0110   31.4840 C.3       9 GLL5        0.0000 
     18 CA         23.8120   22.5930   34.5390 C.3       6 GLP5        0.0000 
     19 O          24.2065   17.4640   31.3105 O.2       1 ALC1        0.0000 
     20 O          22.7570   17.6690   30.7610 O.2       7 ALL1        0.0000 
     21 O          25.6560   17.2590   31.8600 O.2       4 ALP1        0.0000 
     22 O          14.3755   23.6150   29.5075 O.2       1 ALC1        0.0000 
     23 O          14.7150   24.6630   29.3450 O.2       7 ALL1        0.0000 
     24 O          14.0360   22.5670   29.6700 O.2       4 ALP1        0.0000 
     25 N          17.6700   28.3375   28.9040 N.am      2 SEC2        0.0000 
     26 N          17.9570   27.5720   29.9890 N.am      8 SEL2        0.0000 
     27 N          17.3830   29.1030   27.8190 N.am      5 SEP2        0.0000 
     28 N          16.4420   28.0605   29.2965 N.am      2 SEC2        0.0000 
     29 N          14.9270   28.5490   28.6040 N.am      5 SEP2        0.0000 
     30 CA         14.9845   26.7667   30.3377 C.3       3 GLC5        0.0000 
     31 CA         13.8470   28.1780   30.7480 C.3       6 GLP5        0.0000 
     32 CA         16.7434   25.7567   28.3352 C.3       3 GLC5        0.0000 
     33 CA         16.3410   25.9880   29.9150 C.3       9 GLL5        0.0000 
     34 CA         15.6549   24.9543   31.5228 C.3       3 GLC5        0.0000 
@<TRIPOS>BOND
@<TRIPOS>SUBSTRUCTURE
     1 ALC1       19 GROUP        1 X    ALC  0     ROOT ALC X 1
     2 SEC2       25 GROUP        1 X    SEC  0     **** SEC X 2
     3 GLC5        1 GROUP        1 X    GLC  0     **** GLC X 6
     4 ALP1       21 GROUP        1 Y    ALP  0     ROOT ALP Y 8
     5 SEP2       27 GROUP        1 Y    SEP  0     **** SEP Y 9
     6 GLP5        3 GROUP        1 Y    GLP  0     **** GLP Y 13
     7 ALL1       20 GROUP        1 Z    ALL  0     ROOT ALL Z 15
     8 SEL2       26 GROUP        1 Z    SEL  0     **** SEL Z 16
     9 GLL5        2 GROUP        1 Z    GLL  0     **** GLL Z 20
@<TRIPOS>SET

