#    Name: 2brt_NAR_1_ligand
#    Modification time : Mon Mar 24 21:34:06 2014

@<TRIPOS>MOLECULE
2brt_NAR_1_ligand
   31    33     1     0     0
SMALL
NO_CHARGES


@<TRIPOS>ATOM
      1 C1         16.7420   23.6070   30.1360 C.ar      1 NAR1352     0.0000 
      2 C2         15.9030   24.7230   29.9400 C.ar      1 NAR1352     0.0000 
      3 C3         16.3410   25.9880   29.9150 C.ar      1 NAR1352     0.0000 
      4 C4         17.6460   26.2820   30.0600 C.ar      1 NAR1352     0.0000 
      5 C5         18.6190   25.1880   30.2830 C.ar      1 NAR1352     0.0000 
      6 C6         18.0970   23.8130   30.3210 C.ar      1 NAR1352     0.0000 
      7 C7         20.0860   25.4460   30.5350 C.2       1 NAR1352     0.0000 
      8 C8         20.9830   24.1770   30.7990 C.3       1 NAR1352     0.0000 
      9 C9         20.3730   22.9030   30.1740 C.3       1 NAR1352     0.0000 
     10 O1         18.9650   22.7740   30.5220 O.3       1 NAR1352     0.0000 
     11 O2         20.4650   26.6670   30.6140 O.2       1 NAR1352     0.0000 
     12 C10        21.0650   21.5580   30.4250 C.ar      1 NAR1352     0.0000 
     13 C11        22.0900   21.2970   31.3660 C.ar      1 NAR1352     0.0000 
     14 C12        22.6280   20.0110   31.4840 C.ar      1 NAR1352     0.0000 
     15 C13        22.2090   18.9480   30.6640 C.ar      1 NAR1352     0.0000 
     16 C14        21.2280   19.1840   29.7140 C.ar      1 NAR1352     0.0000 
     17 C15        20.6610   20.4630   29.6060 C.ar      1 NAR1352     0.0000 
     18 O3         22.7570   17.6690   30.7610 O.3       1 NAR1352     0.0000 
     19 O4         14.7150   24.6630   29.3450 O.3       1 NAR1352     0.0000 
     20 O5         17.9570   27.5720   29.9890 O.co2     1 NAR1352     0.0000 
     21 H          16.3446   22.6688   30.1392 H         1 NAR1352     0.0000 
     22 H          15.6506   26.7730   29.7789 H         1 NAR1352     0.0000 
     23 H          21.0786   24.0448   31.8726 H         1 NAR1352     0.0000 
     24 H          21.9640   24.3581   30.3700 H         1 NAR1352     0.0000 
     25 H          20.4029   23.0601   29.0496 H         1 NAR1352     0.0000 
     26 H          22.4342   22.0579   31.9596 H         1 NAR1352     0.0000 
     27 H          23.3604   19.8324   32.1990 H         1 NAR1352     0.0000 
     28 H          20.9134   18.4346   29.0908 H         1 NAR1352     0.0000 
     29 H          19.9138   20.6288   28.9016 H         1 NAR1352     0.0000 
     30 H          23.6664   17.8063   31.1537 H         1 NAR1352     0.0000 
     31 H          14.6390   23.7227   29.0132 H         1 NAR1352     0.0000 
@<TRIPOS>BOND
     1    2    1 ar   
     2    6    1 ar   
     3   21    1 1    
     4    3    2 ar   
     5   19    2 1    
     6    4    3 ar   
     7   22    3 1    
     8    5    4 ar   
     9   20    4 ar   
    10    6    5 ar   
    11    7    5 1    
    12   10    6 1    
    13    8    7 1    
    14   11    7 2    
    15    9    8 1    
    16   23    8 1    
    17   24    8 1    
    18   10    9 1    
    19   12    9 1    
    20   25    9 1    
    21   13   12 ar   
    22   17   12 ar   
    23   14   13 ar   
    24   26   13 1    
    25   15   14 ar   
    26   27   14 1    
    27   16   15 ar   
    28   18   15 1    
    29   17   16 ar   
    30   28   16 1    
    31   29   17 1    
    32   30   18 1    
    33   31   19 1    
@<TRIPOS>SUBSTRUCTURE
     1 NAR1352     1 GROUP   
@<TRIPOS>SET

