#    Name: 1gr0_NAD_1_INTS_M
#    Modification time : Tue Mar 25 03:37:26 2014

@<TRIPOS>MOLECULE
1gr0_NAD_1_INTS_M
   97     0    12     0     0
SMALL
NO_CHARGES


@<TRIPOS>ATOM
      1 N         -11.8830   22.4700   16.4430 N.am      2 SEC2        0.0000 
      2 N         -10.7020   22.3600   15.7430 N.am     10 SEL2        0.0000 
      3 N         -13.0640   22.5800   17.1430 N.am      6 SEP2        0.0000 
      4 N          -8.3675   20.7260   18.5735 N.am      2 SEC2        0.0000 
      5 N          -9.3650   21.1210   17.4550 N.am     10 SEL2        0.0000 
      6 N          -7.3700   20.3310   19.6920 N.am      6 SEP2        0.0000 
      7 CA        -10.8355   25.8315   15.9840 C.3       4 GLC5        0.0000 
      8 CA         -9.9500   24.8900   17.4270 C.3      12 GLL5        0.0000 
      9 CA        -11.7210   26.7730   14.5410 C.3       8 GLP5        0.0000 
     10 CA         -9.5800   26.6460   19.8145 C.3       4 GLC5        0.0000 
     11 CA        -10.4840   25.4430   18.7310 C.3      12 GLL5        0.0000 
     12 CA         -8.6760   27.8490   20.8980 C.3       8 GLP5        0.0000 
     13 N         -11.9670   23.1935   21.3885 N.am      2 SEC2        0.0000 
     14 N         -11.5820   24.3550   20.6440 N.am     10 SEL2        0.0000 
     15 N         -12.3520   22.0320   22.1330 N.am      6 SEP2        0.0000 
     16 O         -11.6330   25.3770   21.6235 O.2       1 ALC1        0.0000 
     17 O         -11.5820   24.3550   20.6440 O.2       9 ALL1        0.0000 
     18 O         -11.6840   26.3990   22.6030 O.2       5 ALP1        0.0000 
     19 O         -13.8885   26.2205   21.2225 O.2       1 ALC1        0.0000 
     20 O         -13.9190   25.7860   19.9160 O.2       9 ALL1        0.0000 
     21 O         -13.8580   26.6550   22.5290 O.2       5 ALP1        0.0000 
     22 CA        -10.3020   27.4945   20.1220 C.3       4 GLC5        0.0000 
     23 CA        -11.9280   27.1400   19.3460 C.3      12 GLL5        0.0000 
     24 CA        -13.6360   30.7475   16.3990 C.3       4 GLC5        0.0000 
     25 CA        -13.0020   30.4740   18.5170 C.3      12 GLL5        0.0000 
     26 CA        -14.2700   31.0210   14.2810 C.3       8 GLP5        0.0000 
     27 CA        -14.8960   32.8435   18.6075 C.3       4 GLC5        0.0000 
     28 CA        -12.9840   31.8590   18.8720 C.3      12 GLL5        0.0000 
     29 CA        -16.8080   33.8280   18.3430 C.3       8 GLP5        0.0000 
     30 O         -14.0810   33.9830   18.7330 O.2       1 ALC1        0.0000 
     31 O         -13.5830   32.8240   18.1830 O.2       9 ALL1        0.0000 
     32 O         -14.5790   35.1420   19.2830 O.2       5 ALP1        0.0000 
     33 O         -14.5910   33.2835   17.2285 O.2       1 ALC1        0.0000 
     34 O         -15.5990   33.7430   16.2740 O.2       5 ALP1        0.0000 
     35 N         -11.8165   33.3065   20.7065 N.am      2 SEC2        0.0000 
     36 N         -12.2930   32.2190   20.0100 N.am     10 SEL2        0.0000 
     37 N         -11.3400   34.3940   21.4030 N.am      6 SEP2        0.0000 
     38 CA         -9.8120   31.8400   20.5285 C.3       4 GLC5        0.0000 
     39 CA        -11.6630   31.2290   20.7400 C.3      12 GLL5        0.0000 
     40 CA         -7.9610   32.4510   20.3170 C.3       8 GLP5        0.0000 
     41 CA        -12.1855   30.2870   22.2275 C.3       4 GLC5        0.0000 
     42 CA        -12.7080   29.3450   23.7150 C.3       8 GLP5        0.0000 
     43 CA        -13.7015   31.2225   20.8755 C.3       4 GLC5        0.0000 
     44 CA        -15.7400   31.2160   21.0110 C.3       8 GLP5        0.0000 
     45 CA        -10.4560   31.2950   19.1335 C.3       4 GLC5        0.0000 
     46 CA         -9.2490   31.3610   17.5270 C.3       8 GLP5        0.0000 
     47 CA        -10.4965   28.7280   20.1285 C.3       4 GLC5        0.0000 
     48 CA        -12.3170   29.6070   19.3590 C.3      12 GLL5        0.0000 
     49 CA        -12.5125   29.4760   21.5370 C.3       4 GLC5        0.0000 
     50 N          -5.2310   21.7540   18.1145 N.am      2 SEC2        0.0000 
     51 N          -5.8430   22.6420   17.1400 N.am     10 SEL2        0.0000 
     52 N          -4.6190   20.8660   19.0890 N.am      6 SEP2        0.0000 
     53 Zn         -5.4225   20.3155   15.0745 Zn        3 ZIC7        0.0000 
     54 Zn         -6.2860   20.9170   15.3220 Zn       11 ZIL7        0.0000 
     55 Zn         -4.5590   19.7140   14.8270 Zn        7 ZIP7        0.0000 
     56 CA         -4.3610   23.2580   15.9100 C.3       4 GLC5        0.0000 
     57 CA         -5.7320   24.4560   15.4080 C.3      12 GLL5        0.0000 
     58 CA         -2.9900   22.0600   16.4120 C.3       8 GLP5        0.0000 
     59 CA         -5.4755   25.6015   16.8880 C.3       4 GLC5        0.0000 
     60 CA         -5.2190   26.7470   18.3680 C.3       8 GLP5        0.0000 
     61 CA         -5.3905   26.5880   15.7420 C.3       4 GLC5        0.0000 
     62 CA         -5.5130   25.2890   14.1370 C.3      12 GLL5        0.0000 
     63 CA         -5.2680   27.8870   17.3470 C.3       8 GLP5        0.0000 
     64 CA         -8.1425   25.9775   12.9245 C.3       4 GLC5        0.0000 
     65 CA         -6.3250   24.9090   12.8770 C.3      12 GLL5        0.0000 
     66 CA         -9.9600   27.0460   12.9720 C.3       8 GLP5        0.0000 
     67 O          -7.0980   27.0655   13.0000 O.2       1 ALC1        0.0000 
     68 O          -6.6800   26.1130   12.1620 O.2       9 ALL1        0.0000 
     69 O          -7.5160   28.0180   13.8380 O.2       5 ALP1        0.0000 
     70 O          -6.6305   23.1605   10.7145 O.2       1 ALC1        0.0000 
     71 O          -5.6530   24.0860   10.6570 O.2       9 ALL1        0.0000 
     72 O          -7.6080   22.2350   10.7720 O.2       5 ALP1        0.0000 
     73 CA         -3.6580   26.9090   11.8880 C.3       4 GLC5        0.0000 
     74 CA         -4.0410   24.8270   12.3610 C.3      12 GLL5        0.0000 
     75 CA         -3.2750   28.9910   11.4150 C.3       8 GLP5        0.0000 
     76 O          -3.3575   19.2105   15.4375 O.2       1 ALC1        0.0000 
     77 O          -2.6360   20.1550   14.1640 O.2       9 ALL1        0.0000 
     78 O          -4.0790   18.2660   16.7110 O.2       5 ALP1        0.0000 
     79 CA          0.8770   21.8635   13.2895 C.3       4 GLC5        0.0000 
     80 CA         -0.5310   22.3030   11.6760 C.3      12 GLL5        0.0000 
     81 CA          2.2850   21.4240   14.9030 C.3       8 GLP5        0.0000 
     82 CA         -9.7845   23.5866   19.6583 C.3       4 GLC5        0.0000 
     83 CA         -8.5750   22.2000   20.6480 C.3       8 GLP5        0.0000 
     84 CA        -13.2097   24.1670   17.7717 C.3       4 GLC5        0.0000 
     85 CA        -11.7710   24.7800   19.2580 C.3      12 GLL5        0.0000 
     86 CA        -14.1430   22.9900   16.3920 C.3       8 GLP5        0.0000 
     87 CA        -14.1975   30.8014   20.0189 C.3       4 GLC5        0.0000 
     88 CA        -10.9520   30.8739   18.2769 C.3       4 GLC5        0.0000 
     89 CA         -6.6080   25.1242   10.5532 C.3       4 GLC5        0.0000 
     90 CA         -7.3870   25.7380    8.6360 C.3       8 GLP5        0.0000 
     91 CA         -2.5918   22.1747   14.5502 C.3       4 GLC5        0.0000 
     92 CA         -2.7700   22.7250   12.7880 C.3      12 GLL5        0.0000 
     93 CA          0.1155   23.5078   12.8148 C.3       4 GLC5        0.0000 
     94 CA         -1.6170   21.8540   12.5890 C.3      12 GLL5        0.0000 
     95 CA          1.3050   24.9370   13.4970 C.3       8 GLP5        0.0000 
     96 CA          0.0152   24.4793   12.3167 C.3       4 GLC5        0.0000 
     97 CA         -0.7290   23.6570   11.0150 C.3      12 GLL5        0.0000 
@<TRIPOS>BOND
@<TRIPOS>SUBSTRUCTURE
     1 ALC1       16 GROUP        1 X    ALC  0     ROOT ALC X 1
     2 SEC2        1 GROUP        1 X    SEC  0     **** SEC X 2
     3 ZIC7       53 GROUP        1 X    ZIC  0     **** ZIC X 5
     4 GLC5        7 GROUP        1 X    GLC  0     **** GLC X 6
     5 ALP1       18 GROUP        1 Y    ALP  0     ROOT ALP Y 8
     6 SEP2        3 GROUP        1 Y    SEP  0     **** SEP Y 9
     7 ZIP7       55 GROUP        1 Y    ZIP  0     **** ZIP Y 12
     8 GLP5        9 GROUP        1 Y    GLP  0     **** GLP Y 13
     9 ALL1       17 GROUP        1 Z    ALL  0     ROOT ALL Z 15
    10 SEL2        2 GROUP        1 Z    SEL  0     **** SEL Z 16
    11 ZIL7       54 GROUP        1 Z    ZIL  0     **** ZIL Z 19
    12 GLL5        8 GROUP        1 Z    GLL  0     **** GLL Z 20
@<TRIPOS>SET

