#    Name: 1gr0_NAD_1_ligand
#    Modification time : Tue Mar 25 03:37:26 2014

@<TRIPOS>MOLECULE
1gr0_NAD_1_ligand
   69    73     1     0     0
SMALL
NO_CHARGES


@<TRIPOS>ATOM
      1 PA         -9.5390   22.3650   16.6670 P.3       1 NAD1000     0.0000 
      2 O1A       -10.7020   22.3600   15.7430 O.co2     1 NAD1000     0.0000 
      3 O2A        -9.3650   21.1210   17.4550 O.co2     1 NAD1000     0.0000 
      4 O5B        -9.7070   23.5090   17.7720 O.3       1 NAD1000     0.0000 
      5 C5B        -9.9500   24.8900   17.4270 C.3       1 NAD1000     0.0000 
      6 C4B       -10.4840   25.4430   18.7310 C.3       1 NAD1000     0.0000 
      7 O4B       -10.8280   26.8560   18.5830 O.3       1 NAD1000     0.0000 
      8 C3B       -11.7710   24.7800   19.2580 C.3       1 NAD1000     0.0000 
      9 O3B       -11.5820   24.3550   20.6440 O.3       1 NAD1000     0.0000 
     10 C2B       -12.7820   25.9080   19.0450 C.3       1 NAD1000     0.0000 
     11 O2B       -13.9190   25.7860   19.9160 O.3       1 NAD1000     0.0000 
     12 C1B       -11.9280   27.1400   19.3460 C.3       1 NAD1000     0.0000 
     13 N9A       -12.4770   28.3700   18.8150 N.pl3     1 NAD1000     0.0000 
     14 C8A       -13.2410   28.5280   17.6860 C.2       1 NAD1000     0.0000 
     15 N7A       -13.5900   29.7970   17.4570 N.2       1 NAD1000     0.0000 
     16 C5A       -13.0020   30.4740   18.5170 C.ar      1 NAD1000     0.0000 
     17 C6A       -12.9840   31.8590   18.8720 C.ar      1 NAD1000     0.0000 
     18 N6A       -13.5830   32.8240   18.1830 N.pl3     1 NAD1000     0.0000 
     19 N1A       -12.2930   32.2190   20.0100 N.ar      1 NAD1000     0.0000 
     20 C2A       -11.6630   31.2290   20.7400 C.ar      1 NAD1000     0.0000 
     21 N3A       -11.6340   29.9260   20.4790 N.ar      1 NAD1000     0.0000 
     22 C4A       -12.3170   29.6070   19.3590 C.ar      1 NAD1000     0.0000 
     23 O3         -8.2200   22.6470   15.7980 O.3       1 NAD1000     0.0000 
     24 PN         -6.8040   22.0150   16.2310 P.3       1 NAD1000     0.0000 
     25 O1N        -5.8430   22.6420   17.1400 O.co2     1 NAD1000     0.0000 
     26 O2N        -6.2860   20.9170   15.3220 O.co2     1 NAD1000     0.0000 
     27 O5D        -6.4010   23.1540   15.0950 O.3       1 NAD1000     0.0000 
     28 C5D        -5.7320   24.4560   15.4080 C.3       1 NAD1000     0.0000 
     29 C4D        -5.5130   25.2890   14.1370 C.3       1 NAD1000     0.0000 
     30 O4D        -4.1210   25.2080   13.7390 O.3       1 NAD1000     0.0000 
     31 C3D        -6.3250   24.9090   12.8770 C.3       1 NAD1000     0.0000 
     32 O3D        -6.6800   26.1130   12.1620 O.3       1 NAD1000     0.0000 
     33 C2D        -5.3330   24.1120   12.0640 C.3       1 NAD1000     0.0000 
     34 O2D        -5.6530   24.0860   10.6570 O.3       1 NAD1000     0.0000 
     35 C1D        -4.0410   24.8270   12.3610 C.3       1 NAD1000     0.0000 
     36 N1N        -2.8800   23.9810   12.1350 N.pl3     1 NAD1000     0.0000 
     37 C2N        -2.7700   22.7250   12.7880 C.ar      1 NAD1000     0.0000 
     38 C3N        -1.6170   21.8540   12.5890 C.ar      1 NAD1000     0.0000 
     39 C7N        -1.6280   20.5630   13.3330 C.2       1 NAD1000     0.0000 
     40 O7N        -0.6130   19.8740   13.1210 O.2       1 NAD1000     0.0000 
     41 N7N        -2.6360   20.1550   14.1640 N.am      1 NAD1000     0.0000 
     42 C4N        -0.5310   22.3030   11.6760 C.ar      1 NAD1000     0.0000 
     43 C5N        -0.7290   23.6570   11.0150 C.ar      1 NAD1000     0.0000 
     44 C6N        -1.8200   24.3860   11.2580 C.ar      1 NAD1000     0.0000 
     45 H         -10.6993   24.9856   16.6775 H         1 NAD1000     0.0000 
     46 H          -9.0505   25.4005   17.1768 H         1 NAD1000     0.0000 
     47 H          -9.7296   25.3522   19.5069 H         1 NAD1000     0.0000 
     48 H         -12.0029   23.9860   18.5940 H         1 NAD1000     0.0000 
     49 H         -13.0277   25.9274   18.0097 H         1 NAD1000     0.0000 
     50 H         -11.7176   27.1738   20.3611 H         1 NAD1000     0.0000 
     51 H         -13.4996   27.7602   17.1071 H         1 NAD1000     0.0000 
     52 H         -13.5002   33.7479   18.5566 H         1 NAD1000     0.0000 
     53 H         -14.0626   32.5394   17.3530 H         1 NAD1000     0.0000 
     54 H         -11.1337   31.5771   21.6297 H         1 NAD1000     0.0000 
     55 H          -4.7611   24.2758   15.8771 H         1 NAD1000     0.0000 
     56 H          -6.3458   25.0360   16.1023 H         1 NAD1000     0.0000 
     57 H          -5.7376   26.3397   14.3633 H         1 NAD1000     0.0000 
     58 H          -7.1250   24.3167   13.1544 H         1 NAD1000     0.0000 
     59 H          -5.2714   23.1311   12.4983 H         1 NAD1000     0.0000 
     60 H          -4.0004   25.7097   11.7402 H         1 NAD1000     0.0000 
     61 H          -3.5123   22.4070   13.4196 H         1 NAD1000     0.0000 
     62 H          -2.5004   19.2763   14.6218 H         1 NAD1000     0.0000 
     63 H           0.2561   21.7778   11.5044 H         1 NAD1000     0.0000 
     64 H           0.0308   23.9432   10.3876 H         1 NAD1000     0.0000 
     65 H          -1.9491   25.3302   10.7928 H         1 NAD1000     0.0000 
     66 H         -11.6045   25.1996   21.1789 H         1 NAD1000     0.0000 
     67 H         -13.6134   26.1555   20.7936 H         1 NAD1000     0.0000 
     68 H          -7.0052   26.7452   12.8653 H         1 NAD1000     0.0000 
     69 H          -6.3582   23.3830   10.5650 H         1 NAD1000     0.0000 
@<TRIPOS>BOND
     1    2    1 ar   
     2    3    1 ar   
     3    4    1 1    
     4   23    1 1    
     5    5    4 1    
     6    6    5 1    
     7   45    5 1    
     8   46    5 1    
     9    7    6 1    
    10    8    6 1    
    11   47    6 1    
    12   12    7 1    
    13    9    8 1    
    14   10    8 1    
    15   48    8 1    
    16   66    9 1    
    17   11   10 1    
    18   12   10 1    
    19   49   10 1    
    20   67   11 1    
    21   13   12 1    
    22   50   12 1    
    23   14   13 1    
    24   22   13 1    
    25   15   14 2    
    26   51   14 1    
    27   16   15 1    
    28   17   16 ar   
    29   22   16 ar   
    30   18   17 1    
    31   19   17 ar   
    32   52   18 1    
    33   53   18 1    
    34   20   19 ar   
    35   21   20 ar   
    36   54   20 1    
    37   22   21 ar   
    38   24   23 1    
    39   25   24 ar   
    40   26   24 ar   
    41   27   24 1    
    42   28   27 1    
    43   29   28 1    
    44   55   28 1    
    45   56   28 1    
    46   30   29 1    
    47   31   29 1    
    48   57   29 1    
    49   35   30 1    
    50   32   31 1    
    51   33   31 1    
    52   58   31 1    
    53   68   32 1    
    54   34   33 1    
    55   35   33 1    
    56   59   33 1    
    57   69   34 1    
    58   36   35 1    
    59   60   35 1    
    60   37   36 ar   
    61   44   36 ar   
    62   38   37 ar   
    63   61   37 1    
    64   39   38 1    
    65   42   38 ar   
    66   40   39 2    
    67   41   39 am   
    68   62   41 1    
    69   43   42 ar   
    70   63   42 1    
    71   44   43 ar   
    72   64   43 1    
    73   65   44 1    
@<TRIPOS>SUBSTRUCTURE
     1 NAD1000     1 GROUP   
@<TRIPOS>SET

