#    Name: 3qdd_94M_1_INTS_M
#    Modification time : Tue Mar 25 09:40:22 2014

@<TRIPOS>MOLECULE
3qdd_94M_1_INTS_M
   55     0     6     0     0
SMALL
NO_CHARGES


@<TRIPOS>ATOM
      1 CA          0.9040   35.1335   22.6465 C.3       2 GLC5        0.0000 
      2 CA          1.3230   34.2990   24.6010 C.3       6 GLL5        0.0000 
      3 CA          0.4850   35.9680   20.6920 C.3       4 GLP5        0.0000 
      4 CA          2.5035   35.9085   25.3405 C.3       2 GLC5        0.0000 
      5 CA          3.6840   37.5180   26.0800 C.3       4 GLP5        0.0000 
      6 CA          1.7705   32.3875   25.3180 C.3       2 GLC5        0.0000 
      7 CA          2.2180   30.4760   26.0350 C.3       4 GLP5        0.0000 
      8 O           3.7780   33.5995   24.0755 O.2       1 ALC1        0.0000 
      9 O           2.3430   33.8000   23.9490 O.2       5 ALL1        0.0000 
     10 O           5.2130   33.3990   24.2020 O.2       3 ALP1        0.0000 
     11 CA         -0.2315   35.3550   22.7255 C.3       2 GLC5        0.0000 
     12 CA         -0.9480   34.7420   24.7590 C.3       6 GLL5        0.0000 
     13 CA          1.7865   37.3420   28.9650 C.3       2 GLC5        0.0000 
     14 CA          0.9770   36.1350   28.0080 C.3       6 GLL5        0.0000 
     15 CA          2.5960   38.5490   29.9220 C.3       4 GLP5        0.0000 
     16 CA          1.8760   35.1655   29.3665 C.3       2 GLC5        0.0000 
     17 CA          2.7750   34.1960   30.7250 C.3       4 GLP5        0.0000 
     18 CA         -3.3795   31.0715   27.1370 C.3       2 GLC5        0.0000 
     19 CA         -4.5440   29.4950   26.3880 C.3       6 GLL5        0.0000 
     20 CA         -2.2150   32.6480   27.8860 C.3       4 GLP5        0.0000 
     21 CA         -4.3715   29.6395   28.0855 C.3       2 GLC5        0.0000 
     22 CA         -4.1990   29.7840   29.7830 C.3       4 GLP5        0.0000 
     23 CA         -3.2265   28.2965   25.3910 C.3       2 GLC5        0.0000 
     24 CA         -1.9090   27.0980   24.3940 C.3       4 GLP5        0.0000 
     25 CA         -5.2660   27.8365   26.3160 C.3       2 GLC5        0.0000 
     26 CA         -5.9880   26.1780   26.2440 C.3       4 GLP5        0.0000 
     27 CA         -6.4495   29.9795   23.2135 C.3       2 GLC5        0.0000 
     28 CA         -7.1600   30.5510   24.7860 C.3       6 GLL5        0.0000 
     29 CA         -5.7390   29.4080   21.6410 C.3       4 GLP5        0.0000 
     30 CA         -8.4210   31.2805   23.2560 C.3       2 GLC5        0.0000 
     31 CA         -9.6820   32.0100   21.7260 C.3       4 GLP5        0.0000 
     32 CA         -7.4570   28.7140   24.7345 C.3       2 GLC5        0.0000 
     33 CA         -7.7540   26.8770   24.6830 C.3       4 GLP5        0.0000 
     34 CA         -1.5255   31.4460   26.0780 C.3       2 GLC5        0.0000 
     35 CA         -2.2590   31.3860   24.3800 C.3       6 GLL5        0.0000 
     36 CA         -0.7920   31.5060   27.7760 C.3       4 GLP5        0.0000 
     37 CA         -2.8045   30.4280   22.9750 C.3       2 GLC5        0.0000 
     38 CA         -3.3500   29.4700   21.5700 C.3       4 GLP5        0.0000 
     39 CA         -1.4470   29.7200   25.3895 C.3       2 GLC5        0.0000 
     40 CA         -0.6350   28.0540   26.3990 C.3       4 GLP5        0.0000 
     41 CA         -5.4625   32.7775   22.1115 C.3       2 GLC5        0.0000 
     42 CA         -6.2670   32.7750   23.9830 C.3       6 GLL5        0.0000 
     43 CA         -4.6580   32.7800   20.2400 C.3       4 GLP5        0.0000 
     44 CA         -1.5248   33.8443   26.6375 C.3       2 GLC5        0.0000 
     45 CA          2.2308   36.6400   26.6595 C.3       2 GLC5        0.0000 
     46 CA          0.5780   35.3890   26.4700 C.3       6 GLL5        0.0000 
     47 CA         -0.4267   34.6805   28.2610 C.3       2 GLC5        0.0000 
     48 CA         -1.6310   33.5990   29.2830 C.3       4 GLP5        0.0000 
     49 CA         -3.2073   32.0688   26.1393 C.3       2 GLC5        0.0000 
     50 CA         -3.6860   31.9250   24.2390 C.3       6 GLL5        0.0000 
     51 CA         -4.1174   32.8109   22.0738 C.3       2 GLC5        0.0000 
     52 CA         -3.9870   33.2430   23.7850 C.3       6 GLL5        0.0000 
     53 CA         -5.0731   32.9785   25.9154 C.3       2 GLC5        0.0000 
     54 CA         -4.7130   31.0540   24.5460 C.3       6 GLL5        0.0000 
     55 CA         -5.5140   33.8680   27.6320 C.3       4 GLP5        0.0000 
@<TRIPOS>BOND
@<TRIPOS>SUBSTRUCTURE
     1 ALC1        8 GROUP        1 X    ALC  0     ROOT ALC X 1
     2 GLC5        1 GROUP        1 X    GLC  0     **** GLC X 6
     3 ALP1       10 GROUP        1 Y    ALP  0     ROOT ALP Y 8
     4 GLP5        3 GROUP        1 Y    GLP  0     **** GLP Y 13
     5 ALL1        9 GROUP        1 Z    ALL  0     ROOT ALL Z 15
     6 GLL5        2 GROUP        1 Z    GLL  0     **** GLL Z 20
@<TRIPOS>SET

