#    Name: 3qdd_94M_1_ligand
#    Modification time : Tue Mar 25 09:40:22 2014

@<TRIPOS>MOLECULE
3qdd_94M_1_ligand
   37    39     1     0     0
SMALL
NO_CHARGES


@<TRIPOS>ATOM
      1 N1          1.5940   34.8750   25.7580 N.ar      1 94M999      0.0000 
      2 C2          1.3230   34.2990   24.6010 C.ar      1 94M999      0.0000 
      3 N2          2.3430   33.8000   23.9490 N.pl3     1 94M999      0.0000 
      4 N3          0.0960   34.2200   24.0790 N.ar      1 94M999      0.0000 
      5 C4         -0.9480   34.7420   24.7590 C.ar      1 94M999      0.0000 
      6 C5         -0.7210   35.3390   26.0190 C.ar      1 94M999      0.0000 
      7 C6          0.5780   35.3890   26.4700 C.ar      1 94M999      0.0000 
      8 CL6         0.9770   36.1350   28.0080 Cl        1 94M999      0.0000 
      9 N7         -1.9240   35.8120   26.4480 N.2       1 94M999      0.0000 
     10 C8         -2.8620   35.4420   25.5740 C.2       1 94M999      0.0000 
     11 N9         -2.2570   34.8210   24.5490 N.pl3     1 94M999      0.0000 
     12 CAA        -4.5440   29.4950   26.3880 C.3       1 94M999      0.0000 
     13 CAB        -7.1600   30.5510   24.7860 C.3       1 94M999      0.0000 
     14 CAC        -2.2590   31.3860   24.3800 C.3       1 94M999      0.0000 
     15 CAF        -6.2670   32.7750   23.9830 C.ar      1 94M999      0.0000 
     16 CAH        -2.9480   34.2740   23.3670 C.3       1 94M999      0.0000 
     17 NAI        -5.2630   33.6260   23.6720 N.ar      1 94M999      0.0000 
     18 OAM        -4.4450   29.7890   25.0020 O.3       1 94M999      0.0000 
     19 CAN        -6.0190   31.4930   24.4680 C.ar      1 94M999      0.0000 
     20 CAP        -3.6860   31.9250   24.2390 C.ar      1 94M999      0.0000 
     21 CAR        -3.9870   33.2430   23.7850 C.ar      1 94M999      0.0000 
     22 CAS        -4.7130   31.0540   24.5460 C.ar      1 94M999      0.0000 
     23 H           3.2398   33.9235   24.3738 H         1 94M999      0.0000 
     24 H           2.1317   33.3411   23.0860 H         1 94M999      0.0000 
     25 H          -3.8146   35.5929   25.6598 H         1 94M999      0.0000 
     26 H          -7.2638   33.0714   23.8621 H         1 94M999      0.0000 
     27 H          -2.2321   33.7936   22.6931 H         1 94M999      0.0000 
     28 H          -3.4524   35.0727   22.8146 H         1 94M999      0.0000 
     29 H          -4.3228   28.5392   26.5816 H         1 94M999      0.0000 
     30 H          -3.9203   30.0562   26.9322 H         1 94M999      0.0000 
     31 H          -5.4665   29.6590   26.7375 H         1 94M999      0.0000 
     32 H          -6.8305   29.6687   25.1222 H         1 94M999      0.0000 
     33 H          -7.7655   30.9249   25.4886 H         1 94M999      0.0000 
     34 H          -7.7240   30.3659   23.9813 H         1 94M999      0.0000 
     35 H          -1.7723   31.3906   23.5065 H         1 94M999      0.0000 
     36 H          -1.7176   31.9312   25.0200 H         1 94M999      0.0000 
     37 H          -2.2492   30.4442   24.7161 H         1 94M999      0.0000 
@<TRIPOS>BOND
     1    2    1 ar   
     2    7    1 ar   
     3    3    2 1    
     4    4    2 ar   
     5   23    3 1    
     6   24    3 1    
     7    5    4 ar   
     8    6    5 ar   
     9   11    5 1    
    10    7    6 ar   
    11    9    6 1    
    12    8    7 1    
    13   10    9 2    
    14   11   10 1    
    15   25   10 1    
    16   16   11 1    
    17   18   12 1    
    18   29   12 1    
    19   30   12 1    
    20   31   12 1    
    21   19   13 1    
    22   32   13 1    
    23   33   13 1    
    24   34   13 1    
    25   20   14 1    
    26   35   14 1    
    27   36   14 1    
    28   37   14 1    
    29   17   15 ar   
    30   19   15 ar   
    31   26   15 1    
    32   21   16 1    
    33   27   16 1    
    34   28   16 1    
    35   21   17 ar   
    36   22   18 1    
    37   22   19 ar   
    38   21   20 ar   
    39   22   20 ar   
@<TRIPOS>SUBSTRUCTURE
     1 94M999      1 GROUP   
@<TRIPOS>SET

