#    Name: 3tnf_GNP_1_INTS_M
#    Modification time : Mon Mar 24 20:25:47 2014

@<TRIPOS>MOLECULE
3tnf_GNP_1_INTS_M
   90     0    15     0     0
SMALL
NO_CHARGES


@<TRIPOS>ATOM
      1 N          32.6440   -5.1060   20.2925 N.am      2 SEC2        0.0000 
      2 N          32.3870   -4.2610   19.0710 N.am     12 SEL2        0.0000 
      3 N          32.9010   -5.9510   21.5140 N.am      7 SEP2        0.0000 
      4 N          32.1505   -3.5575   20.3175 N.am      2 SEC2        0.0000 
      5 N          31.9140   -2.8540   21.5640 N.am      7 SEP2        0.0000 
      6 Zn         35.4785   -2.3705   18.3820 Zn        4 ZIC7        0.0000 
      7 Zn         34.8450   -3.4080   18.8390 Zn       14 ZIL7        0.0000 
      8 Zn         36.1120   -1.3330   17.9250 Zn        9 ZIP7        0.0000 
      9 N          35.1985   -3.9045   20.2140 N.am      2 SEC2        0.0000 
     10 N          34.8450   -3.4080   18.8390 N.am     12 SEL2        0.0000 
     11 N          35.5520   -4.4010   21.5890 N.am      7 SEP2        0.0000 
     12 N          35.9605   -3.0605   19.3810 N.am      2 SEC2        0.0000 
     13 N          37.0760   -2.7130   19.9230 N.am      7 SEP2        0.0000 
     14 NZ         32.6375   -1.2940   17.0260 N.4       3 LYC4        0.0000 
     15 NZ         32.7420   -2.1330   18.0570 N.4      13 LYL4        0.0000 
     16 NZ         32.5330   -0.4550   15.9950 N.4       8 LYP4        0.0000 
     17 N          32.6375   -1.2940   17.0260 N.am      2 SEC2        0.0000 
     18 N          32.7420   -2.1330   18.0570 N.am     12 SEL2        0.0000 
     19 N          32.5330   -0.4550   15.9950 N.am      7 SEP2        0.0000 
     20 N          32.1640   -1.2320   18.9605 N.am      2 SEC2        0.0000 
     21 N          31.5860   -0.3310   19.8640 N.am      7 SEP2        0.0000 
     22 NZ         33.1715   -1.5200   15.4310 N.4       3 LYC4        0.0000 
     23 NZ         33.8100   -2.5850   14.8670 N.4      13 LYL4        0.0000 
     24 N          33.9605   -3.1180   13.4450 N.am      2 SEC2        0.0000 
     25 N          33.8100   -2.5850   14.8670 N.am     12 SEL2        0.0000 
     26 N          34.1110   -3.6510   12.0230 N.am      7 SEP2        0.0000 
     27 N          34.8425   -2.1400   13.9205 N.am      2 SEC2        0.0000 
     28 N          35.8750   -1.6950   12.9740 N.am      7 SEP2        0.0000 
     29 N          33.1715   -1.5200   15.4310 N.am      2 SEC2        0.0000 
     30 Zn         35.9580   -2.2760   17.1665 Zn        4 ZIC7        0.0000 
     31 Zn         35.8040   -3.2190   16.4080 Zn       14 ZIL7        0.0000 
     32 N          36.9085   -2.5335   15.6570 N.am      2 SEC2        0.0000 
     33 N          35.8040   -3.2190   16.4080 N.am     12 SEL2        0.0000 
     34 N          38.0130   -1.8480   14.9060 N.am      7 SEP2        0.0000 
     35 N          38.5030   -4.0420   13.8255 N.am      2 SEC2        0.0000 
     36 N          37.3250   -4.7500   14.2170 N.am     12 SEL2        0.0000 
     37 N          39.6810   -3.3340   13.4340 N.am      7 SEP2        0.0000 
     38 CA         33.0165   -6.7330   14.1800 C.3       5 GLC5        0.0000 
     39 CA         34.8020   -7.5200   13.8150 C.3      15 GLL5        0.0000 
     40 CA         31.2310   -5.9460   14.5450 C.3      10 GLP5        0.0000 
     41 CA         35.1645   -5.6385   12.7650 C.3       5 GLC5        0.0000 
     42 CA         35.5270   -3.7570   11.7150 C.3      10 GLP5        0.0000 
     43 CA         34.0525  -10.3690   12.8845 C.3       5 GLC5        0.0000 
     44 CA         35.0670   -8.9080   13.2350 C.3      15 GLL5        0.0000 
     45 CA         33.0380  -11.8300   12.5340 C.3      10 GLP5        0.0000 
     46 N          33.9585   -8.4480   11.0535 N.am      2 SEC2        0.0000 
     47 N          35.0750   -8.8950   11.7930 N.am     12 SEL2        0.0000 
     48 N          32.8420   -8.0010   10.3140 N.am      7 SEP2        0.0000 
     49 CA         34.8090  -10.7890   13.7615 C.3       5 GLC5        0.0000 
     50 CA         36.3740   -9.5790   13.6420 C.3      15 GLL5        0.0000 
     51 CA         33.2440  -11.9990   13.8810 C.3      10 GLP5        0.0000 
     52 O          37.1770  -11.9685   13.7480 O.2       1 ALC1        0.0000 
     53 O          36.1220  -10.9660   13.7430 O.2      11 ALL1        0.0000 
     54 O          38.2320  -12.9710   13.7530 O.2       6 ALP1        0.0000 
     55 CA         38.6455   -8.0020   12.6675 C.3       5 GLC5        0.0000 
     56 CA         37.3150   -9.3190   12.4730 C.3      15 GLL5        0.0000 
     57 CA         39.9760   -6.6850   12.8620 C.3      10 GLP5        0.0000 
     58 O          39.6540  -10.3665   12.7650 O.2       1 ALC1        0.0000 
     59 O          38.2740  -10.3520   12.2780 O.2      11 ALL1        0.0000 
     60 O          41.0340  -10.3810   13.2520 O.2       6 ALP1        0.0000 
     61 CA         34.6970  -10.5580   11.9165 C.3       5 GLC5        0.0000 
     62 CA         36.3560   -9.2860   11.2990 C.3      15 GLL5        0.0000 
     63 N          36.6050   -5.1570    8.6620 N.am      2 SEC2        0.0000 
     64 N          37.2940   -6.3670    9.2940 N.am     12 SEL2        0.0000 
     65 N          35.9160   -3.9470    8.0300 N.am      7 SEP2        0.0000 
     66 CA         35.4980   -6.9800    7.6565 C.3       5 GLC5        0.0000 
     67 CA         37.1340   -7.3550    8.3280 C.3      15 GLL5        0.0000 
     68 CA         33.8620   -6.6050    6.9850 C.3      10 GLP5        0.0000 
     69 CA         38.8220   -5.8855    8.2070 C.3       5 GLC5        0.0000 
     70 CA         40.5100   -4.4160    8.0860 C.3      10 GLP5        0.0000 
     71 N          36.1680   -5.5245    5.6060 N.am      2 SEC2        0.0000 
     72 N          37.6070   -6.2790    6.2360 N.am     12 SEL2        0.0000 
     73 N          34.7290   -4.7700    4.9760 N.am      7 SEP2        0.0000 
     74 N          38.7110   -5.4635    5.9730 N.am      2 SEC2        0.0000 
     75 N          39.8150   -4.6480    5.7100 N.am      7 SEP2        0.0000 
     76 N          39.2985   -6.5940    6.1310 N.am      2 SEC2        0.0000 
     77 N          40.9900   -6.9090    6.0260 N.am      7 SEP2        0.0000 
     78 O          37.0230   -8.3935    4.8645 O.2       1 ALC1        0.0000 
     79 O          37.0160   -8.4990    6.2870 O.2      11 ALL1        0.0000 
     80 O          37.0300   -8.2880    3.4420 O.2       6 ALP1        0.0000 
     81 O          36.7990  -10.6010    4.7400 O.2       1 ALC1        0.0000 
     82 O          36.4420  -10.7330    6.2140 O.2      11 ALL1        0.0000 
     83 O          37.1560  -10.4690    3.2660 O.2       6 ALP1        0.0000 
     84 CA         34.9780   -8.0910    8.3955 C.3       5 GLC5        0.0000 
     85 CA         36.7720   -8.5600    8.9080 C.3      15 GLL5        0.0000 
     86 CA         33.1840   -7.6220    7.8830 C.3      10 GLP5        0.0000 
     87 CA         35.2111   -8.9772   15.4098 C.3       5 GLC5        0.0000 
     88 CA         34.7680   -9.0580   17.2360 C.3      10 GLP5        0.0000 
     89 CA         38.4868   -9.6322   10.6860 C.3       5 GLC5        0.0000 
     90 CA         40.1380   -9.9620    9.4860 C.3      10 GLP5        0.0000 
@<TRIPOS>BOND
@<TRIPOS>SUBSTRUCTURE
     1 ALC1       52 GROUP        1 X    ALC  0     ROOT ALC X 1
     2 SEC2        1 GROUP        1 X    SEC  0     **** SEC X 2
     3 LYC4       14 GROUP        1 X    LYC  0     **** LYC X 4
     4 ZIC7        6 GROUP        1 X    ZIC  0     **** ZIC X 5
     5 GLC5       38 GROUP        1 X    GLC  0     **** GLC X 6
     6 ALP1       54 GROUP        1 Y    ALP  0     ROOT ALP Y 8
     7 SEP2        3 GROUP        1 Y    SEP  0     **** SEP Y 9
     8 LYP4       16 GROUP        1 Y    LYP  0     **** LYP Y 11
     9 ZIP7        8 GROUP        1 Y    ZIP  0     **** ZIP Y 12
    10 GLP5       40 GROUP        1 Y    GLP  0     **** GLP Y 13
    11 ALL1       53 GROUP        1 Z    ALL  0     ROOT ALL Z 15
    12 SEL2        2 GROUP        1 Z    SEL  0     **** SEL Z 16
    13 LYL4       15 GROUP        1 Z    LYL  0     **** LYL Z 18
    14 ZIL7        7 GROUP        1 Z    ZIL  0     **** ZIL Z 19
    15 GLL5       39 GROUP        1 Z    GLL  0     **** GLL Z 20
@<TRIPOS>SET

