#    Name: 3tnf_GNP_1_ligand
#    Modification time : Mon Mar 24 20:25:47 2014

@<TRIPOS>MOLECULE
3tnf_GNP_1_ligand
   44    46     1     0     0
SMALL
NO_CHARGES


@<TRIPOS>ATOM
      1 PG         33.4080   -3.4660   18.3040 P.3       1 GNP200      0.0000 
      2 O1G        32.3870   -4.2610   19.0710 O.co2     1 GNP200      0.0000 
      3 O2G        34.8450   -3.4080   18.8390 O.co2     1 GNP200      0.0000 
      4 O3G        32.7420   -2.1330   18.0570 O.co2     1 GNP200      0.0000 
      5 N3B        33.6260   -4.1730   16.8500 N.4       1 GNP200      0.0000 
      6 PB         34.5700   -3.5900   15.6600 P.3       1 GNP200      0.0000 
      7 O1B        33.8100   -2.5850   14.8670 O.co2     1 GNP200      0.0000 
      8 O2B        35.8040   -3.2190   16.4080 O.co2     1 GNP200      0.0000 
      9 O3A        34.9570   -4.6990   14.6540 O.3       1 GNP200      0.0000 
     10 PA         36.2240   -5.5830   14.7440 P.3       1 GNP200      0.0000 
     11 O1A        37.3250   -4.7500   14.2170 O.co2     1 GNP200      0.0000 
     12 O2A        36.4350   -6.2300   16.0870 O.co2     1 GNP200      0.0000 
     13 O5'        35.9800   -6.7800   13.7440 O.3       1 GNP200      0.0000 
     14 C5'        34.8020   -7.5200   13.8150 C.3       1 GNP200      0.0000 
     15 C4'        35.0670   -8.9080   13.2350 C.3       1 GNP200      0.0000 
     16 O4'        35.0750   -8.8950   11.7930 O.3       1 GNP200      0.0000 
     17 C3'        36.3740   -9.5790   13.6420 C.3       1 GNP200      0.0000 
     18 O3'        36.1220  -10.9660   13.7430 O.3       1 GNP200      0.0000 
     19 C2'        37.3150   -9.3190   12.4730 C.3       1 GNP200      0.0000 
     20 O2'        38.2740  -10.3520   12.2780 O.3       1 GNP200      0.0000 
     21 C1'        36.3560   -9.2860   11.2990 C.3       1 GNP200      0.0000 
     22 N9         36.7240   -8.3260   10.2580 N.pl3     1 GNP200      0.0000 
     23 C8         37.0420   -6.9890   10.4180 C.2       1 GNP200      0.0000 
     24 N7         37.2940   -6.3670    9.2940 N.2       1 GNP200      0.0000 
     25 C5         37.1340   -7.3550    8.3280 C.2       1 GNP200      0.0000 
     26 C6         37.2870   -7.2740    6.9080 C.2       1 GNP200      0.0000 
     27 O6         37.6070   -6.2790    6.2360 O.2       1 GNP200      0.0000 
     28 N1         37.0160   -8.4990    6.2870 N.am      1 GNP200      0.0000 
     29 C2         36.6600   -9.6530    6.9610 C.2       1 GNP200      0.0000 
     30 N2         36.4420  -10.7330    6.2140 N.pl3     1 GNP200      0.0000 
     31 N3         36.5230   -9.7440    8.2860 N.2       1 GNP200      0.0000 
     32 C4         36.7720   -8.5600    8.9080 C.2       1 GNP200      0.0000 
     33 H          33.9859   -7.0748   13.2353 H         1 GNP200      0.0000 
     34 H          34.4493   -7.6581   14.8430 H         1 GNP200      0.0000 
     35 H          34.2502   -9.5813   13.5625 H         1 GNP200      0.0000 
     36 H          36.7399   -9.1347   14.5019 H         1 GNP200      0.0000 
     37 H          37.7294   -8.3515   12.5812 H         1 GNP200      0.0000 
     38 H          36.2925  -10.2810   10.8795 H         1 GNP200      0.0000 
     39 H          37.0668   -6.5706   11.3287 H         1 GNP200      0.0000 
     40 H          37.0903   -8.5376    5.2317 H         1 GNP200      0.0000 
     41 H          36.5891  -10.6250    5.2308 H         1 GNP200      0.0000 
     42 H          36.1508  -11.5550    6.7034 H         1 GNP200      0.0000 
     43 H          36.8633  -11.4015   13.2323 H         1 GNP200      0.0000 
     44 H          39.0972  -10.0327   12.7474 H         1 GNP200      0.0000 
@<TRIPOS>BOND
     1    2    1 ar   
     2    3    1 ar   
     3    4    1 ar   
     4    5    1 1    
     5    6    5 1    
     6    7    6 ar   
     7    8    6 ar   
     8    9    6 1    
     9   10    9 1    
    10   11   10 ar   
    11   12   10 ar   
    12   13   10 1    
    13   14   13 1    
    14   15   14 1    
    15   33   14 1    
    16   34   14 1    
    17   16   15 1    
    18   17   15 1    
    19   35   15 1    
    20   21   16 1    
    21   18   17 1    
    22   19   17 1    
    23   36   17 1    
    24   43   18 1    
    25   20   19 1    
    26   21   19 1    
    27   37   19 1    
    28   44   20 1    
    29   22   21 1    
    30   38   21 1    
    31   23   22 1    
    32   32   22 1    
    33   24   23 2    
    34   39   23 1    
    35   25   24 1    
    36   26   25 1    
    37   32   25 2    
    38   27   26 2    
    39   28   26 am   
    40   29   28 1    
    41   40   28 1    
    42   30   29 1    
    43   31   29 2    
    44   41   30 1    
    45   42   30 1    
    46   32   31 1    
@<TRIPOS>SUBSTRUCTURE
     1 GNP200      1 GROUP   
@<TRIPOS>SET

