#    Name: 3E9H_2_CAVITY_N1_6.mol2
#    Modification time : Mon Mar 10 12:42:15 2014

@<TRIPOS>MOLECULE
3E9H_2_CAVITY_N1_6.mol2
  128     0     6     0     0
SMALL
NO_CHARGES


@<TRIPOS>ATOM
      1 O          75.0320  -74.6007   52.0409 O.2       1 ALA2        0.0000 
      2 O          76.3305  -75.3239   52.2435 O.2       1 ALA2        0.0000 
      3 NZ         77.6289  -76.0471   52.4460 N.2       3 LYS4        0.0000 
      4 OD1        77.0510  -77.2676   51.7931 O.3       2 ASP3        0.0000 
      5 OD1        76.4731  -78.4881   51.1402 O.3       2 ASP3        0.0000 
      6 O          75.8951  -79.7086   50.4873 O.2       1 ALA2        0.0000 
      7 O          74.0187  -80.2060   49.6318 O.2       1 ALA2        0.0000 
      8 O          75.3172  -80.9292   49.8343 O.2       1 ALA2        0.0000 
      9 N          73.4408  -81.4265   48.9788 N.2       1 ALA2        0.0000 
     10 O          74.7393  -82.1497   49.1814 O.2       1 ALA2        0.0000 
     11 O          76.0377  -82.8729   49.3840 O.2       1 ALA2        0.0000 
     12 NZ         74.1613  -83.3702   48.5285 N.2       3 LYS4        0.0000 
     13 CA         75.4598  -84.0934   48.7310 C.3       5 GLY6        0.0000 
     14 CA         76.9505  -72.6521   46.7003 C.3       5 GLY6        0.0000 
     15 O          78.2490  -73.3753   46.9028 O.2       1 ALA2        0.0000 
     16 CZ         76.3726  -73.8726   46.0473 C.ar      4 PHE5        0.0000 
     17 CZ         77.6711  -74.5958   46.2499 C.ar      4 PHE5        0.0000 
     18 OD1        78.9695  -75.3190   46.4525 O.3       2 ASP3        0.0000 
     19 CZ         78.3916  -76.5395   45.7996 C.ar      4 PHE5        0.0000 
     20 CA         79.6900  -77.2627   46.0021 C.3       5 GLY6        0.0000 
     21 CZ         77.8136  -77.7601   45.1466 C.ar      4 PHE5        0.0000 
     22 N          75.1303  -73.8673   54.0290 N.2       1 ALA2        0.0000 
     23 DU         76.4288  -74.5905   54.2316 H         6 CUB7        0.0000 
     24 DU         77.7272  -75.3137   54.4341 H         6 CUB7        0.0000 
     25 NZ         79.0257  -76.0369   54.6367 N.2       3 LYS4        0.0000 
     26 N          75.8509  -75.8110   53.5786 N.2       1 ALA2        0.0000 
     27 DU         77.1493  -76.5342   53.7812 H         6 CUB7        0.0000 
     28 N          73.9745  -76.3083   52.7231 N.2       1 ALA2        0.0000 
     29 O          75.2729  -77.0315   52.9257 O.2       1 ALA2        0.0000 
     30 OD1        76.5714  -77.7547   53.1283 O.3       2 ASP3        0.0000 
     31 CA         74.6950  -78.2521   52.2728 C.3       5 GLY6        0.0000 
     32 OD1        75.9934  -78.9753   52.4753 O.3       2 ASP3        0.0000 
     33 CA         74.1171  -79.4726   51.6198 C.3       5 GLY6        0.0000 
     34 O          75.4155  -80.1958   51.8224 O.2       1 ALA2        0.0000 
     35 N          73.5391  -80.6931   50.9669 N.2       1 ALA2        0.0000 
     36 O          74.8376  -81.4163   51.1695 O.2       1 ALA2        0.0000 
     37 NZ         74.2596  -82.6368   50.5166 N.2       3 LYS4        0.0000 
     38 NZ         74.9801  -84.5805   50.0662 N.2       3 LYS4        0.0000 
     39 N          72.1002  -82.1545   54.9724 N.2       1 ALA2        0.0000 
     40 CZ         73.3987  -82.8777   55.1750 C.ar      4 PHE5        0.0000 
     41 CZ         74.6971  -83.6009   55.3775 C.ar      4 PHE5        0.0000 
     42 CZ         72.8208  -84.0983   54.5220 C.ar      4 PHE5        0.0000 
     43 NZ         76.4709  -73.1392   48.0354 N.2       3 LYS4        0.0000 
     44 O          77.7694  -73.8624   48.2380 O.2       1 ALA2        0.0000 
     45 O          79.0678  -74.5856   48.4406 O.2       1 ALA2        0.0000 
     46 O          75.8930  -74.3598   47.3825 O.2       1 ALA2        0.0000 
     47 O          77.1914  -75.0830   47.5851 O.2       1 ALA2        0.0000 
     48 O          78.4899  -75.8062   47.7876 O.2       1 ALA2        0.0000 
     49 O          79.7883  -76.5293   47.9902 O.2       1 ALA2        0.0000 
     50 CZ         76.6135  -76.3035   46.9321 C.ar      4 PHE5        0.0000 
     51 CZ         77.9119  -77.0267   47.1347 C.ar      4 PHE5        0.0000 
     52 NZ         79.2104  -77.7499   47.3373 N.2       3 LYS4        0.0000 
     53 NZ         80.5088  -78.4731   47.5399 N.2       3 LYS4        0.0000 
     54 CA         77.3340  -78.2472   46.4818 C.3       5 GLY6        0.0000 
     55 O          78.6324  -78.9704   46.6844 O.2       1 ALA2        0.0000 
     56 N          79.9309  -79.6936   46.8869 N.2       1 ALA2        0.0000 
     57 O          78.0545  -80.1909   46.0314 O.2       1 ALA2        0.0000 
     58 O          75.7547  -81.8933   54.6953 O.2       1 ALA2        0.0000 
     59 N          72.5799  -81.6674   53.6372 N.2       1 ALA2        0.0000 
     60 CZ         73.8783  -82.3906   53.8398 C.ar      4 PHE5        0.0000 
     61 CZ         75.1768  -83.1138   54.0424 C.ar      4 PHE5        0.0000 
     62 CZ         73.3004  -83.6111   53.1869 C.ar      4 PHE5        0.0000 
     63 N          75.6100  -73.3802   52.6938 N.2       1 ALA2        0.0000 
     64 DU         76.9084  -74.1033   52.8964 H         6 CUB7        0.0000 
     65 NZ         78.2069  -74.8265   53.0990 N.2       3 LYS4        0.0000 
     66 NZ         79.5053  -75.5497   53.3015 N.2       3 LYS4        0.0000 
     67 N          76.6675  -71.6725   52.0116 N.2       1 ALA2        0.0000 
     68 N          77.9660  -72.3957   52.2142 N.2       1 ALA2        0.0000 
     69 N          79.2644  -73.1189   52.4167 N.2       1 ALA2        0.0000 
     70 NZ         76.0896  -72.8930   51.3587 N.2       3 LYS4        0.0000 
     71 N          77.3880  -73.6162   51.5612 N.2       1 ALA2        0.0000 
     72 NZ         78.6865  -74.3394   51.7638 N.2       3 LYS4        0.0000 
     73 O          76.8101  -74.8367   50.9083 O.2       1 ALA2        0.0000 
     74 NZ         78.1085  -75.5599   51.1109 N.2       3 LYS4        0.0000 
     75 O          77.5306  -76.7804   50.4580 O.2       1 ALA2        0.0000 
     76 O          76.9527  -78.0010   49.8050 O.2       1 ALA2        0.0000 
     77 O          76.3747  -79.2215   49.1521 O.2       1 ALA2        0.0000 
     78 CA         77.6732  -79.9447   49.3547 C.3       5 GLY6        0.0000 
     79 CA         75.7968  -80.4420   48.4992 C.3       5 GLY6        0.0000 
     80 CA         77.0953  -81.1652   48.7017 C.3       5 GLY6        0.0000 
     81 CA         75.2189  -81.6625   47.8462 C.3       5 GLY6        0.0000 
     82 CA         76.5173  -82.3857   48.0488 C.3       5 GLY6        0.0000 
     83 CA         77.4302  -72.1649   45.3651 C.3       5 GLY6        0.0000 
     84 N          78.7286  -72.8881   45.5677 N.2       1 ALA2        0.0000 
     85 CZ         76.8522  -73.3855   44.7122 C.ar      4 PHE5        0.0000 
     86 CZ         78.1507  -74.1087   44.9148 C.ar      4 PHE5        0.0000 
     87 O          79.4491  -74.8319   45.1173 O.2       1 ALA2        0.0000 
     88 CA         75.3712  -76.2982   54.9138 C.3       5 GLY6        0.0000 
     89 DU         76.6697  -77.0214   55.1164 H         6 CUB7        0.0000 
     90 OD1        77.9681  -77.7446   55.3189 O.3       2 ASP3        0.0000 
     91 CA         74.7933  -77.5187   54.2609 C.3       5 GLY6        0.0000 
     92 OD1        76.0917  -78.2419   54.4634 O.3       2 ASP3        0.0000 
     93 OD1        77.3902  -78.9651   54.6660 O.3       2 ASP3        0.0000 
     94 O          74.2154  -78.7392   53.6079 O.2       1 ALA2        0.0000 
     95 O          75.5138  -79.4624   53.8105 O.2       1 ALA2        0.0000 
     96 CA         73.6374  -79.9597   52.9550 C.3       5 GLY6        0.0000 
     97 O          74.9359  -80.6829   53.1576 O.2       1 ALA2        0.0000 
     98 O          74.3579  -81.9035   52.5046 O.2       1 ALA2        0.0000 
     99 NZ         73.7800  -83.1240   51.8517 N.2       3 LYS4        0.0000 
    100 O          75.0784  -83.8472   52.0543 O.2       1 ALA2        0.0000 
    101 CA         78.8712  -76.0524   44.4644 C.3       5 GLY6        0.0000 
    102 N          79.2082  -72.4010   44.2325 N.2       1 ALA2        0.0000 
    103 CZ         78.6303  -73.6215   43.5796 C.ar      4 PHE5        0.0000 
    104 O          79.9287  -74.3447   43.7822 O.2       1 ALA2        0.0000 
    105 CA         74.3137  -78.0058   55.5960 C.3       5 GLY6        0.0000 
    106 O          75.6121  -78.7290   55.7986 O.2       1 ALA2        0.0000 
    107 O          76.9106  -79.4522   56.0012 O.2       1 ALA2        0.0000 
    108 O          73.7357  -79.2264   54.9431 O.2       1 ALA2        0.0000 
    109 O          75.0342  -79.9496   55.1457 O.2       1 ALA2        0.0000 
    110 CA         73.1578  -80.4469   54.2902 C.3       5 GLY6        0.0000 
    111 O          74.4562  -81.1701   54.4927 O.2       1 ALA2        0.0000 
    112 N          79.7440  -72.6317   51.0816 N.2       1 ALA2        0.0000 
    113 NZ         76.5692  -72.4059   50.0235 N.2       3 LYS4        0.0000 
    114 N          77.8677  -73.1291   50.2261 N.2       1 ALA2        0.0000 
    115 N          79.1661  -73.8523   50.4287 N.2       1 ALA2        0.0000 
    116 O          80.4645  -74.5754   50.6312 O.2       1 ALA2        0.0000 
    117 O          75.9913  -73.6264   49.3706 O.2       1 ALA2        0.0000 
    118 O          77.2897  -74.3496   49.5732 O.2       1 ALA2        0.0000 
    119 O          78.5882  -75.0728   49.7757 O.2       1 ALA2        0.0000 
    120 NZ         79.8866  -75.7960   49.9783 N.2       3 LYS4        0.0000 
    121 O          78.0102  -76.2933   49.1228 O.2       1 ALA2        0.0000 
    122 NZ         79.3087  -77.0165   49.3254 N.2       3 LYS4        0.0000 
    123 O          77.4323  -77.5138   48.4699 O.2       1 ALA2        0.0000 
    124 NZ         78.7308  -78.2370   48.6724 N.2       3 LYS4        0.0000 
    125 CA         76.8544  -78.7343   47.8169 C.3       5 GLY6        0.0000 
    126 NZ         78.1528  -79.4575   48.0195 N.2       3 LYS4        0.0000 
    127 NZ         79.4513  -80.1807   48.2221 N.2       3 LYS4        0.0000 
    128 N          77.5749  -80.6781   47.3666 N.2       1 ALA2        0.0000 
@<TRIPOS>BOND
@<TRIPOS>SUBSTRUCTURE
     1 ALA2        1 GROUP   
     2 ASP3        4 GROUP   
     3 LYS4        3 GROUP   
     4 PHE5       16 GROUP   
     5 GLY6       13 GROUP   
     6 CUB7       23 GROUP   
@<TRIPOS>SET

