#    Name: 3e9h_KAA_2_INTS_M
#    Modification time : Tue Mar 25 01:16:57 2014

@<TRIPOS>MOLECULE
3e9h_KAA_2_INTS_M
  101     0    15     0     0
SMALL
NO_CHARGES


@<TRIPOS>ATOM
      1 OD1        72.9130  -86.2450   50.6700 O.co2     3 ASC3        0.0000 
      2 OD1        73.8000  -87.4040   50.6640 O.co2    13 ASL3        0.0000 
      3 OD1        72.0260  -85.0860   50.6760 O.co2     8 ASP3        0.0000 
      4 OD1        72.5125  -87.0395   51.3320 O.co2     3 ASC3        0.0000 
      5 OD1        71.2250  -86.6750   52.0000 O.co2     8 ASP3        0.0000 
      6 OD1        74.0190  -88.7085   50.8535 O.co2     3 ASC3        0.0000 
      7 OD1        74.2380  -90.0130   51.0430 O.co2     8 ASP3        0.0000 
      8 OD1        73.3165  -88.7025   51.6930 O.co2     3 ASC3        0.0000 
      9 OD1        72.8330  -90.0010   52.7220 O.co2     8 ASP3        0.0000 
     10 O          72.5125  -87.0395   51.3320 O.2       1 ALC1        0.0000 
     11 O          73.8000  -87.4040   50.6640 O.2      11 ALL1        0.0000 
     12 O          71.2250  -86.6750   52.0000 O.2       6 ALP1        0.0000 
     13 O          73.1250  -87.4040   49.4415 O.2       1 ALC1        0.0000 
     14 O          72.4500  -87.4040   48.2190 O.2       6 ALP1        0.0000 
     15 O          74.0190  -88.7085   50.8535 O.2       1 ALC1        0.0000 
     16 O          74.2380  -90.0130   51.0430 O.2       6 ALP1        0.0000 
     17 O          73.3165  -88.7025   51.6930 O.2       1 ALC1        0.0000 
     18 O          72.8330  -90.0010   52.7220 O.2       6 ALP1        0.0000 
     19 CA         74.6630  -87.1775   52.2400 C.3       5 GLC5        0.0000 
     20 CA         75.2410  -87.1000   50.6940 C.3      15 GLL5        0.0000 
     21 CA         74.0850  -87.2550   53.7860 C.3      10 GLP5        0.0000 
     22 CA         75.5770  -88.9315   49.6085 C.3       5 GLC5        0.0000 
     23 CA         75.9130  -90.7630   48.5230 C.3      10 GLP5        0.0000 
     24 CA         75.0320  -85.7675   52.0650 C.3       5 GLC5        0.0000 
     25 CA         75.5130  -85.6180   50.4150 C.3      15 GLL5        0.0000 
     26 CA         74.5510  -85.9170   53.7150 C.3      10 GLP5        0.0000 
     27 CA         76.4770  -86.5335   48.0530 C.3       5 GLC5        0.0000 
     28 CA         74.9740  -85.1950   49.0460 C.3      15 GLL5        0.0000 
     29 CA         77.9800  -87.8720   47.0600 C.3      10 GLP5        0.0000 
     30 CA         74.3145  -83.9620   46.7815 C.3       5 GLC5        0.0000 
     31 CA         75.1030  -83.6900   48.7940 C.3      15 GLL5        0.0000 
     32 CA         73.5260  -84.2340   44.7690 C.3      10 GLP5        0.0000 
     33 OD1        72.3990  -84.0635   49.9190 O.co2     3 ASC3        0.0000 
     34 OD1        72.7720  -83.0410   49.1620 O.co2    13 ASL3        0.0000 
     35 OD1        72.4160  -83.1000   47.7825 O.co2     3 ASC3        0.0000 
     36 OD1        72.0600  -83.1590   46.4030 O.co2     8 ASP3        0.0000 
     37 OD1        72.5460  -84.1915   47.8695 O.co2     3 ASC3        0.0000 
     38 OD1        72.3200  -85.3420   46.5770 O.co2     8 ASP3        0.0000 
     39 O          71.8830  -82.4995   50.1840 O.2       1 ALC1        0.0000 
     40 O          72.7720  -83.0410   49.1620 O.2      11 ALL1        0.0000 
     41 O          70.9940  -81.9580   51.2060 O.2       6 ALP1        0.0000 
     42 O          72.3990  -84.0635   49.9190 O.2       1 ALC1        0.0000 
     43 O          72.0260  -85.0860   50.6760 O.2       6 ALP1        0.0000 
     44 O          72.4160  -83.1000   47.7825 O.2       1 ALC1        0.0000 
     45 O          72.0600  -83.1590   46.4030 O.2       6 ALP1        0.0000 
     46 N          73.4925  -79.0980   48.8450 N.am      2 SEC2        0.0000 
     47 N          73.7260  -80.5720   48.9290 N.am     12 SEL2        0.0000 
     48 N          73.2590  -77.6240   48.7610 N.am      7 SEP2        0.0000 
     49 O          76.3905  -81.6785   51.1205 O.2       1 ALC1        0.0000 
     50 O          75.6570  -81.0500   50.0110 O.2      11 ALL1        0.0000 
     51 O          77.1240  -82.3070   52.2300 O.2       6 ALP1        0.0000 
     52 Zn         77.3715  -80.5110   51.5675 Zn        4 ZIC7        0.0000 
     53 Zn         75.6570  -81.0500   50.0110 Zn       14 ZIL7        0.0000 
     54 Zn         79.0860  -79.9720   53.1240 Zn        9 ZIP7        0.0000 
     55 N          75.0040  -77.1940   50.0240 N.am      2 SEC2        0.0000 
     56 N          75.5610  -78.5480   50.4430 N.am     12 SEL2        0.0000 
     57 N          74.4470  -75.8400   49.6050 N.am      7 SEP2        0.0000 
     58 N          74.4100  -78.0860   49.6020 N.am      2 SEC2        0.0000 
     59 CA         79.3125  -78.8980   45.0715 C.3       5 GLC5        0.0000 
     60 CA         78.4120  -79.0930   46.8880 C.3      15 GLL5        0.0000 
     61 CA         80.2130  -78.7030   43.2550 C.3      10 GLP5        0.0000 
     62 O          80.4485  -79.0600   49.5930 O.2       1 ALC1        0.0000 
     63 O          80.2680  -79.2370   48.4420 O.2      11 ALL1        0.0000 
     64 O          80.6290  -78.8830   50.7440 O.2       6 ALP1        0.0000 
     65 CA         81.3575  -76.1300   46.2140 C.3       5 GLC5        0.0000 
     66 CA         79.8910  -77.2730   47.0420 C.3      15 GLL5        0.0000 
     67 CA         82.8240  -74.9870   45.3860 C.3      10 GLP5        0.0000 
     68 O          81.8800  -79.0665   46.0545 O.2       1 ALC1        0.0000 
     69 O          81.0760  -77.7150   46.3760 O.2      11 ALL1        0.0000 
     70 O          82.6840  -80.4180   45.7330 O.2       6 ALP1        0.0000 
     71 CA         77.1290  -76.6385   45.0890 C.3       5 GLC5        0.0000 
     72 CA         78.7770  -76.9690   46.0380 C.3      15 GLL5        0.0000 
     73 CA         75.4810  -76.3080   44.1400 C.3      10 GLP5        0.0000 
     74 CA         78.7995  -71.1150   44.6945 C.3       5 GLC5        0.0000 
     75 CA         78.5310  -73.0950   44.0310 C.3      15 GLL5        0.0000 
     76 CA         79.0680  -69.1350   45.3580 C.3      10 GLP5        0.0000 
     77 CA         77.2480  -73.3285   42.7835 C.3       5 GLC5        0.0000 
     78 CA         75.9650  -73.5620   41.5360 C.3      10 GLP5        0.0000 
     79 CA         79.2710  -71.9880   42.7785 C.3       5 GLC5        0.0000 
     80 CA         80.0110  -70.8810   41.5260 C.3      10 GLP5        0.0000 
     81 N          77.5265  -70.6425   44.0915 N.am      2 SEC2        0.0000 
     82 N          77.6880  -72.2230   44.5580 N.am     12 SEL2        0.0000 
     83 N          77.3650  -69.0620   43.6250 N.am      7 SEP2        0.0000 
     84 CA         76.4695  -73.0390   43.5965 C.3       5 GLC5        0.0000 
     85 CA         76.9740  -72.5160   45.6570 C.3      15 GLL5        0.0000 
     86 O          75.5500  -70.8085   44.8905 O.2       1 ALC1        0.0000 
     87 O          76.0890  -71.6310   46.1070 O.2      11 ALL1        0.0000 
     88 O          75.0110  -69.9860   43.6740 O.2       6 ALP1        0.0000 
     89 O          75.5745  -71.1805   47.5090 O.2       1 ALC1        0.0000 
     90 O          75.0600  -70.7300   48.9110 O.2       6 ALP1        0.0000 
     91 CA         77.3550  -86.7940   50.8363 C.3       5 GLC5        0.0000 
     92 CA         79.3330  -87.2290   51.1180 C.3      10 GLP5        0.0000 
     93 CA         76.2848  -84.3287   47.4820 C.3       5 GLC5        0.0000 
     94 CA         77.5310  -84.2150   46.0440 C.3      10 GLP5        0.0000 
     95 CA         76.1260  -79.3423   46.4912 C.3       5 GLC5        0.0000 
     96 CA         77.3220  -79.9500   47.5470 C.3      15 GLL5        0.0000 
     97 CA         74.3850  -79.1630   45.7650 C.3      10 GLP5        0.0000 
     98 CA         79.7735  -77.9120   44.8975 C.3       5 GLC5        0.0000 
     99 CA         77.5842  -71.7510   47.2220 C.3       5 GLC5        0.0000 
    100 CA         77.1290  -73.7600   46.2630 C.3      15 GLL5        0.0000 
    101 CA         78.1170  -70.3640   48.4840 C.3      10 GLP5        0.0000 
@<TRIPOS>BOND
@<TRIPOS>SUBSTRUCTURE
     1 ALC1       10 GROUP        1 X    ALC  0     ROOT ALC X 1
     2 SEC2       46 GROUP        1 X    SEC  0     **** SEC X 2
     3 ASC3        1 GROUP        1 X    ASC  0     **** ASC X 3
     4 ZIC7       52 GROUP        1 X    ZIC  0     **** ZIC X 5
     5 GLC5       19 GROUP        1 X    GLC  0     **** GLC X 6
     6 ALP1       12 GROUP        1 Y    ALP  0     ROOT ALP Y 8
     7 SEP2       48 GROUP        1 Y    SEP  0     **** SEP Y 9
     8 ASP3        3 GROUP        1 Y    ASP  0     **** ASP Y 10
     9 ZIP7       54 GROUP        1 Y    ZIP  0     **** ZIP Y 12
    10 GLP5       21 GROUP        1 Y    GLP  0     **** GLP Y 13
    11 ALL1       11 GROUP        1 Z    ALL  0     ROOT ALL Z 15
    12 SEL2       47 GROUP        1 Z    SEL  0     **** SEL Z 16
    13 ASL3        2 GROUP        1 Z    ASL  0     **** ASL Z 17
    14 ZIL7       53 GROUP        1 Z    ZIL  0     **** ZIL Z 19
    15 GLL5       20 GROUP        1 Z    GLL  0     **** GLL Z 20
@<TRIPOS>SET

