#    Name: 3e9h_KAA_2_ligand
#    Modification time : Tue Mar 25 01:16:57 2014

@<TRIPOS>MOLECULE
3e9h_KAA_2_ligand
   60    62     1     0     0
SMALL
NO_CHARGES


@<TRIPOS>ATOM
      1 NZ         73.8000  -87.4040   50.6640 N.4       1 KAA2003     0.0000 
      2 CE         75.2410  -87.1000   50.6940 C.3       1 KAA2003     0.0000 
      3 CD         75.5130  -85.6180   50.4150 C.3       1 KAA2003     0.0000 
      4 CG         74.9740  -85.1950   49.0460 C.3       1 KAA2003     0.0000 
      5 CB         75.1030  -83.6900   48.7940 C.3       1 KAA2003     0.0000 
      6 CA         74.1470  -82.8390   49.6400 C.3       1 KAA2003     0.0000 
      7 N          72.7720  -83.0410   49.1620 N.4       1 KAA2003     0.0000 
      8 C          74.5380  -81.3830   49.3780 C.2       1 KAA2003     0.0000 
      9 O          73.7260  -80.5720   48.9290 O.2       1 KAA2003     0.0000 
     10 N8         75.6570  -81.0500   50.0110 N.am      1 KAA2003     0.0000 
     11 S1         76.3900  -79.6140   49.7970 S.o2      1 KAA2003     0.0000 
     12 O1S        75.5610  -78.5480   50.4430 O.2       1 KAA2003     0.0000 
     13 O2S        77.7430  -79.6900   50.4410 O.2       1 KAA2003     0.0000 
     14 O5'        76.4570  -79.2120   48.4210 O.3       1 KAA2003     0.0000 
     15 C5'        77.3220  -79.9500   47.5470 C.3       1 KAA2003     0.0000 
     16 C4'        78.4120  -79.0930   46.8880 C.3       1 KAA2003     0.0000 
     17 O4'        77.8350  -78.0450   46.0910 O.3       1 KAA2003     0.0000 
     18 C3'        79.2680  -78.3590   47.9190 C.3       1 KAA2003     0.0000 
     19 O3'        80.2680  -79.2370   48.4420 O.3       1 KAA2003     0.0000 
     20 C2'        79.8910  -77.2730   47.0420 C.3       1 KAA2003     0.0000 
     21 O2'        81.0760  -77.7150   46.3760 O.3       1 KAA2003     0.0000 
     22 C1'        78.7770  -76.9690   46.0380 C.3       1 KAA2003     0.0000 
     23 N9         77.9920  -75.7640   46.3890 N.pl3     1 KAA2003     0.0000 
     24 C8         77.1370  -75.5990   47.3970 C.2       1 KAA2003     0.0000 
     25 N7         76.6060  -74.3810   47.3180 N.2       1 KAA2003     0.0000 
     26 C5         77.1290  -73.7600   46.2630 C.ar      1 KAA2003     0.0000 
     27 C4         78.0200  -74.6440   45.6720 C.ar      1 KAA2003     0.0000 
     28 N3         78.7030  -74.2890   44.5720 N.ar      1 KAA2003     0.0000 
     29 C2         78.5310  -73.0950   44.0310 C.ar      1 KAA2003     0.0000 
     30 N1         77.6880  -72.2230   44.5580 N.ar      1 KAA2003     0.0000 
     31 C6         76.9740  -72.5160   45.6570 C.ar      1 KAA2003     0.0000 
     32 N6         76.0890  -71.6310   46.1070 N.pl3     1 KAA2003     0.0000 
     33 H          75.7761  -87.6942   49.9412 H         1 KAA2003     0.0000 
     34 H          75.6669  -87.3476   51.6755 H         1 KAA2003     0.0000 
     35 H          76.5889  -85.4397   50.4475 H         1 KAA2003     0.0000 
     36 H          75.0369  -85.0151   51.1897 H         1 KAA2003     0.0000 
     37 H          73.9172  -85.4800   48.9741 H         1 KAA2003     0.0000 
     38 H          75.5202  -85.7363   48.2637 H         1 KAA2003     0.0000 
     39 H          74.9117  -83.4879   47.7297 H         1 KAA2003     0.0000 
     40 H          76.1370  -83.3794   49.0051 H         1 KAA2003     0.0000 
     41 H          74.2655  -83.0633   50.6473 H         1 KAA2003     0.0000 
     42 H          76.1722  -81.6321   50.6820 H         1 KAA2003     0.0000 
     43 H          76.7478  -80.4381   46.7299 H         1 KAA2003     0.0000 
     44 H          77.8339  -80.7745   48.0890 H         1 KAA2003     0.0000 
     45 H          79.0528  -79.7107   46.2990 H         1 KAA2003     0.0000 
     46 H          78.6449  -77.9159   48.6205 H         1 KAA2003     0.0000 
     47 H          80.0307  -76.4045   47.6410 H         1 KAA2003     0.0000 
     48 H          79.1871  -76.8766   45.0648 H         1 KAA2003     0.0000 
     49 H          76.9333  -76.2636   48.0820 H         1 KAA2003     0.0000 
     50 H          79.0761  -72.8330   43.1631 H         1 KAA2003     0.0000 
     51 H          75.8844  -71.6716   47.0850 H         1 KAA2003     0.0000 
     52 H          75.7080  -71.0049   45.4267 H         1 KAA2003     0.0000 
     53 H          73.6207  -88.3713   50.8436 H         1 KAA2003     0.0000 
     54 H          73.2955  -86.8801   51.3503 H         1 KAA2003     0.0000 
     55 H          73.3938  -87.1906   49.7755 H         1 KAA2003     0.0000 
     56 H          72.4920  -83.9986   49.2303 H         1 KAA2003     0.0000 
     57 H          72.1130  -82.5046   49.6892 H         1 KAA2003     0.0000 
     58 H          72.6687  -82.7730   48.2042 H         1 KAA2003     0.0000 
     59 H          80.6955  -78.7269   49.1884 H         1 KAA2003     0.0000 
     60 H          81.2747  -78.6124   46.7699 H         1 KAA2003     0.0000 
@<TRIPOS>BOND
     1    2    1 1    
     2   53    1 1    
     3   54    1 1    
     4   55    1 1    
     5    3    2 1    
     6   33    2 1    
     7   34    2 1    
     8    4    3 1    
     9   35    3 1    
    10   36    3 1    
    11    5    4 1    
    12   37    4 1    
    13   38    4 1    
    14    6    5 1    
    15   39    5 1    
    16   40    5 1    
    17    7    6 1    
    18    8    6 1    
    19   41    6 1    
    20   56    7 1    
    21   57    7 1    
    22   58    7 1    
    23    9    8 2    
    24   10    8 am   
    25   11   10 1    
    26   42   10 1    
    27   12   11 2    
    28   13   11 2    
    29   14   11 1    
    30   15   14 1    
    31   16   15 1    
    32   43   15 1    
    33   44   15 1    
    34   17   16 1    
    35   18   16 1    
    36   45   16 1    
    37   22   17 1    
    38   19   18 1    
    39   20   18 1    
    40   46   18 1    
    41   59   19 1    
    42   21   20 1    
    43   22   20 1    
    44   47   20 1    
    45   60   21 1    
    46   23   22 1    
    47   48   22 1    
    48   24   23 1    
    49   27   23 1    
    50   25   24 2    
    51   49   24 1    
    52   26   25 1    
    53   27   26 ar   
    54   31   26 ar   
    55   28   27 ar   
    56   29   28 ar   
    57   30   29 ar   
    58   50   29 1    
    59   31   30 ar   
    60   32   31 1    
    61   51   32 1    
    62   52   32 1    
@<TRIPOS>SUBSTRUCTURE
     1 KAA2003     1 GROUP   
@<TRIPOS>SET

