#    Name: 3k1o_POZ_1_INTS_M
#    Modification time : Mon Mar 24 17:57:57 2014

@<TRIPOS>MOLECULE
3k1o_POZ_1_INTS_M
   72     0     3     0     0
SMALL
NO_CHARGES


@<TRIPOS>ATOM
      1 CA        -53.5490    0.2315   -7.0065 C.3       1 GLC5        0.0000 
      2 CA        -51.7860    1.3380   -6.4510 C.3       3 GLL5        0.0000 
      3 CA        -55.3120   -0.8750   -7.5620 C.3       2 GLP5        0.0000 
      4 CA        -51.2040    0.1665   -7.9500 C.3       1 GLC5        0.0000 
      5 CA        -50.6220   -1.0050   -9.4490 C.3       2 GLP5        0.0000 
      6 CA        -35.0360   15.9145  -19.8320 C.3       1 GLC5        0.0000 
      7 CA        -36.1990   15.0650  -21.4760 C.3       3 GLL5        0.0000 
      8 CA        -33.8730   16.7640  -18.1880 C.3       2 GLP5        0.0000 
      9 CA        -38.5770   13.0065  -16.2065 C.3       1 GLC5        0.0000 
     10 CA        -37.7290   12.3440  -18.0410 C.3       3 GLL5        0.0000 
     11 CA        -39.4250   13.6690  -14.3720 C.3       2 GLP5        0.0000 
     12 CA        -37.5015   13.6895  -17.1635 C.3       1 GLC5        0.0000 
     13 CA        -37.2740   15.0350  -16.2860 C.3       2 GLP5        0.0000 
     14 CA        -36.7230   12.0030  -16.1550 C.3       1 GLC5        0.0000 
     15 CA        -35.7170   11.6620  -14.2690 C.3       2 GLP5        0.0000 
     16 CA        -41.6510    6.5820  -17.4700 C.3       1 GLC5        0.0000 
     17 CA        -43.3050    7.6660  -17.4610 C.3       3 GLL5        0.0000 
     18 CA        -39.9970    5.4980  -17.4790 C.3       2 GLP5        0.0000 
     19 CA        -44.6755    4.2265  -11.6055 C.3       1 GLC5        0.0000 
     20 CA        -46.6130    3.7640  -11.6940 C.3       3 GLL5        0.0000 
     21 CA        -42.7380    4.6890  -11.5170 C.3       2 GLP5        0.0000 
     22 CA        -42.9690   10.4650  -20.5640 C.3       1 GLC5        0.0000 
     23 CA        -41.2350    9.8340  -19.9540 C.3       3 GLL5        0.0000 
     24 CA        -44.7030   11.0960  -21.1740 C.3       2 GLP5        0.0000 
     25 CA        -47.1935    8.9830  -14.3530 C.3       1 GLC5        0.0000 
     26 CA        -46.9560    7.2040  -14.4840 C.3       3 GLL5        0.0000 
     27 CA        -47.4310   10.7620  -14.2220 C.3       2 GLP5        0.0000 
     28 CA        -44.2545    5.7605  -13.3020 C.3       1 GLC5        0.0000 
     29 CA        -45.4840    5.3290  -15.1050 C.3       3 GLL5        0.0000 
     30 CA        -43.0250    6.1920  -11.4990 C.3       2 GLP5        0.0000 
     31 CA        -47.1035    6.4685  -11.9725 C.3       1 GLC5        0.0000 
     32 CA        -47.9570    6.1760  -13.9980 C.3       3 GLL5        0.0000 
     33 CA        -46.2500    6.7610   -9.9470 C.3       2 GLP5        0.0000 
     34 CA        -48.4305    8.3245  -14.2300 C.3       1 GLC5        0.0000 
     35 CA        -48.9040   10.4730  -14.4620 C.3       2 GLP5        0.0000 
     36 CA        -49.6620    6.1950  -14.2825 C.3       1 GLC5        0.0000 
     37 CA        -51.3670    6.2140  -14.5670 C.3       2 GLP5        0.0000 
     38 CA        -43.9205   11.0785  -19.1400 C.3       1 GLC5        0.0000 
     39 CA        -42.4750   10.9870  -18.3060 C.3       3 GLL5        0.0000 
     40 CA        -45.3660   11.1700  -19.9740 C.3       2 GLP5        0.0000 
     41 CA        -42.0765   12.7670  -17.0250 C.3       1 GLC5        0.0000 
     42 CA        -41.6780   14.5470  -15.7440 C.3       2 GLP5        0.0000 
     43 CA        -38.5420    7.8275  -19.2935 C.3       1 GLC5        0.0000 
     44 CA        -38.2390    9.8770  -18.9100 C.3       3 GLL5        0.0000 
     45 CA        -38.8450    5.7780  -19.6770 C.3       2 GLP5        0.0000 
     46 CA        -42.7325   11.7640  -20.4995 C.3       1 GLC5        0.0000 
     47 CA        -41.3690   11.3180  -19.2940 C.3       3 GLL5        0.0000 
     48 CA        -44.0960   12.2100  -21.7050 C.3       2 GLP5        0.0000 
     49 CA        -41.2390   13.1795  -20.1165 C.3       1 GLC5        0.0000 
     50 CA        -41.1090   15.0410  -20.9390 C.3       2 GLP5        0.0000 
     51 CA        -52.8430    2.5745   -7.1205 C.3       1 GLC5        0.0000 
     52 CA        -51.5320    2.7840   -6.0770 C.3       3 GLL5        0.0000 
     53 CA        -54.0270    3.0880   -7.9770 C.3       2 GLP5        0.0000 
     54 CA        -36.0927   15.7758  -22.6992 C.3       1 GLC5        0.0000 
     55 CA        -36.9220   14.0360  -21.0550 C.3       3 GLL5        0.0000 
     56 CA        -35.6250   17.0010  -24.1330 C.3       2 GLP5        0.0000 
     57 CA        -35.5647   11.9711  -18.8772 C.3       1 GLC5        0.0000 
     58 CA        -37.6830   12.6790  -19.3130 C.3       3 GLL5        0.0000 
     59 CA        -33.8110   10.8180  -18.5540 C.3       2 GLP5        0.0000 
     60 CA        -49.6010    6.5228  -10.3185 C.3       1 GLC5        0.0000 
     61 CA        -48.6600    5.0110  -11.7130 C.3       3 GLL5        0.0000 
     62 CA        -50.3600    8.3210   -9.5270 C.3       2 GLP5        0.0000 
     63 CA        -45.8862    3.3133  -15.8350 C.3       1 GLC5        0.0000 
     64 CA        -46.4970    4.4000  -14.4490 C.3       3 GLL5        0.0000 
     65 CA        -45.7820    1.7620  -16.8930 C.3       2 GLP5        0.0000 
     66 CA        -46.1947    9.5368  -15.1611 C.3       1 GLC5        0.0000 
     67 CA        -45.2080    7.4250  -16.0400 C.3       3 GLL5        0.0000 
     68 CA        -45.5347    7.9756  -18.0868 C.3       1 GLC5        0.0000 
     69 CA        -45.1940    8.8000  -15.8540 C.3       3 GLL5        0.0000 
     70 CA        -46.8270    7.7220  -19.5130 C.3       2 GLP5        0.0000 
     71 CA        -47.0348    5.4280  -10.5258 C.3       1 GLC5        0.0000 
     72 CA        -47.4700    4.6480  -12.3020 C.3       3 GLL5        0.0000 
@<TRIPOS>BOND
@<TRIPOS>SUBSTRUCTURE
     1 GLC5        1 GROUP        1 X    GLC  0     ROOT GLC X 6
     2 GLP5        3 GROUP        1 Y    GLP  0     ROOT GLP Y 13
     3 GLL5        2 GROUP        1 Z    GLL  0     ROOT GLL Z 20
@<TRIPOS>SET

