#    Name: 3k1o_POZ_1_ligand
#    Modification time : Mon Mar 24 17:57:57 2014

@<TRIPOS>MOLECULE
3k1o_POZ_1_ligand
   93    99     1     0     0
SMALL
NO_CHARGES


@<TRIPOS>ATOM
      1 CAA       -51.7860    1.3380   -6.4510 C.3       1 POZ490      0.0000 
      2 CAB       -48.4050    1.8670   -4.1170 C.3       1 POZ490      0.0000 
      3 OAC       -50.0310    4.5940   -8.1130 O.2       1 POZ490      0.0000 
      4 OAD       -49.8130    0.5630   -5.5550 O.3       1 POZ490      0.0000 
      5 FAE       -36.1990   15.0650  -21.4760 F         1 POZ490      0.0000 
      6 FAF       -37.7290   12.3440  -18.0410 F         1 POZ490      0.0000 
      7 CAG       -36.9310   13.7370  -19.7240 C.ar      1 POZ490      0.0000 
      8 CAH       -43.3050    7.6660  -17.4610 C.ar      1 POZ490      0.0000 
      9 CAI       -44.2240    9.5960  -16.4670 C.ar      1 POZ490      0.0000 
     10 CAJ       -44.2580    6.8720  -16.8580 C.ar      1 POZ490      0.0000 
     11 CAK       -45.1940    8.8000  -15.8540 C.ar      1 POZ490      0.0000 
     12 CAL       -46.6130    3.7640  -11.6940 C.ar      1 POZ490      0.0000 
     13 CAM       -48.6600    5.0110  -11.7130 C.ar      1 POZ490      0.0000 
     14 CAN       -46.9700    3.1970  -10.4910 C.ar      1 POZ490      0.0000 
     15 CAO       -49.0240    4.4380  -10.5070 C.ar      1 POZ490      0.0000 
     16 CAP       -37.6830   12.6790  -19.3130 C.ar      1 POZ490      0.0000 
     17 CAQ       -35.1650    8.6920  -19.8690 C.2       1 POZ490      0.0000 
     18 CAR       -37.6460   13.3000  -21.9550 C.ar      1 POZ490      0.0000 
     19 CAS       -36.9200    9.1580  -20.8930 C.2       1 POZ490      0.0000 
     20 CAT       -47.9400    1.9080   -8.2000 C.2       1 POZ490      0.0000 
     21 CAU       -51.5320    2.7840   -6.0770 C.3       1 POZ490      0.0000 
     22 CAV       -41.2350    9.8340  -19.9540 C.3       1 POZ490      0.0000 
     23 CAW       -46.9560    7.2040  -14.4840 C.3       1 POZ490      0.0000 
     24 CAX       -45.4840    5.3290  -15.1050 C.3       1 POZ490      0.0000 
     25 CAY       -47.9570    6.1760  -13.9980 C.3       1 POZ490      0.0000 
     26 CAZ       -46.4970    4.4000  -14.4490 C.3       1 POZ490      0.0000 
     27 CBA       -39.9660   10.1150  -20.6980 C.3       1 POZ490      0.0000 
     28 CBB       -42.4750   10.9870  -18.3060 C.3       1 POZ490      0.0000 
     29 CBC       -38.2390    9.8770  -18.9100 C.3       1 POZ490      0.0000 
     30 NBD       -35.7100    8.6890  -21.0450 N.2       1 POZ490      0.0000 
     31 NBE       -36.0570    9.1140  -19.0130 N.2       1 POZ490      0.0000 
     32 NBF       -48.5170    1.7840   -7.0110 N.2       1 POZ490      0.0000 
     33 OBG       -42.2720    9.6870  -17.9130 O.3       1 POZ490      0.0000 
     34 OBH       -40.0900   11.3020  -18.7070 O.3       1 POZ490      0.0000 
     35 CBI       -36.9220   14.0360  -21.0550 C.ar      1 POZ490      0.0000 
     36 CBJ       -38.3940   12.2340  -21.5270 C.ar      1 POZ490      0.0000 
     37 CBK       -43.2710    9.0250  -17.2820 C.ar      1 POZ490      0.0000 
     38 CBL       -45.2080    7.4250  -16.0400 C.ar      1 POZ490      0.0000 
     39 CBM       -47.4700    4.6480  -12.3020 C.ar      1 POZ490      0.0000 
     40 CBN       -48.1750    3.5270   -9.9140 C.ar      1 POZ490      0.0000 
     41 CBO       -38.3980   11.9420  -20.1920 C.ar      1 POZ490      0.0000 
     42 CBP       -49.2940    3.4930   -7.9090 C.2       1 POZ490      0.0000 
     43 CBQ       -49.7770    1.7260   -4.7550 C.3       1 POZ490      0.0000 
     44 CBR       -41.3690   11.3180  -19.2940 C.3       1 POZ490      0.0000 
     45 CBS       -50.0960    2.8930   -5.6580 C.3       1 POZ490      0.0000 
     46 NBT       -46.1160    6.5920  -15.5160 N.3       1 POZ490      0.0000 
     47 NBU       -47.0650    5.2150  -13.4080 N.3       1 POZ490      0.0000 
     48 NBV       -37.0630    9.3970  -19.6170 N.pl3     1 POZ490      0.0000 
     49 NBW       -48.4700    2.9690   -8.7670 N.am      1 POZ490      0.0000 
     50 NBX       -49.2900    2.7210   -6.8500 N.am      1 POZ490      0.0000 
     51 CBY       -39.1740   10.8090  -19.6430 C.3       1 POZ490      0.0000 
     52 H         -36.3889   14.2915  -19.0562 H         1 POZ490      0.0000 
     53 H         -42.5862    7.2134  -18.0743 H         1 POZ490      0.0000 
     54 H         -44.2280   10.6142  -16.3038 H         1 POZ490      0.0000 
     55 H         -44.2521    5.8488  -17.0276 H         1 POZ490      0.0000 
     56 H         -45.9093    9.2447  -15.2545 H         1 POZ490      0.0000 
     57 H         -45.7126    3.5265  -12.1316 H         1 POZ490      0.0000 
     58 H         -49.2750    5.7010  -12.1621 H         1 POZ490      0.0000 
     59 H         -46.3380    2.5293  -10.0256 H         1 POZ490      0.0000 
     60 H         -49.9128    4.6886  -10.0623 H         1 POZ490      0.0000 
     61 H         -34.2452    8.4255  -19.6534 H         1 POZ490      0.0000 
     62 H         -37.6287   13.5487  -22.9601 H         1 POZ490      0.0000 
     63 H         -37.5799    9.3001  -21.5889 H         1 POZ490      0.0000 
     64 H         -47.2628    1.3271   -8.5697 H         1 POZ490      0.0000 
     65 H         -52.1784    3.0623   -5.2590 H         1 POZ490      0.0000 
     66 H         -51.7166    3.4142   -6.9332 H         1 POZ490      0.0000 
     67 H         -41.0948    9.1764  -19.1806 H         1 POZ490      0.0000 
     68 H         -42.0358    9.7148  -20.5823 H         1 POZ490      0.0000 
     69 H         -46.3528    7.5321  -13.6391 H         1 POZ490      0.0000 
     70 H         -47.4984    8.0591  -14.8840 H         1 POZ490      0.0000 
     71 H         -45.0526    4.8149  -15.9721 H         1 POZ490      0.0000 
     72 H         -44.6741    5.5189  -14.3907 H         1 POZ490      0.0000 
     73 H         -48.4758    5.7800  -14.8319 H         1 POZ490      0.0000 
     74 H         -48.5910    6.6263  -13.2793 H         1 POZ490      0.0000 
     75 H         -45.9773    3.5518  -14.0563 H         1 POZ490      0.0000 
     76 H         -47.2246    4.1182  -15.1803 H         1 POZ490      0.0000 
     77 H         -40.1547   10.7671  -21.5075 H         1 POZ490      0.0000 
     78 H         -39.4981    9.2095  -20.9758 H         1 POZ490      0.0000 
     79 H         -42.4037   11.7032  -17.4854 H         1 POZ490      0.0000 
     80 H         -43.4263   11.1404  -18.8187 H         1 POZ490      0.0000 
     81 H         -37.9262   10.3907  -17.9528 H         1 POZ490      0.0000 
     82 H         -38.8499    8.9989  -18.5443 H         1 POZ490      0.0000 
     83 H         -38.9342   11.6731  -22.1909 H         1 POZ490      0.0000 
     84 H         -50.5202    1.6836   -3.9767 H         1 POZ490      0.0000 
     85 H         -41.5847   11.9258  -19.9986 H         1 POZ490      0.0000 
     86 H         -49.9102    3.7921   -5.1775 H         1 POZ490      0.0000 
     87 H         -51.1981    1.0401   -7.2031 H         1 POZ490      0.0000 
     88 H         -51.6154    0.7203   -5.6833 H         1 POZ490      0.0000 
     89 H         -52.7313    1.1901   -6.7417 H         1 POZ490      0.0000 
     90 H         -47.6818    1.9405   -4.8038 H         1 POZ490      0.0000 
     91 H         -48.3455    2.6818   -3.5404 H         1 POZ490      0.0000 
     92 H         -48.1817    1.0820   -3.5391 H         1 POZ490      0.0000 
     93 H         -49.2356    1.1404   -4.9776 H         1 POZ490      0.0000 
@<TRIPOS>BOND
     1   21    1 1    
     2   87    1 1    
     3   88    1 1    
     4   89    1 1    
     5   43    2 1    
     6   90    2 1    
     7   91    2 1    
     8   92    2 1    
     9   42    3 2    
    10   43    4 1    
    11   93    4 1    
    12   35    5 1    
    13   16    6 1    
    14   16    7 ar   
    15   35    7 ar   
    16   52    7 1    
    17   10    8 ar   
    18   37    8 ar   
    19   53    8 1    
    20   11    9 ar   
    21   37    9 ar   
    22   54    9 1    
    23   38   10 ar   
    24   55   10 1    
    25   38   11 ar   
    26   56   11 1    
    27   14   12 ar   
    28   39   12 ar   
    29   57   12 1    
    30   15   13 ar   
    31   39   13 ar   
    32   58   13 1    
    33   40   14 ar   
    34   59   14 1    
    35   40   15 ar   
    36   60   15 1    
    37   41   16 ar   
    38   30   17 1    
    39   31   17 2    
    40   61   17 1    
    41   35   18 ar   
    42   36   18 ar   
    43   62   18 1    
    44   30   19 2    
    45   48   19 1    
    46   63   19 1    
    47   32   20 2    
    48   49   20 1    
    49   64   20 1    
    50   45   21 1    
    51   65   21 1    
    52   66   21 1    
    53   27   22 1    
    54   44   22 1    
    55   67   22 1    
    56   68   22 1    
    57   25   23 1    
    58   46   23 1    
    59   69   23 1    
    60   70   23 1    
    61   26   24 1    
    62   46   24 1    
    63   71   24 1    
    64   72   24 1    
    65   47   25 1    
    66   73   25 1    
    67   74   25 1    
    68   47   26 1    
    69   75   26 1    
    70   76   26 1    
    71   51   27 1    
    72   77   27 1    
    73   78   27 1    
    74   33   28 1    
    75   44   28 1    
    76   79   28 1    
    77   80   28 1    
    78   48   29 1    
    79   51   29 1    
    80   81   29 1    
    81   82   29 1    
    82   48   31 1    
    83   50   32 1    
    84   37   33 1    
    85   44   34 1    
    86   51   34 1    
    87   41   36 ar   
    88   83   36 1    
    89   46   38 1    
    90   47   39 1    
    91   49   40 1    
    92   51   41 1    
    93   49   42 am   
    94   50   42 am   
    95   45   43 1    
    96   84   43 1    
    97   85   44 1    
    98   50   45 1    
    99   86   45 1    
@<TRIPOS>SUBSTRUCTURE
     1 POZ490      1 GROUP   
@<TRIPOS>SET

