#    Name: 3vjh_J35_1_INTS_M
#    Modification time : Tue Mar 25 01:06:47 2014

@<TRIPOS>MOLECULE
3vjh_J35_1_INTS_M
   72     0     6     0     0
SMALL
NO_CHARGES


@<TRIPOS>ATOM
      1 N         -20.0840   17.9655  -21.5985 N.am      1 SEC2        0.0000 
      2 N         -20.0550   18.6350  -20.4620 N.am      5 SEL2        0.0000 
      3 N         -20.1130   17.2960  -22.7350 N.am      3 SEP2        0.0000 
      4 N         -21.0970   18.0350  -20.2260 N.am      1 SEC2        0.0000 
      5 N         -22.1390   17.4350  -19.9900 N.am      3 SEP2        0.0000 
      6 N         -16.6660   19.1710  -20.1425 N.am      1 SEC2        0.0000 
      7 N         -17.9240   19.0090  -20.5650 N.am      5 SEL2        0.0000 
      8 N         -15.4080   19.3330  -19.7200 N.am      3 SEP2        0.0000 
      9 N         -17.7355   18.0280  -21.6060 N.am      1 SEC2        0.0000 
     10 N         -17.5470   17.0470  -22.6470 N.am      3 SEP2        0.0000 
     11 CA        -17.1125   19.5650  -18.5065 C.3       2 GLC5        0.0000 
     12 CA        -18.8780   18.8650  -18.3600 C.3       6 GLL5        0.0000 
     13 CA        -15.3470   20.2650  -18.6530 C.3       4 GLP5        0.0000 
     14 CA        -18.7165   22.3880  -17.6305 C.3       2 GLC5        0.0000 
     15 CA        -19.9260   21.1160  -17.8480 C.3       6 GLL5        0.0000 
     16 CA        -17.5070   23.6600  -17.4130 C.3       4 GLP5        0.0000 
     17 CA        -22.6945   22.4020  -18.1360 C.3       2 GLC5        0.0000 
     18 CA        -21.2670   21.7380  -18.1480 C.3       6 GLL5        0.0000 
     19 CA        -24.1220   23.0660  -18.1240 C.3       4 GLP5        0.0000 
     20 CA        -20.4805   23.1835  -18.2700 C.3       2 GLC5        0.0000 
     21 CA        -19.6940   24.6290  -18.3920 C.3       4 GLP5        0.0000 
     22 CA        -22.9815   21.1855  -19.3510 C.3       2 GLC5        0.0000 
     23 CA        -24.6960   20.6330  -20.5540 C.3       4 GLP5        0.0000 
     24 CA        -18.8810   15.4650  -17.6950 C.3       2 GLC5        0.0000 
     25 CA        -18.8240   17.4700  -17.7080 C.3       6 GLL5        0.0000 
     26 CA        -18.9380   13.4600  -17.6820 C.3       4 GLP5        0.0000 
     27 CA        -15.7885   15.8030  -12.9065 C.3       2 GLC5        0.0000 
     28 CA        -16.1710   17.5330  -14.2890 C.3       6 GLL5        0.0000 
     29 CA        -15.4060   14.0730  -11.5240 C.3       4 GLP5        0.0000 
     30 CA        -13.2220   18.5385  -13.3390 C.3       2 GLC5        0.0000 
     31 CA        -14.0300   16.8460  -13.3080 C.3       6 GLL5        0.0000 
     32 CA        -12.4140   20.2310  -13.3700 C.3       4 GLP5        0.0000 
     33 CA        -14.7180   15.4595  -12.4160 C.3       2 GLC5        0.0000 
     34 CA        -18.7225   19.2875  -14.5520 C.3       2 GLC5        0.0000 
     35 CA        -18.4240   17.3010  -15.1590 C.3       6 GLL5        0.0000 
     36 CA        -19.0210   21.2740  -13.9450 C.3       4 GLP5        0.0000 
     37 CA        -20.0780   16.8675  -13.7685 C.3       2 GLC5        0.0000 
     38 CA        -21.7320   16.4340  -12.3780 C.3       4 GLP5        0.0000 
     39 CA        -19.8740   16.7855  -12.5100 C.3       2 GLC5        0.0000 
     40 CA        -18.0160   17.1370  -12.6420 C.3       6 GLL5        0.0000 
     41 CA        -15.4145   22.8035   -6.2335 C.3       2 GLC5        0.0000 
     42 CA        -14.9050   23.8370   -8.0250 C.3       6 GLL5        0.0000 
     43 CA        -15.9240   21.7700   -4.4420 C.3       4 GLP5        0.0000 
     44 CA        -16.4835   22.9520   -6.1260 C.3       2 GLC5        0.0000 
     45 CA        -17.0430   24.1340   -7.8100 C.3       6 GLL5        0.0000 
     46 CA        -19.5080   20.8178  -15.8693 C.3       2 GLC5        0.0000 
     47 CA        -15.9166   18.9580  -17.3631 C.3       2 GLC5        0.0000 
     48 CA        -15.7070   17.7160  -15.5850 C.3       6 GLL5        0.0000 
     49 CA        -15.7301   16.1090  -16.8406 C.3       2 GLC5        0.0000 
     50 CA        -16.5870   17.6870  -16.6580 C.3       6 GLL5        0.0000 
     51 CA        -14.9740   14.5670  -17.6080 C.3       4 GLP5        0.0000 
     52 CA        -18.5610   18.8968  -12.8488 C.3       2 GLC5        0.0000 
     53 CA        -17.5320   17.3260  -14.0690 C.3       6 GLL5        0.0000 
     54 CA        -19.3480   20.5620  -12.3420 C.3       4 GLP5        0.0000 
     55 CA        -17.5865   15.2867  -13.1182 C.3       2 GLC5        0.0000 
     56 CA        -17.3990   13.3420  -12.8810 C.3       4 GLP5        0.0000 
     57 CA        -17.6872   20.3690  -11.3380 C.3       2 GLC5        0.0000 
     58 CA        -16.6290   19.8370  -10.2420 C.3       6 GLL5        0.0000 
     59 CA        -16.0068   19.7380   -8.4150 C.3       2 GLC5        0.0000 
     60 CA        -15.9870   19.3000   -6.4960 C.3       4 GLP5        0.0000 
     61 CA        -14.2843   21.3165  -11.9588 C.3       2 GLC5        0.0000 
     62 CA        -15.4240   20.5150  -10.4260 C.3       6 GLL5        0.0000 
     63 CA        -13.2320   21.4780  -13.7510 C.3       4 GLP5        0.0000 
     64 CA        -15.8760   20.7015   -8.0250 C.3       2 GLC5        0.0000 
     65 CA        -15.2490   21.7950   -9.9070 C.3       6 GLL5        0.0000 
     66 CA        -18.4620   20.8263  -10.8105 C.3       2 GLC5        0.0000 
     67 CA        -17.4890   21.7320   -9.0200 C.3       6 GLL5        0.0000 
     68 CA        -16.7815   20.1953   -7.8875 C.3       2 GLC5        0.0000 
     69 CA        -17.6630   20.4490   -9.5380 C.3       6 GLL5        0.0000 
     70 CA        -16.7170   24.9192  -10.7532 C.3       2 GLC5        0.0000 
     71 CA        -16.0710   23.7960   -8.6480 C.3       6 GLL5        0.0000 
     72 CA        -17.3750   25.6100  -12.3600 C.3       4 GLP5        0.0000 
@<TRIPOS>BOND
@<TRIPOS>SUBSTRUCTURE
     1 SEC2        1 GROUP        1 X    SEC  0     ROOT SEC X 2
     2 GLC5       11 GROUP        1 X    GLC  0     **** GLC X 6
     3 SEP2        3 GROUP        1 Y    SEP  0     ROOT SEP Y 9
     4 GLP5       13 GROUP        1 Y    GLP  0     **** GLP Y 13
     5 SEL2        2 GROUP        1 Z    SEL  0     ROOT SEL Z 16
     6 GLL5       12 GROUP        1 Z    GLL  0     **** GLL Z 20
@<TRIPOS>SET

