#    Name: 3vjh_J35_1_ligand
#    Modification time : Tue Mar 25 01:06:47 2014

@<TRIPOS>MOLECULE
3vjh_J35_1_ligand
   53    54     1     0     0
SMALL
NO_CHARGES


@<TRIPOS>ATOM
      1 O2        -20.0550   18.6350  -20.4620 O.co2     1 J35501      0.0000 
      2 C19       -18.9600   18.8270  -19.8830 C.2       1 J35501      0.0000 
      3 O3        -17.9240   19.0090  -20.5650 O.co2     1 J35501      0.0000 
      4 C20       -18.8780   18.8650  -18.3600 C.3       1 J35501      0.0000 
      5 C21       -20.0640   19.6070  -17.7390 C.3       1 J35501      0.0000 
      6 C18       -19.9260   21.1160  -17.8480 C.3       1 J35501      0.0000 
      7 C22       -21.2670   21.7380  -18.1480 C.3       1 J35501      0.0000 
      8 C17       -18.8240   17.4700  -17.7080 C.3       1 J35501      0.0000 
      9 C15       -17.9440   17.4850  -16.4650 C.ar      1 J35501      0.0000 
     10 C14       -16.5870   17.6870  -16.6580 C.ar      1 J35501      0.0000 
     11 C13       -15.7070   17.7160  -15.5850 C.ar      1 J35501      0.0000 
     12 C11       -16.1710   17.5330  -14.2890 C.ar      1 J35501      0.0000 
     13 O4        -15.2700   17.5620  -13.2450 O.3       1 J35501      0.0000 
     14 C8        -14.0300   16.8460  -13.3080 C.3       1 J35501      0.0000 
     15 C12       -18.4240   17.3010  -15.1590 C.ar      1 J35501      0.0000 
     16 C10       -17.5320   17.3260  -14.0690 C.ar      1 J35501      0.0000 
     17 C9        -18.0160   17.1370  -12.6420 C.3       1 J35501      0.0000 
     18 N1        -17.6430   18.3070  -11.8480 N.am      1 J35501      0.0000 
     19 C4        -16.7960   18.4600  -10.8220 C.2       1 J35501      0.0000 
     20 O1        -16.1470   17.5400  -10.3530 O.2       1 J35501      0.0000 
     21 C1        -16.6290   19.8370  -10.2420 C.ar      1 J35501      0.0000 
     22 C3        -15.4240   20.5150  -10.4260 C.ar      1 J35501      0.0000 
     23 C5        -15.2490   21.7950   -9.9070 C.ar      1 J35501      0.0000 
     24 C2        -17.6630   20.4490   -9.5380 C.ar      1 J35501      0.0000 
     25 C7        -17.4890   21.7320   -9.0200 C.ar      1 J35501      0.0000 
     26 C6        -16.2810   22.4110   -9.2010 C.ar      1 J35501      0.0000 
     27 C16       -16.0710   23.7960   -8.6480 C.3       1 J35501      0.0000 
     28 F1        -14.9050   23.8370   -8.0250 F         1 J35501      0.0000 
     29 F3        -17.0430   24.1340   -7.8100 F         1 J35501      0.0000 
     30 F2        -16.0470   24.6610   -9.6450 F         1 J35501      0.0000 
     31 H         -17.9717   19.3986  -18.0626 H         1 J35501      0.0000 
     32 H         -20.1452   19.3252  -16.6825 H         1 J35501      0.0000 
     33 H         -20.9846   19.2893  -18.2427 H         1 J35501      0.0000 
     34 H         -19.2245   21.3553  -18.6453 H         1 J35501      0.0000 
     35 H         -19.5414   21.5097  -16.9088 H         1 J35501      0.0000 
     36 H         -18.4244   16.7597  -18.4291 H         1 J35501      0.0000 
     37 H         -19.8338   17.1692  -17.4362 H         1 J35501      0.0000 
     38 H         -16.2216   17.8188  -17.6197 H         1 J35501      0.0000 
     39 H         -14.7007   17.8747  -15.7512 H         1 J35501      0.0000 
     40 H         -19.4230   17.1483  -14.9960 H         1 J35501      0.0000 
     41 H         -17.5610   16.2321  -12.2376 H         1 J35501      0.0000 
     42 H         -19.0987   17.0067  -12.6565 H         1 J35501      0.0000 
     43 H         -18.1840   19.2172  -12.1906 H         1 J35501      0.0000 
     44 H         -14.6593   20.0648  -10.9494 H         1 J35501      0.0000 
     45 H         -14.3568   22.2876  -10.0444 H         1 J35501      0.0000 
     46 H         -18.5536   19.9565   -9.3999 H         1 J35501      0.0000 
     47 H         -18.2549   22.1832   -8.5005 H         1 J35501      0.0000 
     48 H         -21.2058   22.7331  -18.2258 H         1 J35501      0.0000 
     49 H         -21.6493   21.3998  -19.0079 H         1 J35501      0.0000 
     50 H         -21.9365   21.5406  -17.4319 H         1 J35501      0.0000 
     51 H         -13.4614   17.1545  -14.0706 H         1 J35501      0.0000 
     52 H         -13.4907   16.9632  -12.4741 H         1 J35501      0.0000 
     53 H         -14.1740   15.8638  -13.4283 H         1 J35501      0.0000 
@<TRIPOS>BOND
     1    2    1 ar   
     2    3    2 ar   
     3    4    2 1    
     4    5    4 1    
     5    8    4 1    
     6   31    4 1    
     7    6    5 1    
     8   32    5 1    
     9   33    5 1    
    10    7    6 1    
    11   34    6 1    
    12   35    6 1    
    13   48    7 1    
    14   49    7 1    
    15   50    7 1    
    16    9    8 1    
    17   36    8 1    
    18   37    8 1    
    19   10    9 ar   
    20   15    9 ar   
    21   11   10 ar   
    22   38   10 1    
    23   12   11 ar   
    24   39   11 1    
    25   13   12 1    
    26   16   12 ar   
    27   14   13 1    
    28   51   14 1    
    29   52   14 1    
    30   53   14 1    
    31   16   15 ar   
    32   40   15 1    
    33   17   16 1    
    34   18   17 1    
    35   41   17 1    
    36   42   17 1    
    37   19   18 am   
    38   43   18 1    
    39   20   19 2    
    40   21   19 1    
    41   22   21 ar   
    42   24   21 ar   
    43   23   22 ar   
    44   44   22 1    
    45   26   23 ar   
    46   45   23 1    
    47   25   24 ar   
    48   46   24 1    
    49   26   25 ar   
    50   47   25 1    
    51   27   26 1    
    52   28   27 1    
    53   29   27 1    
    54   30   27 1    
@<TRIPOS>SUBSTRUCTURE
     1 J35501      1 GROUP   
@<TRIPOS>SET

