#    Name: 1d4a_FAD_4_INTS_M
#    Modification time : Mon Mar 24 21:25:42 2014

@<TRIPOS>MOLECULE
1d4a_FAD_4_INTS_M
   95     0     9     0     0
SMALL
NO_CHARGES


@<TRIPOS>ATOM
      1 N         -42.8700  -64.3765  -38.2240 N.am      2 SEC2        0.0000 
      2 N         -41.3270  -63.9540  -38.3670 N.am      8 SEL2        0.0000 
      3 N         -44.4130  -64.7990  -38.0810 N.am      5 SEP2        0.0000 
      4 CA        -38.7640  -63.9110  -42.9505 C.3       3 GLC5        0.0000 
      5 CA        -39.9990  -65.5270  -42.1180 C.3       9 GLL5        0.0000 
      6 CA        -37.5290  -62.2950  -43.7830 C.3       6 GLP5        0.0000 
      7 CA        -38.7500  -66.2455  -43.5920 C.3       3 GLC5        0.0000 
      8 CA        -37.5010  -66.9640  -45.0660 C.3       6 GLP5        0.0000 
      9 O         -41.3675  -66.2590  -44.6130 O.2       1 ALC1        0.0000 
     10 O         -41.5990  -66.8120  -43.4850 O.2       7 ALL1        0.0000 
     11 O         -41.1360  -65.7060  -45.7410 O.2       4 ALP1        0.0000 
     12 CA        -38.3270  -67.3645  -43.4365 C.3       3 GLC5        0.0000 
     13 CA        -39.1530  -67.7650  -41.8070 C.3       9 GLL5        0.0000 
     14 CA        -32.9835  -68.9575  -40.3900 C.3       3 GLC5        0.0000 
     15 CA        -34.9670  -69.5990  -39.6250 C.3       9 GLL5        0.0000 
     16 CA        -31.0000  -68.3160  -41.1550 C.3       6 GLP5        0.0000 
     17 CA        -35.1235  -68.6955  -43.8245 C.3       3 GLC5        0.0000 
     18 CA        -35.1060  -69.7730  -42.0620 C.3       9 GLL5        0.0000 
     19 CA        -35.1410  -67.6180  -45.5870 C.3       6 GLP5        0.0000 
     20 CA        -33.0530  -69.0445  -41.6085 C.3       3 GLC5        0.0000 
     21 N         -37.1135  -69.4630  -43.5045 N.am      2 SEC2        0.0000 
     22 N         -36.3290  -69.1760  -42.2230 N.am      8 SEL2        0.0000 
     23 N         -37.8980  -69.7500  -44.7860 N.am      5 SEP2        0.0000 
     24 CA        -37.2035  -67.8645  -43.0410 C.3       3 GLC5        0.0000 
     25 CA        -36.9060  -68.7650  -41.0160 C.3       9 GLL5        0.0000 
     26 N         -41.7400  -54.1865  -43.6170 N.am      2 SEC2        0.0000 
     27 N         -42.3920  -52.9170  -42.8590 N.am      8 SEL2        0.0000 
     28 N         -41.0880  -55.4560  -44.3750 N.am      5 SEP2        0.0000 
     29 N         -41.2725  -53.8375  -44.5595 N.am      2 SEC2        0.0000 
     30 N         -41.4570  -52.2190  -44.7440 N.am      8 SEL2        0.0000 
     31 N         -41.6220  -53.3225  -45.7005 N.am      2 SEC2        0.0000 
     32 N         -41.7870  -54.4260  -46.6570 N.am      5 SEP2        0.0000 
     33 N         -41.0595  -50.9885  -45.2505 N.am      2 SEC2        0.0000 
     34 N         -40.6620  -49.7580  -45.7570 N.am      5 SEP2        0.0000 
     35 O         -41.3335  -50.1615  -44.5410 O.2       1 ALC1        0.0000 
     36 O         -42.0050  -50.5650  -43.3250 O.2       7 ALL1        0.0000 
     37 O         -40.6620  -49.7580  -45.7570 O.2       4 ALP1        0.0000 
     38 N         -41.8720  -47.9385  -41.1025 N.am      2 SEC2        0.0000 
     39 N         -42.5920  -48.9360  -41.8510 N.am      8 SEL2        0.0000 
     40 N         -41.1520  -46.9410  -40.3540 N.am      5 SEP2        0.0000 
     41 N         -43.2255  -49.7665  -39.3745 N.am      2 SEC2        0.0000 
     42 N         -43.7880  -50.8270  -40.0610 N.am      8 SEL2        0.0000 
     43 N         -42.6630  -48.7060  -38.6880 N.am      5 SEP2        0.0000 
     44 CA        -46.2100  -52.4955  -34.0760 C.3       3 GLC5        0.0000 
     45 CA        -45.8470  -52.0160  -35.7230 C.3       9 GLL5        0.0000 
     46 CA        -46.5730  -52.9750  -32.4290 C.3       6 GLP5        0.0000 
     47 CA        -45.7965  -50.8745  -34.1820 C.3       3 GLC5        0.0000 
     48 CA        -45.7460  -49.7330  -32.6410 C.3       6 GLP5        0.0000 
     49 CA        -45.8195  -50.0410  -36.2025 C.3       3 GLC5        0.0000 
     50 CA        -45.7920  -48.0660  -36.6820 C.3       6 GLP5        0.0000 
     51 CA        -46.8240  -55.4640  -35.3120 C.3       3 GLC5        0.0000 
     52 CA        -45.4570  -54.9990  -36.3940 C.3       9 GLL5        0.0000 
     53 CA        -48.1910  -55.9290  -34.2300 C.3       6 GLP5        0.0000 
     54 CA        -42.6940  -55.5790  -43.0965 C.3       3 GLC5        0.0000 
     55 CA        -43.2030  -55.0120  -41.1780 C.3       9 GLL5        0.0000 
     56 CA        -42.1850  -56.1460  -45.0150 C.3       6 GLP5        0.0000 
     57 CA        -40.3680  -55.9000  -39.0390 C.3       3 GLC5        0.0000 
     58 CA        -41.9690  -55.6460  -40.4310 C.3       9 GLL5        0.0000 
     59 CA        -38.7670  -56.1540  -37.6470 C.3       6 GLP5        0.0000 
     60 O         -40.6875  -53.6795  -40.1600 O.2       1 ALC1        0.0000 
     61 O         -40.7790  -54.9060  -40.7760 O.2       7 ALL1        0.0000 
     62 O         -40.5960  -52.4530  -39.5440 O.2       4 ALP1        0.0000 
     63 CA        -42.0270  -56.6355  -42.9360 C.3       3 GLC5        0.0000 
     64 CA        -41.8690  -57.1250  -40.8570 C.3       9 GLL5        0.0000 
     65 CA        -39.7275  -56.9710  -38.8960 C.3       3 GLC5        0.0000 
     66 CA        -40.6880  -57.7880  -40.1450 C.3       9 GLL5        0.0000 
     67 N         -38.1720  -57.3965  -40.3330 N.am      2 SEC2        0.0000 
     68 N         -39.4770  -57.1460  -40.5370 N.am      8 SEL2        0.0000 
     69 N         -36.8670  -57.6470  -40.1290 N.am      5 SEP2        0.0000 
     70 N         -37.0020  -61.8390  -37.6720 N.am      2 SEC2        0.0000 
     71 N         -38.3000  -61.2510  -37.9930 N.am      8 SEL2        0.0000 
     72 N         -35.7040  -62.4270  -37.3510 N.am      5 SEP2        0.0000 
     73 N         -37.5150  -60.2000  -37.8265 N.am      2 SEC2        0.0000 
     74 N         -36.7300  -59.1490  -37.6600 N.am      5 SEP2        0.0000 
     75 N         -40.5000  -60.4660  -36.4640 N.am      2 SEC2        0.0000 
     76 N         -40.7330  -60.6590  -37.8190 N.am      8 SEL2        0.0000 
     77 N         -40.2670  -60.2730  -35.1090 N.am      5 SEP2        0.0000 
     78 CA        -38.2590  -64.4655  -40.7895 C.3       3 GLC5        0.0000 
     79 CA        -39.8310  -64.7650  -40.7700 C.3       9 GLL5        0.0000 
     80 CA        -36.6030  -63.7850  -40.1350 C.3       6 GLP5        0.0000 
     81 CA        -34.4870  -68.0150  -38.7797 C.3       3 GLC5        0.0000 
     82 CA        -36.3190  -68.9210  -39.6980 C.3       9 GLL5        0.0000 
     83 CA        -33.3310  -66.7700  -37.8980 C.3       6 GLP5        0.0000 
     84 CA        -42.9188  -51.0787  -38.1803 C.3       3 GLC5        0.0000 
     85 CA        -44.1990  -51.8490  -39.2150 C.3       9 GLL5        0.0000 
     86 CA        -41.3340  -50.4920  -37.7740 C.3       6 GLP5        0.0000 
     87 CA        -43.4947  -52.3678  -36.3158 C.3       3 GLC5        0.0000 
     88 CA        -45.2240  -52.4530  -37.0300 C.3       9 GLL5        0.0000 
     89 CA        -41.4540  -52.5010  -36.2550 C.3       6 GLP5        0.0000 
     90 CA        -45.8161  -55.8465  -38.2760 C.3       3 GLC5        0.0000 
     91 CA        -45.0420  -53.8870  -37.3380 C.3       9 GLL5        0.0000 
     92 CA        -46.7810  -57.3430  -38.8310 C.3       6 GLP5        0.0000 
     93 CA        -42.9216  -53.0845  -37.4963 C.3       3 GLC5        0.0000 
     94 CA        -39.8990  -59.4727  -41.8543 C.3       3 GLC5        0.0000 
     95 CA        -39.1520  -60.4340  -43.3810 C.3       6 GLP5        0.0000 
@<TRIPOS>BOND
@<TRIPOS>SUBSTRUCTURE
     1 ALC1        9 GROUP        1 X    ALC  0     ROOT ALC X 1
     2 SEC2        1 GROUP        1 X    SEC  0     **** SEC X 2
     3 GLC5        4 GROUP        1 X    GLC  0     **** GLC X 6
     4 ALP1       11 GROUP        1 Y    ALP  0     ROOT ALP Y 8
     5 SEP2        3 GROUP        1 Y    SEP  0     **** SEP Y 9
     6 GLP5        6 GROUP        1 Y    GLP  0     **** GLP Y 13
     7 ALL1       10 GROUP        1 Z    ALL  0     ROOT ALL Z 15
     8 SEL2        2 GROUP        1 Z    SEL  0     **** SEL Z 16
     9 GLL5        5 GROUP        1 Z    GLL  0     **** GLL Z 20
@<TRIPOS>SET

