#    Name: 1d4a_FAD_4_ligand
#    Modification time : Mon Mar 24 21:25:42 2014

@<TRIPOS>MOLECULE
1d4a_FAD_4_ligand
   84    89     1     0     0
SMALL
NO_CHARGES


@<TRIPOS>ATOM
      1 PA        -41.2890  -63.1180  -39.4340 P.3       1 FAD604      0.0000 
      2 O1A       -42.5680  -62.5190  -39.9040 O.co2     1 FAD604      0.0000 
      3 O2A       -41.3270  -63.9540  -38.3670 O.co2     1 FAD604      0.0000 
      4 O5B       -41.0060  -63.9450  -40.6170 O.3       1 FAD604      0.0000 
      5 C5B       -39.8310  -64.7650  -40.7700 C.3       1 FAD604      0.0000 
      6 C4B       -39.9990  -65.5270  -42.1180 C.3       1 FAD604      0.0000 
      7 O4B       -38.7800  -66.3890  -42.2250 O.3       1 FAD604      0.0000 
      8 C3B       -41.1900  -66.5240  -42.1740 C.3       1 FAD604      0.0000 
      9 O3B       -41.5990  -66.8120  -43.4850 O.3       1 FAD604      0.0000 
     10 C2B       -40.6110  -67.7020  -41.3340 C.3       1 FAD604      0.0000 
     11 O2B       -41.3110  -68.9080  -41.5230 O.3       1 FAD604      0.0000 
     12 C1B       -39.1530  -67.7650  -41.8070 C.3       1 FAD604      0.0000 
     13 N9A       -38.1350  -68.1360  -40.7720 N.pl3     1 FAD604      0.0000 
     14 C8A       -38.2160  -67.9430  -39.3960 C.2       1 FAD604      0.0000 
     15 N7A       -37.1520  -68.4000  -38.7270 N.2       1 FAD604      0.0000 
     16 C5A       -36.3190  -68.9210  -39.6980 C.ar      1 FAD604      0.0000 
     17 C6A       -34.9670  -69.5990  -39.6250 C.ar      1 FAD604      0.0000 
     18 N6A       -34.3050  -69.8290  -38.5060 N.pl3     1 FAD604      0.0000 
     19 N1A       -34.4370  -69.9880  -40.8630 N.ar      1 FAD604      0.0000 
     20 C2A       -35.1060  -69.7730  -42.0620 C.ar      1 FAD604      0.0000 
     21 N3A       -36.3290  -69.1760  -42.2230 N.ar      1 FAD604      0.0000 
     22 C4A       -36.9060  -68.7650  -41.0160 C.ar      1 FAD604      0.0000 
     23 N1        -42.3920  -52.9170  -42.8590 N.2       1 FAD604      0.0000 
     24 C2        -41.9650  -51.9590  -43.6890 C.2       1 FAD604      0.0000 
     25 O2        -41.4570  -52.2190  -44.7440 O.2       1 FAD604      0.0000 
     26 N3        -42.0050  -50.5650  -43.3250 N.am      1 FAD604      0.0000 
     27 C4        -42.5940  -50.1290  -42.1210 C.2       1 FAD604      0.0000 
     28 O4        -42.5920  -48.9360  -41.8510 O.2       1 FAD604      0.0000 
     29 C4X       -43.1880  -51.1700  -41.2520 C.2       1 FAD604      0.0000 
     30 N5        -43.7880  -50.8270  -40.0610 N.2       1 FAD604      0.0000 
     31 C5X       -44.1990  -51.8490  -39.2150 C.ar      1 FAD604      0.0000 
     32 C6        -44.8080  -51.4820  -37.9580 C.ar      1 FAD604      0.0000 
     33 C7        -45.2240  -52.4530  -37.0300 C.ar      1 FAD604      0.0000 
     34 C7M       -45.8470  -52.0160  -35.7230 C.3       1 FAD604      0.0000 
     35 C8        -45.0420  -53.8870  -37.3380 C.ar      1 FAD604      0.0000 
     36 C8M       -45.4570  -54.9990  -36.3940 C.3       1 FAD604      0.0000 
     37 C9        -44.4530  -54.2570  -38.5760 C.ar      1 FAD604      0.0000 
     38 C9A       -44.0310  -53.2640  -39.5180 C.ar      1 FAD604      0.0000 
     39 N10       -43.4000  -53.5790  -40.8120 N.pl3     1 FAD604      0.0000 
     40 C10       -42.9890  -52.5950  -41.6560 C.2       1 FAD604      0.0000 
     41 C1'       -43.2030  -55.0120  -41.1780 C.3       1 FAD604      0.0000 
     42 C2'       -41.9690  -55.6460  -40.4310 C.3       1 FAD604      0.0000 
     43 O2'       -40.7790  -54.9060  -40.7760 O.3       1 FAD604      0.0000 
     44 C3'       -41.8690  -57.1250  -40.8570 C.3       1 FAD604      0.0000 
     45 O3'       -43.0830  -57.7810  -40.4640 O.3       1 FAD604      0.0000 
     46 C4'       -40.6880  -57.7880  -40.1450 C.3       1 FAD604      0.0000 
     47 O4'       -39.4770  -57.1460  -40.5370 O.3       1 FAD604      0.0000 
     48 C5'       -40.6040  -59.2350  -40.5100 C.3       1 FAD604      0.0000 
     49 O5'       -39.4020  -59.8090  -39.6850 O.3       1 FAD604      0.0000 
     50 P         -39.6420  -60.9270  -38.6630 P.3       1 FAD604      0.0000 
     51 O1P       -38.3000  -61.2510  -37.9930 O.co2     1 FAD604      0.0000 
     52 O2P       -40.7330  -60.6590  -37.8190 O.co2     1 FAD604      0.0000 
     53 O3P       -40.0550  -62.0890  -39.4040 O.3       1 FAD604      0.0000 
     54 H         -39.7431  -65.5028  -39.9888 H         1 FAD604      0.0000 
     55 H         -38.9293  -64.1781  -40.8391 H         1 FAD604      0.0000 
     56 H         -40.0316  -64.8624  -42.9190 H         1 FAD604      0.0000 
     57 H         -41.9617  -66.0699  -41.5504 H         1 FAD604      0.0000 
     58 H         -40.5930  -67.3579  -40.3106 H         1 FAD604      0.0000 
     59 H         -39.0738  -68.4057  -42.6565 H         1 FAD604      0.0000 
     60 H         -39.0032  -67.5035  -38.9770 H         1 FAD604      0.0000 
     61 H         -33.4306  -70.3046  -38.6019 H         1 FAD604      0.0000 
     62 H         -34.7382  -69.5067  -37.6643 H         1 FAD604      0.0000 
     63 H         -34.6043  -70.1142  -42.9549 H         1 FAD604      0.0000 
     64 H         -41.5885  -49.8798  -43.9708 H         1 FAD604      0.0000 
     65 H         -44.9333  -50.4824  -37.7518 H         1 FAD604      0.0000 
     66 H         -44.3258  -55.2468  -38.8036 H         1 FAD604      0.0000 
     67 H         -43.0253  -55.1168  -42.2511 H         1 FAD604      0.0000 
     68 H         -44.0837  -55.6034  -40.9157 H         1 FAD604      0.0000 
     69 H         -42.1843  -55.6048  -39.3840 H         1 FAD604      0.0000 
     70 H         -41.7155  -57.1663  -41.9062 H         1 FAD604      0.0000 
     71 H         -40.8454  -57.7014  -39.0831 H         1 FAD604      0.0000 
     72 H         -40.3854  -59.3581  -41.5472 H         1 FAD604      0.0000 
     73 H         -41.4878  -59.7573  -40.2186 H         1 FAD604      0.0000 
     74 H         -45.2238  -51.4471  -35.1864 H         1 FAD604      0.0000 
     75 H         -46.6796  -51.4817  -35.8688 H         1 FAD604      0.0000 
     76 H         -46.0966  -52.7973  -35.1510 H         1 FAD604      0.0000 
     77 H         -45.2524  -55.9022  -36.7713 H         1 FAD604      0.0000 
     78 H         -44.9852  -54.9350  -35.5146 H         1 FAD604      0.0000 
     79 H         -46.4382  -54.9767  -36.2025 H         1 FAD604      0.0000 
     80 H         -41.1527  -66.1205  -44.0530 H         1 FAD604      0.0000 
     81 H         -41.8885  -68.7491  -42.3238 H         1 FAD604      0.0000 
     82 H         -40.9252  -53.9910  -40.3999 H         1 FAD604      0.0000 
     83 H         -42.9541  -58.0068  -39.4984 H         1 FAD604      0.0000 
     84 H         -39.7156  -56.1795  -40.6319 H         1 FAD604      0.0000 
@<TRIPOS>BOND
     1    2    1 ar   
     2    3    1 ar   
     3    4    1 1    
     4   53    1 1    
     5    5    4 1    
     6    6    5 1    
     7   54    5 1    
     8   55    5 1    
     9    7    6 1    
    10    8    6 1    
    11   56    6 1    
    12   12    7 1    
    13    9    8 1    
    14   10    8 1    
    15   57    8 1    
    16   80    9 1    
    17   11   10 1    
    18   12   10 1    
    19   58   10 1    
    20   81   11 1    
    21   13   12 1    
    22   59   12 1    
    23   14   13 1    
    24   22   13 1    
    25   15   14 2    
    26   60   14 1    
    27   16   15 1    
    28   17   16 ar   
    29   22   16 ar   
    30   18   17 1    
    31   19   17 ar   
    32   61   18 1    
    33   62   18 1    
    34   20   19 ar   
    35   21   20 ar   
    36   63   20 1    
    37   22   21 ar   
    38   24   23 1    
    39   40   23 2    
    40   25   24 2    
    41   26   24 am   
    42   27   26 am   
    43   64   26 1    
    44   28   27 2    
    45   29   27 1    
    46   30   29 2    
    47   40   29 1    
    48   31   30 1    
    49   32   31 ar   
    50   38   31 ar   
    51   33   32 ar   
    52   65   32 1    
    53   34   33 1    
    54   35   33 ar   
    55   74   34 1    
    56   75   34 1    
    57   76   34 1    
    58   36   35 1    
    59   37   35 ar   
    60   77   36 1    
    61   78   36 1    
    62   79   36 1    
    63   38   37 ar   
    64   66   37 1    
    65   39   38 1    
    66   40   39 1    
    67   41   39 1    
    68   42   41 1    
    69   67   41 1    
    70   68   41 1    
    71   43   42 1    
    72   44   42 1    
    73   69   42 1    
    74   82   43 1    
    75   45   44 1    
    76   46   44 1    
    77   70   44 1    
    78   83   45 1    
    79   47   46 1    
    80   48   46 1    
    81   71   46 1    
    82   84   47 1    
    83   49   48 1    
    84   72   48 1    
    85   73   48 1    
    86   50   49 1    
    87   51   50 ar   
    88   52   50 ar   
    89   53   50 1    
@<TRIPOS>SUBSTRUCTURE
     1 FAD604      1 GROUP   
@<TRIPOS>SET

