#    Name: 4bbh_YBN_4_INTS_M
#    Modification time : Tue Mar 25 07:15:35 2014

@<TRIPOS>MOLECULE
4bbh_YBN_4_INTS_M
   68     0     6     0     0
SMALL
NO_CHARGES


@<TRIPOS>ATOM
      1 CA          9.2110   23.0570   31.4425 C.3       2 GLC5        0.0000 
      2 CA          9.5290   22.8170   33.4360 C.3       6 GLL5        0.0000 
      3 CA          8.8930   23.2970   29.4490 C.3       4 GLP5        0.0000 
      4 CA          8.2160   23.0495   35.1210 C.3       2 GLC5        0.0000 
      5 CA          6.9030   23.2820   36.8060 C.3       4 GLP5        0.0000 
      6 CA         10.3720   22.8900   35.3800 C.3       2 GLC5        0.0000 
      7 CA         11.2150   22.9630   37.3240 C.3       4 GLP5        0.0000 
      8 OD1        12.5715   18.2230   33.7905 O.co2     1 ASC3        0.0000 
      9 OD1        12.3490   19.6650   33.8430 O.co2     5 ASL3        0.0000 
     10 OD1        12.7940   16.7810   33.7380 O.co2     3 ASP3        0.0000 
     11 OD1        13.4175   18.1705   33.1130 O.co2     1 ASC3        0.0000 
     12 OD1        14.4860   16.6760   32.3830 O.co2     3 ASP3        0.0000 
     13 CA         16.8105   24.2610   37.5245 C.3       2 GLC5        0.0000 
     14 CA         17.1200   24.2050   35.4200 C.3       6 GLL5        0.0000 
     15 CA         16.5010   24.3170   39.6290 C.3       4 GLP5        0.0000 
     16 CA         11.0530   23.9730   35.4235 C.3       2 GLC5        0.0000 
     17 CA         10.8910   24.9830   33.5230 C.3       6 GLL5        0.0000 
     18 CA         14.3920   24.8745   31.7960 C.3       2 GLC5        0.0000 
     19 CA         14.4220   26.4190   33.0220 C.3       6 GLL5        0.0000 
     20 CA         14.3620   23.3300   30.5700 C.3       4 GLP5        0.0000 
     21 CA         14.4995   27.7530   34.2980 C.3       2 GLC5        0.0000 
     22 CA         14.5770   29.0870   35.5740 C.3       4 GLP5        0.0000 
     23 CA         20.6390   23.4650   35.2970 C.3       2 GLC5        0.0000 
     24 CA         19.2730   22.8040   36.4750 C.3       6 GLL5        0.0000 
     25 CA         22.0050   24.1260   34.1190 C.3       4 GLP5        0.0000 
     26 CA         16.9255   21.1570   38.3815 C.3       2 GLC5        0.0000 
     27 CA         17.5240   20.5220   36.7230 C.3       6 GLL5        0.0000 
     28 CA         16.3270   21.7920   40.0400 C.3       4 GLP5        0.0000 
     29 CA         16.0495   21.9660   37.9095 C.3       2 GLC5        0.0000 
     30 CA         15.7720   22.1400   35.7790 C.3       6 GLL5        0.0000 
     31 CA         14.2735   21.9170   37.2995 C.3       2 GLC5        0.0000 
     32 CA         12.7750   21.6940   38.8200 C.3       4 GLP5        0.0000 
     33 CA         14.5345   21.7795   32.0255 C.3       2 GLC5        0.0000 
     34 CA         14.7070   20.2290   33.4810 C.3       6 GLL5        0.0000 
     35 CA         16.5860   21.1895   33.0580 C.3       2 GLC5        0.0000 
     36 CA         18.4650   22.1500   32.6350 C.3       4 GLP5        0.0000 
     37 CA         13.1900   21.6895   31.7260 C.3       2 GLC5        0.0000 
     38 CA         13.2430   20.5850   33.1790 C.3       6 GLL5        0.0000 
     39 CA         13.1370   22.7940   30.2730 C.3       4 GLP5        0.0000 
     40 CA         14.2390   17.1240   34.9150 C.3       2 GLC5        0.0000 
     41 CA         13.9760   19.0190   35.5570 C.3       6 GLL5        0.0000 
     42 CA         14.5020   15.2290   34.2730 C.3       4 GLP5        0.0000 
     43 CA         17.7200   25.3495   36.5570 C.3       2 GLC5        0.0000 
     44 CA         17.9170   27.1590   37.3640 C.3       4 GLP5        0.0000 
     45 CA         10.7980   26.3603   31.0825 C.3       2 GLC5        0.0000 
     46 CA         10.6700   27.2720   32.6550 C.3       6 GLL5        0.0000 
     47 CA         10.2250   25.3680   29.5300 C.3       4 GLP5        0.0000 
     48 CA          9.4675   26.5429   34.5889 C.3       2 GLC5        0.0000 
     49 CA          8.3570   26.6880   36.1940 C.3       4 GLP5        0.0000 
     50 CA         20.8312   22.8960   37.6735 C.3       2 GLC5        0.0000 
     51 CA         22.1850   23.6170   38.6140 C.3       4 GLP5        0.0000 
     52 CA         20.0328   20.1180   35.4487 C.3       2 GLC5        0.0000 
     53 CA         19.6820   21.5460   36.9910 C.3       6 GLL5        0.0000 
     54 CA         20.7920   19.2450   33.8410 C.3       4 GLP5        0.0000 
     55 CA         18.2578   22.0030   38.4427 C.3       2 GLC5        0.0000 
     56 CA         18.8650   20.4360   37.1220 C.3       6 GLL5        0.0000 
     57 CA         17.2420   23.0150   39.8290 C.3       4 GLP5        0.0000 
     58 CA         17.9802   18.8835   37.9488 C.3       2 GLC5        0.0000 
     59 CA         17.7660   17.2880   38.9750 C.3       4 GLP5        0.0000 
     60 CA         17.5394   22.6584   38.0426 C.3       2 GLC5        0.0000 
     61 CA         17.0740   21.7640   36.2350 C.3       6 GLL5        0.0000 
     62 CA         15.1745   20.1495   31.6945 C.3       2 GLC5        0.0000 
     63 CA         16.3740   19.8920   30.0590 C.3       4 GLP5        0.0000 
     64 CA         13.0162   20.4710   37.1198 C.3       2 GLC5        0.0000 
     65 CA         12.7688   17.6525   36.6992 C.3       2 GLC5        0.0000 
     66 CA         12.5390   19.4770   35.2820 C.3       6 GLL5        0.0000 
     67 CA         12.2800   16.0570   37.9790 C.3       4 GLP5        0.0000 
     68 CA         10.8030   25.3616   31.4599 C.3       2 GLC5        0.0000 
@<TRIPOS>BOND
@<TRIPOS>SUBSTRUCTURE
     1 ASC3        8 GROUP        1 X    ASC  0     ROOT ASC X 3
     2 GLC5        1 GROUP        1 X    GLC  0     **** GLC X 6
     3 ASP3       10 GROUP        1 Y    ASP  0     ROOT ASP Y 10
     4 GLP5        3 GROUP        1 Y    GLP  0     **** GLP Y 13
     5 ASL3        9 GROUP        1 Z    ASL  0     ROOT ASL Z 17
     6 GLL5        2 GROUP        1 Z    GLL  0     **** GLL Z 20
@<TRIPOS>SET

