#    Name: 4bbh_YBN_4_ligand
#    Modification time : Tue Mar 25 07:15:35 2014

@<TRIPOS>MOLECULE
4bbh_YBN_4_ligand
   50    53     1     0     0
SMALL
NO_CHARGES


@<TRIPOS>ATOM
      1 C           9.5290   22.8170   33.4360 C.3       1 YBN1001     0.0000 
      2 N          12.3490   19.6650   33.8430 N.4       1 YBN1001     0.0000 
      3 O          10.4660   23.7360   34.0130 O.3       1 YBN1001     0.0000 
      4 S          17.1200   24.2050   35.4200 S.3       1 YBN1001     0.0000 
      5 C1         10.8910   24.9830   33.5230 C.ar      1 YBN1001     0.0000 
      6 O1         15.0720   25.3530   33.7850 O.3       1 YBN1001     0.0000 
      7 C2         10.0810   26.0640   33.1020 C.ar      1 YBN1001     0.0000 
      8 O2         13.4520   24.1000   35.0900 O.2       1 YBN1001     0.0000 
      9 C3         10.6700   27.2720   32.6550 C.ar      1 YBN1001     0.0000 
     10 O3         14.7540   21.2730   35.7180 O.3       1 YBN1001     0.0000 
     11 C4         12.0720   27.4330   32.6150 C.ar      1 YBN1001     0.0000 
     12 C5         12.8970   26.3670   33.0300 C.ar      1 YBN1001     0.0000 
     13 C6         14.4220   26.4190   33.0220 C.3       1 YBN1001     0.0000 
     14 C7         14.5810   24.2870   34.7150 C.2       1 YBN1001     0.0000 
     15 C8         15.6330   23.4250   35.2710 C.2       1 YBN1001     0.0000 
     16 C9         17.9260   22.8750   36.0800 C.ar      1 YBN1001     0.0000 
     17 C10        19.2730   22.8040   36.4750 C.ar      1 YBN1001     0.0000 
     18 C11        19.6820   21.5460   36.9910 C.ar      1 YBN1001     0.0000 
     19 C12        18.8650   20.4360   37.1220 C.ar      1 YBN1001     0.0000 
     20 C13        17.5240   20.5220   36.7230 C.ar      1 YBN1001     0.0000 
     21 C14        17.0740   21.7640   36.2350 C.ar      1 YBN1001     0.0000 
     22 C15        15.7720   22.1400   35.7790 C.2       1 YBN1001     0.0000 
     23 C16        14.9400   20.0370   34.9840 C.3       1 YBN1001     0.0000 
     24 C17        14.7070   20.2290   33.4810 C.3       1 YBN1001     0.0000 
     25 C18        13.2430   20.5850   33.1790 C.3       1 YBN1001     0.0000 
     26 C19        12.5390   19.4770   35.2820 C.3       1 YBN1001     0.0000 
     27 C20        13.9760   19.0190   35.5570 C.3       1 YBN1001     0.0000 
     28 C21        12.2760   25.1870   33.4670 C.ar      1 YBN1001     0.0000 
     29 H           9.0618   25.9730   33.1204 H         1 YBN1001     0.0000 
     30 H          10.0623   28.0466   32.3538 H         1 YBN1001     0.0000 
     31 H          12.4802   28.3044   32.2918 H         1 YBN1001     0.0000 
     32 H          14.7581   26.3948   31.9615 H         1 YBN1001     0.0000 
     33 H          14.7309   27.4151   33.4101 H         1 YBN1001     0.0000 
     34 H          19.8934   23.5668   36.4021 H         1 YBN1001     0.0000 
     35 H          20.6948   21.4644   37.2960 H         1 YBN1001     0.0000 
     36 H          19.2280   19.5603   37.5043 H         1 YBN1001     0.0000 
     37 H          16.9068   19.7318   36.7815 H         1 YBN1001     0.0000 
     38 H          15.9459   19.6633   35.1307 H         1 YBN1001     0.0000 
     39 H          14.9649   19.3083   32.9575 H         1 YBN1001     0.0000 
     40 H          15.3506   21.0303   33.1177 H         1 YBN1001     0.0000 
     41 H          13.0750   21.6167   33.5108 H         1 YBN1001     0.0000 
     42 H          13.1103   20.5574   32.0907 H         1 YBN1001     0.0000 
     43 H          11.8589   18.7178   35.6704 H         1 YBN1001     0.0000 
     44 H          12.3683   20.4080   35.8240 H         1 YBN1001     0.0000 
     45 H          14.1224   18.9359   36.6264 H         1 YBN1001     0.0000 
     46 H          14.1366   18.0566   35.0880 H         1 YBN1001     0.0000 
     47 H          12.9024   24.3909   33.7778 H         1 YBN1001     0.0000 
     48 H           9.8234   22.5045   32.5329 H         1 YBN1001     0.0000 
     49 H           9.4101   22.0024   34.0037 H         1 YBN1001     0.0000 
     50 H           8.6253   23.2299   33.3231 H         1 YBN1001     0.0000 
@<TRIPOS>BOND
     1    3    1 1    
     2   48    1 1    
     3   49    1 1    
     4   50    1 1    
     5   25    2 1    
     6   26    2 1    
     7    5    3 1    
     8   15    4 1    
     9   16    4 1    
    10    7    5 ar   
    11   28    5 ar   
    12   13    6 1    
    13   14    6 1    
    14    9    7 ar   
    15   29    7 1    
    16   14    8 2    
    17   11    9 ar   
    18   30    9 1    
    19   22   10 1    
    20   23   10 1    
    21   12   11 ar   
    22   31   11 1    
    23   13   12 1    
    24   28   12 ar   
    25   32   13 1    
    26   33   13 1    
    27   15   14 1    
    28   22   15 2    
    29   17   16 ar   
    30   21   16 ar   
    31   18   17 ar   
    32   34   17 1    
    33   19   18 ar   
    34   35   18 1    
    35   20   19 ar   
    36   36   19 1    
    37   21   20 ar   
    38   37   20 1    
    39   22   21 1    
    40   24   23 1    
    41   27   23 1    
    42   38   23 1    
    43   25   24 1    
    44   39   24 1    
    45   40   24 1    
    46   41   25 1    
    47   42   25 1    
    48   27   26 1    
    49   43   26 1    
    50   44   26 1    
    51   45   27 1    
    52   46   27 1    
    53   47   28 1    
@<TRIPOS>SUBSTRUCTURE
     1 YBN1001     1 GROUP   
@<TRIPOS>SET

