#    Name: 1yom_P01_2_INTS_M
#    Modification time : Mon Apr  7 15:48:49 2014

@<TRIPOS>MOLECULE
1yom_P01_2_INTS_M
   60     0     6     0     0
SMALL
NO_CHARGES


@<TRIPOS>ATOM
      1 CA         -0.1470   19.8085   30.2025 C.3       2 GLC5        0.0000 
      2 CA         -0.6530   20.2070   28.2180 C.3       6 GLL5        0.0000 
      3 CA          0.3590   19.4100   32.1870 C.3       4 GLP5        0.0000 
      4 CA         -3.8070   24.6315   27.4360 C.3       2 GLC5        0.0000 
      5 CA         -3.2410   23.2030   28.8760 C.3       6 GLL5        0.0000 
      6 CA         -4.3730   26.0600   25.9960 C.3       4 GLP5        0.0000 
      7 CA         -2.2965   21.2350   30.3605 C.3       2 GLC5        0.0000 
      8 CA         -2.7030   22.0050   28.4360 C.3       6 GLL5        0.0000 
      9 CA         -1.8900   20.4650   32.2850 C.3       4 GLP5        0.0000 
     10 CA          0.4550   23.1140   32.2305 C.3       2 GLC5        0.0000 
     11 CA          0.9450   24.7880   30.8420 C.3       6 GLL5        0.0000 
     12 CA         -0.0350   21.4400   33.6190 C.3       4 GLP5        0.0000 
     13 N          -0.5005   27.7905   32.1735 N.am      1 SEC2        0.0000 
     14 N           0.7720   26.8480   32.3220 N.am      5 SEL2        0.0000 
     15 N          -1.7730   28.7330   32.0250 N.am      3 SEP2        0.0000 
     16 CA          3.2205   27.1795   30.6070 C.3       2 GLC5        0.0000 
     17 CA          2.7290   25.9570   31.8260 C.3       6 GLL5        0.0000 
     18 CA          3.7120   28.4020   29.3880 C.3       4 GLP5        0.0000 
     19 CA          4.0150   24.4905   34.4040 C.3       2 GLC5        0.0000 
     20 CA          4.7260   26.6000   34.2820 C.3       6 GLL5        0.0000 
     21 CA          3.3040   22.3810   34.5260 C.3       4 GLP5        0.0000 
     22 CA          2.7525   26.3375   35.0520 C.3       2 GLC5        0.0000 
     23 CA          0.7790   26.0750   35.8220 C.3       4 GLP5        0.0000 
     24 CA          6.1215   25.3690   35.5460 C.3       2 GLC5        0.0000 
     25 CA          7.5170   24.1380   36.8100 C.3       4 GLP5        0.0000 
     26 CA          4.9160   28.0810   35.5765 C.3       2 GLC5        0.0000 
     27 CA          5.1060   29.5620   36.8710 C.3       4 GLP5        0.0000 
     28 CA          4.2140   30.3725   33.1210 C.3       2 GLC5        0.0000 
     29 CA          4.7430   28.7410   33.0210 C.3       6 GLL5        0.0000 
     30 CA          3.6850   32.0040   33.2210 C.3       4 GLP5        0.0000 
     31 CA          4.2215   29.4000   34.7840 C.3       2 GLC5        0.0000 
     32 CA          3.7000   30.0590   36.5470 C.3       4 GLP5        0.0000 
     33 CA          5.8395   29.5145   31.2450 C.3       2 GLC5        0.0000 
     34 CA          6.9360   30.2880   29.4690 C.3       4 GLP5        0.0000 
     35 CA          3.2405   23.2365   32.5155 C.3       2 GLC5        0.0000 
     36 CA          3.1770   24.0920   30.5050 C.3       6 GLL5        0.0000 
     37 CA          2.8350   25.4055   29.2585 C.3       2 GLC5        0.0000 
     38 CA          2.4930   26.7190   28.0120 C.3       4 GLP5        0.0000 
     39 CA          5.0920   20.9975   32.3570 C.3       2 GLC5        0.0000 
     40 CA          4.6720   20.6080   30.7590 C.3       6 GLL5        0.0000 
     41 CA          5.5120   21.3870   33.9550 C.3       4 GLP5        0.0000 
     42 CA          3.7185   23.6675   25.7675 C.3       2 GLC5        0.0000 
     43 CA          3.9250   22.7570   27.5780 C.3       6 GLL5        0.0000 
     44 CA          3.5120   24.5780   23.9570 C.3       4 GLP5        0.0000 
     45 CA          3.2090   24.7380   27.7950 C.3       2 GLC5        0.0000 
     46 CA         -0.9490   23.2938   27.5442 C.3       2 GLC5        0.0000 
     47 CA         -0.5760   22.6050   29.4780 C.3       6 GLL5        0.0000 
     48 CA         -0.9210   24.4170   25.9760 C.3       4 GLP5        0.0000 
     49 CA         -1.4665   21.7266   30.8974 C.3       2 GLC5        0.0000 
     50 CA         -1.3498   24.1818   27.8685 C.3       2 GLC5        0.0000 
     51 CA         -1.1090   23.8060   29.9070 C.3       6 GLL5        0.0000 
     52 CA         -4.0023   25.3040   29.4522 C.3       2 GLC5        0.0000 
     53 CA         -2.4480   24.0870   29.6150 C.3       6 GLL5        0.0000 
     54 CA         -5.1600   26.9630   29.6590 C.3       4 GLP5        0.0000 
     55 CA         -1.9465   23.5105   27.3160 C.3       2 GLC5        0.0000 
     56 CA          1.8357   26.0135   29.6253 C.3       2 GLC5        0.0000 
     57 CA          1.4247   25.9838   33.7763 C.3       2 GLC5        0.0000 
     58 CA          1.4120   25.8280   31.6350 C.3       6 GLL5        0.0000 
     59 CA          4.1485   28.2022   31.1865 C.3       2 GLC5        0.0000 
     60 CA          4.4270   27.2640   32.9490 C.3       6 GLL5        0.0000 
@<TRIPOS>BOND
@<TRIPOS>SUBSTRUCTURE
     1 SEC2       13 GROUP        1 X    SEC  0     ROOT SEC X 2
     2 GLC5        1 GROUP        1 X    GLC  0     **** GLC X 6
     3 SEP2       15 GROUP        1 Y    SEP  0     ROOT SEP Y 9
     4 GLP5        3 GROUP        1 Y    GLP  0     **** GLP Y 13
     5 SEL2       14 GROUP        1 Z    SEL  0     ROOT SEL Z 16
     6 GLL5        2 GROUP        1 Z    GLL  0     **** GLL Z 20
@<TRIPOS>SET

