#    Name: 1yom_P01_2_ligand
#    Modification time : Mon Apr  7 15:48:49 2014

@<TRIPOS>MOLECULE
1yom_P01_2_ligand
   52    54     1     0     0
SMALL
NO_CHARGES


@<TRIPOS>ATOM
      1 CL1        -0.6530   20.2070   28.2180 Cl        1 P012        0.0000 
      2 C5A        -1.3780   21.7360   28.7470 C.ar      1 P012        0.0000 
      3 C6A        -0.5760   22.6050   29.4780 C.ar      1 P012        0.0000 
      4 C1A        -1.1090   23.8060   29.9070 C.ar      1 P012        0.0000 
      5 C2A        -2.4480   24.0870   29.6150 C.ar      1 P012        0.0000 
      6 C3A        -3.2410   23.2030   28.8760 C.ar      1 P012        0.0000 
      7 C4A        -2.7030   22.0050   28.4360 C.ar      1 P012        0.0000 
      8 N6         -0.4110   24.7090   30.6530 N.pl3     1 P012        0.0000 
      9 C6          0.9450   24.7880   30.8420 C.ar      1 P012        0.0000 
     10 C5          1.4120   25.8280   31.6350 C.ar      1 P012        0.0000 
     11 N7          0.7720   26.8480   32.3220 N.2       1 P012        0.0000 
     12 C4          2.7290   25.9570   31.8260 C.ar      1 P012        0.0000 
     13 N9          2.9990   27.0000   32.5960 N.pl3     1 P012        0.0000 
     14 C10         4.4270   27.2640   32.9490 C.3       1 P012        0.0000 
     15 C11         4.7260   26.6000   34.2820 C.3       1 P012        0.0000 
     16 C12         4.7430   28.7410   33.0210 C.3       1 P012        0.0000 
     17 C8          1.8040   27.5490   32.9170 C.2       1 P012        0.0000 
     18 N3          3.6240   25.1070   31.2790 N.ar      1 P012        0.0000 
     19 C2          3.1770   24.0920   30.5050 C.ar      1 P012        0.0000 
     20 N1          1.8460   23.9310   30.2900 N.ar      1 P012        0.0000 
     21 N21         4.1020   23.2650   29.9560 N.pl3     1 P012        0.0000 
     22 C22         3.7720   22.2170   28.9980 C.3       1 P012        0.0000 
     23 C25         4.6560   20.9830   29.2670 C.3       1 P012        0.0000 
     24 C26         4.6720   20.6080   30.7590 C.3       1 P012        0.0000 
     25 C27         4.2730   19.7840   28.3780 C.3       1 P012        0.0000 
     26 C23         3.9250   22.7570   27.5780 C.3       1 P012        0.0000 
     27 O24         4.9260   22.0500   26.8490 O.3       1 P012        0.0000 
     28 H           0.3921   22.3564   29.6929 H         1 P012        0.0000 
     29 H          -2.8638   24.9747   29.9557 H         1 P012        0.0000 
     30 H          -4.2142   23.4461   28.6644 H         1 P012        0.0000 
     31 H          -3.2594   21.3443   27.9030 H         1 P012        0.0000 
     32 H          -1.0064   25.4691   31.1679 H         1 P012        0.0000 
     33 H           5.0677   26.8030   32.2011 H         1 P012        0.0000 
     34 H           1.6733   28.3273   33.4853 H         1 P012        0.0000 
     35 H           5.1156   23.3507   30.2065 H         1 P012        0.0000 
     36 H           2.7334   21.9158   29.1366 H         1 P012        0.0000 
     37 H           5.6961   21.2668   28.9958 H         1 P012        0.0000 
     38 H           4.1626   23.8332   27.6550 H         1 P012        0.0000 
     39 H           2.9381   22.6855   27.0866 H         1 P012        0.0000 
     40 H           5.6742   26.7450   34.5648 H         1 P012        0.0000 
     41 H           4.1443   26.9564   35.0132 H         1 P012        0.0000 
     42 H           4.5788   25.6115   34.2458 H         1 P012        0.0000 
     43 H           5.7002   28.9048   33.2597 H         1 P012        0.0000 
     44 H           4.5760   29.1995   32.1481 H         1 P012        0.0000 
     45 H           4.1857   29.2070   33.7082 H         1 P012        0.0000 
     46 H           5.2451   19.8076   30.9346 H         1 P012        0.0000 
     47 H           5.0264   21.3522   31.3252 H         1 P012        0.0000 
     48 H           3.7561   20.3927   31.0977 H         1 P012        0.0000 
     49 H           4.3682   19.9972   27.4056 H         1 P012        0.0000 
     50 H           4.8487   18.9871   28.5610 H         1 P012        0.0000 
     51 H           3.3252   19.5008   28.5246 H         1 P012        0.0000 
     52 H           5.5034   22.6274   27.4264 H         1 P012        0.0000 
@<TRIPOS>BOND
     1    2    1 1    
     2    3    2 ar   
     3    7    2 ar   
     4    4    3 ar   
     5   28    3 1    
     6    5    4 ar   
     7    8    4 1    
     8    6    5 ar   
     9   29    5 1    
    10    7    6 ar   
    11   30    6 1    
    12   31    7 1    
    13    9    8 1    
    14   32    8 1    
    15   10    9 ar   
    16   20    9 ar   
    17   11   10 1    
    18   12   10 ar   
    19   17   11 2    
    20   13   12 1    
    21   18   12 ar   
    22   14   13 1    
    23   17   13 1    
    24   15   14 1    
    25   16   14 1    
    26   33   14 1    
    27   40   15 1    
    28   41   15 1    
    29   42   15 1    
    30   43   16 1    
    31   44   16 1    
    32   45   16 1    
    33   34   17 1    
    34   19   18 ar   
    35   20   19 ar   
    36   21   19 1    
    37   22   21 1    
    38   35   21 1    
    39   23   22 1    
    40   26   22 1    
    41   36   22 1    
    42   24   23 1    
    43   25   23 1    
    44   37   23 1    
    45   46   24 1    
    46   47   24 1    
    47   48   24 1    
    48   49   25 1    
    49   50   25 1    
    50   51   25 1    
    51   27   26 1    
    52   38   26 1    
    53   39   26 1    
    54   52   27 1    
@<TRIPOS>SUBSTRUCTURE
     1 P012        1 GROUP   
@<TRIPOS>SET

