#    Name: 2r4t_ADP_1_INTS_M
#    Modification time : Mon Mar 24 23:09:05 2014

@<TRIPOS>MOLECULE
2r4t_ADP_1_INTS_M
   73     0    12     0     0
SMALL
NO_CHARGES


@<TRIPOS>ATOM
      1 NZ          4.0045  -42.1720  -38.7250 N.4       3 LYC4        0.0000 
      2 NZ          4.9020  -42.5350  -37.7050 N.4      11 LYL4        0.0000 
      3 NZ          2.5840  -40.5830  -39.7530 N.4       7 LYP4        0.0000 
      4 NZ          4.0245  -43.2410  -36.7950 N.4       3 LYC4        0.0000 
      5 NZ          3.1470  -43.9470  -35.8850 N.4       7 LYP4        0.0000 
      6 N           4.0045  -42.1720  -38.7250 N.am      2 SEC2        0.0000 
      7 N           4.9020  -42.5350  -37.7050 N.am     10 SEL2        0.0000 
      8 N           3.1070  -41.8090  -39.7450 N.am      6 SEP2        0.0000 
      9 N           4.0245  -43.2410  -36.7950 N.am      2 SEC2        0.0000 
     10 N           3.1470  -43.9470  -35.8850 N.am      6 SEP2        0.0000 
     11 NZ          3.7345  -39.9555  -37.7055 N.4       3 LYC4        0.0000 
     12 NZ          4.5510  -40.2140  -36.5970 N.4      11 LYL4        0.0000 
     13 N           3.7345  -39.9555  -37.7055 N.am      2 SEC2        0.0000 
     14 N           4.5510  -40.2140  -36.5970 N.am     10 SEL2        0.0000 
     15 N           2.9180  -39.6970  -38.8140 N.am      6 SEP2        0.0000 
     16 N           7.6490  -39.9640  -36.9150 N.am      2 SEC2        0.0000 
     17 N           6.8630  -41.0280  -37.3290 N.am     10 SEL2        0.0000 
     18 N           8.4350  -38.9000  -36.5010 N.am      6 SEP2        0.0000 
     19 N           8.1550  -43.4275  -33.3165 N.am      2 SEC2        0.0000 
     20 N           8.0500  -42.6310  -34.7350 N.am     10 SEL2        0.0000 
     21 N           8.2600  -44.2240  -31.8980 N.am      6 SEP2        0.0000 
     22 N           7.2065  -43.3825  -32.4325 N.am      2 SEC2        0.0000 
     23 N           6.1530  -42.5410  -32.9670 N.am     10 SEL2        0.0000 
     24 N           6.5520  -42.7880  -31.4070 N.am      2 SEC2        0.0000 
     25 N           6.9510  -43.0350  -29.8470 N.am      6 SEP2        0.0000 
     26 CA          5.3125  -40.3060  -31.9095 C.3       4 GLC5        0.0000 
     27 CA          6.0190  -39.4770  -33.8150 C.3      12 GLL5        0.0000 
     28 CA          4.6060  -41.1350  -30.0040 C.3       8 GLP5        0.0000 
     29 CA          8.0530  -38.8610  -30.2230 C.3       4 GLC5        0.0000 
     30 CA          6.8030  -38.4170  -31.6880 C.3      12 GLL5        0.0000 
     31 CA          9.3030  -39.3050  -28.7580 C.3       8 GLP5        0.0000 
     32 N           8.2785  -36.2455  -31.5890 N.am      2 SEC2        0.0000 
     33 N           7.8160  -37.5070  -31.2240 N.am     10 SEL2        0.0000 
     34 N           8.7410  -34.9840  -31.9540 N.am      6 SEP2        0.0000 
     35 O           9.1835  -37.5435  -31.6280 O.2       1 ALC1        0.0000 
     36 O           7.8160  -37.5070  -31.2240 O.2       9 ALL1        0.0000 
     37 O          10.5510  -37.5800  -32.0320 O.2       5 ALP1        0.0000 
     38 CA          3.6375  -37.5925  -30.1435 C.3       4 GLC5        0.0000 
     39 CA          5.4500  -37.9340  -31.2150 C.3      12 GLL5        0.0000 
     40 CA          1.8250  -37.2510  -29.0720 C.3       8 GLP5        0.0000 
     41 CA          6.8315  -35.7960  -32.7725 C.3       4 GLC5        0.0000 
     42 CA          5.2440  -36.7500  -32.1420 C.3      12 GLL5        0.0000 
     43 CA          8.4190  -34.8420  -33.4030 C.3       8 GLP5        0.0000 
     44 CA         -0.1370  -34.0340  -30.4755 C.3       4 GLC5        0.0000 
     45 CA          1.0940  -34.2470  -32.0710 C.3      12 GLL5        0.0000 
     46 CA         -1.3680  -33.8210  -28.8800 C.3       8 GLP5        0.0000 
     47 CA          0.6380  -32.3660  -32.6990 C.3       4 GLC5        0.0000 
     48 CA          0.1820  -30.4850  -33.3270 C.3       8 GLP5        0.0000 
     49 O          -1.1305  -33.0315  -32.5555 O.2       1 ALC1        0.0000 
     50 O          -0.1800  -34.1970  -32.5380 O.2       9 ALL1        0.0000 
     51 O          -2.0810  -31.8660  -32.5730 O.2       5 ALP1        0.0000 
     52 N           1.2915  -31.7620  -31.1495 N.am      2 SEC2        0.0000 
     53 N           1.5640  -33.2770  -31.2450 N.am     10 SEL2        0.0000 
     54 N           1.0190  -30.2470  -31.0540 N.am      6 SEP2        0.0000 
     55 CA          2.3270  -35.2815  -29.9270 C.3       4 GLC5        0.0000 
     56 CA          2.8290  -33.3120  -30.7820 C.3      12 GLL5        0.0000 
     57 CA          1.3500  -33.3925  -29.4095 C.3       4 GLC5        0.0000 
     58 CA         -0.1290  -33.4730  -28.0370 C.3       8 GLP5        0.0000 
     59 CA          2.1570  -31.3985  -30.3400 C.3       4 GLC5        0.0000 
     60 CA          1.4850  -29.4850  -29.8980 C.3       8 GLP5        0.0000 
     61 CA          3.9740  -31.8175  -29.9405 C.3       4 GLC5        0.0000 
     62 CA          5.1190  -30.3230  -29.0990 C.3       8 GLP5        0.0000 
     63 CA          3.2090  -33.8920  -28.9810 C.3       4 GLC5        0.0000 
     64 CA          3.5890  -34.4720  -27.1800 C.3       8 GLP5        0.0000 
     65 CA          6.6550  -37.9985  -35.3798 C.3       4 GLC5        0.0000 
     66 CA          6.6830  -38.2570  -33.1880 C.3      12 GLL5        0.0000 
     67 CA          6.9590  -37.1300  -37.2580 C.3       8 GLP5        0.0000 
     68 CA          7.9820  -39.1655  -34.6792 C.3       4 GLC5        0.0000 
     69 CA          9.6130  -39.4640  -35.8570 C.3       8 GLP5        0.0000 
     70 CA          7.5810  -36.5895  -32.9205 C.3       4 GLC5        0.0000 
     71 CA          5.3662  -39.6552  -30.7278 C.3       4 GLC5        0.0000 
     72 CA          2.1009  -36.1457  -30.5853 C.3       4 GLC5        0.0000 
     73 CA          1.9370  -35.2990  -32.4350 C.3      12 GLL5        0.0000 
@<TRIPOS>BOND
@<TRIPOS>SUBSTRUCTURE
     1 ALC1       35 GROUP        1 X    ALC  0     ROOT ALC X 1
     2 SEC2        6 GROUP        1 X    SEC  0     **** SEC X 2
     3 LYC4        1 GROUP        1 X    LYC  0     **** LYC X 4
     4 GLC5       26 GROUP        1 X    GLC  0     **** GLC X 6
     5 ALP1       37 GROUP        1 Y    ALP  0     ROOT ALP Y 8
     6 SEP2        8 GROUP        1 Y    SEP  0     **** SEP Y 9
     7 LYP4        3 GROUP        1 Y    LYP  0     **** LYP Y 11
     8 GLP5       28 GROUP        1 Y    GLP  0     **** GLP Y 13
     9 ALL1       36 GROUP        1 Z    ALL  0     ROOT ALL Z 15
    10 SEL2        7 GROUP        1 Z    SEL  0     **** SEL Z 16
    11 LYL4        2 GROUP        1 Z    LYL  0     **** LYL Z 18
    12 GLL5       27 GROUP        1 Z    GLL  0     **** GLL Z 20
@<TRIPOS>SET

