#    Name: 2r4t_ADP_1_ligand
#    Modification time : Mon Mar 24 23:09:05 2014

@<TRIPOS>MOLECULE
2r4t_ADP_1_ligand
   39    41     1     0     0
SMALL
NO_CHARGES


@<TRIPOS>ATOM
      1 PB          5.4230  -41.4440  -36.7950 P.3       1 ADP501      0.0000 
      2 O1B         4.9020  -42.5350  -37.7050 O.co2     1 ADP501      0.0000 
      3 O2B         4.5510  -40.2140  -36.5970 O.co2     1 ADP501      0.0000 
      4 O3B         6.8630  -41.0280  -37.3290 O.co2     1 ADP501      0.0000 
      5 PA          6.7740  -42.0180  -34.2320 P.3       1 ADP501      0.0000 
      6 O1A         8.0500  -42.6310  -34.7350 O.co2     1 ADP501      0.0000 
      7 O2A         6.1530  -42.5410  -32.9670 O.co2     1 ADP501      0.0000 
      8 O3A         5.6130  -42.1230  -35.3440 O.3       1 ADP501      0.0000 
      9 O5'         7.0400  -40.4380  -34.0380 O.3       1 ADP501      0.0000 
     10 C5'         6.0190  -39.4770  -33.8150 C.3       1 ADP501      0.0000 
     11 C4'         6.6830  -38.2570  -33.1880 C.3       1 ADP501      0.0000 
     12 O4'         5.8420  -37.1190  -33.3780 O.3       1 ADP501      0.0000 
     13 C3'         6.8030  -38.4170  -31.6880 C.3       1 ADP501      0.0000 
     14 O3'         7.8160  -37.5070  -31.2240 O.3       1 ADP501      0.0000 
     15 C2'         5.4500  -37.9340  -31.2150 C.3       1 ADP501      0.0000 
     16 O2'         5.4900  -37.5290  -29.8480 O.3       1 ADP501      0.0000 
     17 C1'         5.2440  -36.7500  -32.1420 C.3       1 ADP501      0.0000 
     18 N9          3.8340  -36.4000  -32.4210 N.pl3     1 ADP501      0.0000 
     19 C8          2.9700  -37.0660  -33.2140 C.2       1 ADP501      0.0000 
     20 N7          1.7900  -36.3960  -33.2150 N.2       1 ADP501      0.0000 
     21 C5          1.9370  -35.2990  -32.4350 C.ar      1 ADP501      0.0000 
     22 C6          1.0940  -34.2470  -32.0710 C.ar      1 ADP501      0.0000 
     23 N6         -0.1800  -34.1970  -32.5380 N.pl3     1 ADP501      0.0000 
     24 N1          1.5640  -33.2770  -31.2450 N.ar      1 ADP501      0.0000 
     25 C2          2.8290  -33.3120  -30.7820 C.ar      1 ADP501      0.0000 
     26 N3          3.6660  -34.3180  -31.1200 N.ar      1 ADP501      0.0000 
     27 C4          3.2380  -35.3080  -31.9440 C.ar      1 ADP501      0.0000 
     28 H           5.2597  -39.8367  -33.1258 H         1 ADP501      0.0000 
     29 H           5.5428  -39.1614  -34.7394 H         1 ADP501      0.0000 
     30 H           7.6422  -38.1100  -33.6045 H         1 ADP501      0.0000 
     31 H           6.9458  -39.3985  -31.4423 H         1 ADP501      0.0000 
     32 H           4.7330  -38.6656  -31.4426 H         1 ADP501      0.0000 
     33 H           5.7654  -35.8983  -31.7313 H         1 ADP501      0.0000 
     34 H           3.1542  -37.8782  -33.6985 H         1 ADP501      0.0000 
     35 H          -0.4743  -34.9719  -33.0974 H         1 ADP501      0.0000 
     36 H          -0.7114  -33.3897  -32.2812 H         1 ADP501      0.0000 
     37 H           3.1708  -32.5483  -30.1500 H         1 ADP501      0.0000 
     38 H           8.6472  -37.7749  -31.7112 H         1 ADP501      0.0000 
     39 H           5.7283  -36.5581  -29.8727 H         1 ADP501      0.0000 
@<TRIPOS>BOND
     1    2    1 ar   
     2    3    1 ar   
     3    4    1 ar   
     4    8    1 1    
     5    6    5 ar   
     6    7    5 ar   
     7    8    5 1    
     8    9    5 1    
     9   10    9 1    
    10   11   10 1    
    11   28   10 1    
    12   29   10 1    
    13   12   11 1    
    14   13   11 1    
    15   30   11 1    
    16   17   12 1    
    17   14   13 1    
    18   15   13 1    
    19   31   13 1    
    20   38   14 1    
    21   16   15 1    
    22   17   15 1    
    23   32   15 1    
    24   39   16 1    
    25   18   17 1    
    26   33   17 1    
    27   19   18 1    
    28   27   18 1    
    29   20   19 2    
    30   34   19 1    
    31   21   20 1    
    32   22   21 ar   
    33   27   21 ar   
    34   23   22 1    
    35   24   22 ar   
    36   35   23 1    
    37   36   23 1    
    38   25   24 ar   
    39   26   25 ar   
    40   37   25 1    
    41   27   26 ar   
@<TRIPOS>SUBSTRUCTURE
     1 ADP501      1 GROUP   
@<TRIPOS>SET

