#    Name: 4a62_ANP_2_INTS_M
#    Modification time : Tue Mar 25 05:07:42 2014

@<TRIPOS>MOLECULE
4a62_ANP_2_INTS_M
   73     0    15     0     0
SMALL
NO_CHARGES


@<TRIPOS>ATOM
      1 N         -72.1775   22.2290  -90.9515 N.am      2 SEC2        0.0000 
      2 N         -73.3780   21.9000  -91.5920 N.am     12 SEL2        0.0000 
      3 N         -70.9770   22.5580  -90.3110 N.am      7 SEP2        0.0000 
      4 N         -73.3890   22.2340  -90.2485 N.am      2 SEC2        0.0000 
      5 N         -73.4000   22.5680  -88.9050 N.am      7 SEP2        0.0000 
      6 Zn        -73.2060   19.0725  -93.1210 Zn        4 ZIC7        0.0000 
      7 Zn        -73.9310   19.6980  -92.6930 Zn       14 ZIL7        0.0000 
      8 Zn        -72.4810   18.4470  -93.5490 Zn        9 ZIP7        0.0000 
      9 N         -75.9635   20.6705  -89.6335 N.am      2 SEC2        0.0000 
     10 N         -75.4550   20.5540  -90.9210 N.am     12 SEL2        0.0000 
     11 N         -76.4720   20.7870  -88.3460 N.am      7 SEP2        0.0000 
     12 N         -76.8705   20.7445  -90.7230 N.am      2 SEC2        0.0000 
     13 N         -78.2860   20.9350  -90.5250 N.am      7 SEP2        0.0000 
     14 NZ        -70.1915   17.7865  -91.7685 N.4       3 LYC4        0.0000 
     15 NZ        -71.5010   18.3190  -91.6960 N.4      13 LYL4        0.0000 
     16 NZ        -68.8820   17.2540  -91.8410 N.4       8 LYP4        0.0000 
     17 Zn        -71.9910   18.3830  -92.6225 Zn        4 ZIC7        0.0000 
     18 Zn        -71.5010   18.3190  -91.6960 Zn       14 ZIL7        0.0000 
     19 NZ        -69.7495   18.3005  -90.6860 N.4       3 LYC4        0.0000 
     20 NZ        -70.6170   19.3470  -89.5310 N.4      13 LYL4        0.0000 
     21 N         -70.5570   20.4010  -88.6750 N.am      2 SEC2        0.0000 
     22 N         -70.6170   19.3470  -89.5310 N.am     12 SEL2        0.0000 
     23 N         -70.4970   21.4550  -87.8190 N.am      7 SEP2        0.0000 
     24 N         -69.4605   19.5440  -88.6900 N.am      2 SEC2        0.0000 
     25 N         -68.3040   19.7410  -87.8490 N.am      7 SEP2        0.0000 
     26 NZ        -69.5430   16.6105  -90.6990 N.4       3 LYC4        0.0000 
     27 NZ        -70.2040   15.9670  -89.5570 N.4      13 LYL4        0.0000 
     28 N         -69.5430   16.6105  -90.6990 N.am      2 SEC2        0.0000 
     29 N         -70.2040   15.9670  -89.5570 N.am     12 SEL2        0.0000 
     30 N         -68.8820   17.2540  -91.8410 N.am      7 SEP2        0.0000 
     31 N         -69.5835   14.9535  -88.8310 N.am      2 SEC2        0.0000 
     32 N         -68.9630   13.9400  -88.1050 N.am      7 SEP2        0.0000 
     33 N         -72.6765   14.0285  -90.7015 N.am      2 SEC2        0.0000 
     34 N         -72.3530   15.3890  -90.8810 N.am     12 SEL2        0.0000 
     35 N         -73.0000   12.6680  -90.5220 N.am      7 SEP2        0.0000 
     36 N         -73.7245   17.8995  -89.0120 N.am      2 SEC2        0.0000 
     37 N         -72.2740   17.5040  -89.4890 N.am     12 SEL2        0.0000 
     38 N         -75.1750   18.2950  -88.5350 N.am      7 SEP2        0.0000 
     39 CA        -71.5995   17.6225  -86.7300 C.3       5 GLC5        0.0000 
     40 CA        -72.1860   15.7580  -87.0840 C.3      15 GLL5        0.0000 
     41 CA        -71.0130   19.4870  -86.3760 C.3      10 GLP5        0.0000 
     42 CA        -75.2625   15.4195  -85.6770 C.3       5 GLC5        0.0000 
     43 CA        -73.1920   15.1390  -86.1260 C.3      15 GLL5        0.0000 
     44 CA        -77.3330   15.7000  -85.2280 C.3      10 GLP5        0.0000 
     45 CA        -71.7500   17.1025  -84.8475 C.3       5 GLC5        0.0000 
     46 CA        -72.6980   15.3110  -84.7000 C.3      15 GLL5        0.0000 
     47 CA        -70.8020   18.8940  -84.9950 C.3      10 GLP5        0.0000 
     48 O         -73.4940   16.2960  -82.5530 O.2       1 ALC1        0.0000 
     49 O         -73.4620   16.3780  -84.1200 O.2      11 ALL1        0.0000 
     50 O         -73.5260   16.2140  -80.9860 O.2       6 ALP1        0.0000 
     51 O         -72.6740   16.8150  -83.0625 O.2       1 ALC1        0.0000 
     52 O         -71.8860   17.2520  -82.0050 O.2       6 ALP1        0.0000 
     53 CA        -73.1485   12.5640  -87.1410 C.3       5 GLC5        0.0000 
     54 CA        -73.4130   13.0140  -85.0990 C.3      15 GLL5        0.0000 
     55 CA        -72.8840   12.1140  -89.1830 C.3      10 GLP5        0.0000 
     56 CA        -72.9095    8.9000  -82.0125 C.3       5 GLC5        0.0000 
     57 CA        -74.0260    8.7170  -83.8990 C.3      15 GLL5        0.0000 
     58 CA        -71.7930    9.0830  -80.1260 C.3      10 GLP5        0.0000 
     59 CA        -74.2120    7.7495  -85.5745 C.3       5 GLC5        0.0000 
     60 CA        -74.3980    6.7820  -87.2500 C.3      10 GLP5        0.0000 
     61 CA        -75.7430    8.8085  -83.7260 C.3       5 GLC5        0.0000 
     62 CA        -77.4600    8.9000  -83.5530 C.3      10 GLP5        0.0000 
     63 CA        -72.7865   13.7812  -87.8940 C.3       5 GLC5        0.0000 
     64 CA        -72.0625   15.1225  -82.3930 C.3       5 GLC5        0.0000 
     65 CA        -72.8980   13.9610  -84.0220 C.3      15 GLL5        0.0000 
     66 CA        -71.3270   15.6090  -80.4250 C.3      10 GLP5        0.0000 
     67 CA        -75.0847   14.3485  -84.3365 C.3       5 GLC5        0.0000 
     68 CA        -77.0640   14.8720  -83.9430 C.3      10 GLP5        0.0000 
     69 CA        -72.4843    8.0738  -86.4885 C.3       5 GLC5        0.0000 
     70 CA        -71.7580    9.7200  -85.0790 C.3      15 GLL5        0.0000 
     71 CA        -73.1580    7.1420  -88.0770 C.3      10 GLP5        0.0000 
     72 CA        -71.5289   10.2306  -83.2810 C.3       5 GLC5        0.0000 
     73 CA        -70.6990   10.6670  -81.7170 C.3      10 GLP5        0.0000 
@<TRIPOS>BOND
@<TRIPOS>SUBSTRUCTURE
     1 ALC1       48 GROUP        1 X    ALC  0     ROOT ALC X 1
     2 SEC2        1 GROUP        1 X    SEC  0     **** SEC X 2
     3 LYC4       14 GROUP        1 X    LYC  0     **** LYC X 4
     4 ZIC7        6 GROUP        1 X    ZIC  0     **** ZIC X 5
     5 GLC5       39 GROUP        1 X    GLC  0     **** GLC X 6
     6 ALP1       50 GROUP        1 Y    ALP  0     ROOT ALP Y 8
     7 SEP2        3 GROUP        1 Y    SEP  0     **** SEP Y 9
     8 LYP4       16 GROUP        1 Y    LYP  0     **** LYP Y 11
     9 ZIP7        8 GROUP        1 Y    ZIP  0     **** ZIP Y 12
    10 GLP5       41 GROUP        1 Y    GLP  0     **** GLP Y 13
    11 ALL1       49 GROUP        1 Z    ALL  0     ROOT ALL Z 15
    12 SEL2        2 GROUP        1 Z    SEL  0     **** SEL Z 16
    13 LYL4       15 GROUP        1 Z    LYL  0     **** LYL Z 18
    14 ZIL7        7 GROUP        1 Z    ZIL  0     **** ZIL Z 19
    15 GLL5       40 GROUP        1 Z    GLL  0     **** GLL Z 20
@<TRIPOS>SET

