#    Name: 4a62_ANP_2_ligand
#    Modification time : Tue Mar 25 05:07:42 2014

@<TRIPOS>MOLECULE
4a62_ANP_2_ligand
   43    45     1     0     0
SMALL
NO_CHARGES


@<TRIPOS>ATOM
      1 PG        -74.0440   20.5540  -91.4610 P.3       1 ANP500      0.0000 
      2 O1G       -73.3780   21.9000  -91.5920 O.co2     1 ANP500      0.0000 
      3 O2G       -73.9310   19.6980  -92.6930 O.co2     1 ANP500      0.0000 
      4 O3G       -75.4550   20.5540  -90.9210 O.co2     1 ANP500      0.0000 
      5 PB        -71.7800   18.7850  -90.3140 P.3       1 ANP500      0.0000 
      6 O1B       -71.5010   18.3190  -91.6960 O.co2     1 ANP500      0.0000 
      7 O2B       -70.6170   19.3470  -89.5310 O.co2     1 ANP500      0.0000 
      8 N3B       -73.1420   19.8470  -90.1550 N.4       1 ANP500      0.0000 
      9 PA        -71.6940   16.0150  -89.6680 P.3       1 ANP500      0.0000 
     10 O1A       -70.2040   15.9670  -89.5570 O.co2     1 ANP500      0.0000 
     11 O2A       -72.3530   15.3890  -90.8810 O.co2     1 ANP500      0.0000 
     12 O3A       -72.2740   17.5040  -89.4890 O.3       1 ANP500      0.0000 
     13 O5'       -72.3910   15.2910  -88.4010 O.3       1 ANP500      0.0000 
     14 C5'       -72.1860   15.7580  -87.0840 C.3       1 ANP500      0.0000 
     15 C4'       -73.1920   15.1390  -86.1260 C.3       1 ANP500      0.0000 
     16 O4'       -73.4120   13.7360  -86.3440 O.3       1 ANP500      0.0000 
     17 C3'       -72.6980   15.3110  -84.7000 C.3       1 ANP500      0.0000 
     18 O3'       -73.4620   16.3780  -84.1200 O.3       1 ANP500      0.0000 
     19 C2'       -72.8980   13.9610  -84.0220 C.3       1 ANP500      0.0000 
     20 O2'       -73.9030   14.0390  -82.9920 O.3       1 ANP500      0.0000 
     21 C1'       -73.4130   13.0140  -85.0990 C.3       1 ANP500      0.0000 
     22 N9        -72.5610   11.8110  -85.1850 N.pl3     1 ANP500      0.0000 
     23 C8        -71.3170   11.7660  -85.7070 C.2       1 ANP500      0.0000 
     24 N7        -70.8220   10.5050  -85.6440 N.2       1 ANP500      0.0000 
     25 C5        -71.7580    9.7200  -85.0790 C.ar      1 ANP500      0.0000 
     26 C6        -71.8630    8.2910  -84.7210 C.ar      1 ANP500      0.0000 
     27 N6        -70.8400    7.4440  -84.9710 N.pl3     1 ANP500      0.0000 
     28 N1        -73.0080    7.8690  -84.1430 N.ar      1 ANP500      0.0000 
     29 C2        -74.0260    8.7170  -83.8990 C.ar      1 ANP500      0.0000 
     30 N3        -73.9910   10.0330  -84.2110 N.ar      1 ANP500      0.0000 
     31 C4        -72.9070   10.5830  -84.7900 C.ar      1 ANP500      0.0000 
     32 H         -72.2918   16.8544  -87.0148 H         1 ANP500      0.0000 
     33 H         -71.1768   15.5109  -86.7120 H         1 ANP500      0.0000 
     34 H         -74.1269   15.6911  -86.2055 H         1 ANP500      0.0000 
     35 H         -71.6552   15.5311  -84.7455 H         1 ANP500      0.0000 
     36 H         -71.9732   13.6006  -83.6681 H         1 ANP500      0.0000 
     37 H         -74.4214   12.7331  -84.8300 H         1 ANP500      0.0000 
     38 H         -70.8375   12.5322  -86.0788 H         1 ANP500      0.0000 
     39 H         -70.0131    7.8542  -85.3558 H         1 ANP500      0.0000 
     40 H         -71.0007    6.4823  -84.7490 H         1 ANP500      0.0000 
     41 H         -74.9056    8.3336  -83.4362 H         1 ANP500      0.0000 
     42 H         -72.9117   16.7014  -83.3502 H         1 ANP500      0.0000 
     43 H         -74.2917   14.9563  -83.0788 H         1 ANP500      0.0000 
@<TRIPOS>BOND
     1    2    1 ar   
     2    3    1 ar   
     3    4    1 ar   
     4    8    1 1    
     5    6    5 ar   
     6    7    5 ar   
     7    8    5 1    
     8   12    5 1    
     9   10    9 ar   
    10   11    9 ar   
    11   12    9 1    
    12   13    9 1    
    13   14   13 1    
    14   15   14 1    
    15   32   14 1    
    16   33   14 1    
    17   16   15 1    
    18   17   15 1    
    19   34   15 1    
    20   21   16 1    
    21   18   17 1    
    22   19   17 1    
    23   35   17 1    
    24   42   18 1    
    25   20   19 1    
    26   21   19 1    
    27   36   19 1    
    28   43   20 1    
    29   22   21 1    
    30   37   21 1    
    31   23   22 1    
    32   31   22 1    
    33   24   23 2    
    34   38   23 1    
    35   25   24 1    
    36   26   25 ar   
    37   31   25 ar   
    38   27   26 1    
    39   28   26 ar   
    40   39   27 1    
    41   40   27 1    
    42   29   28 ar   
    43   30   29 ar   
    44   41   29 1    
    45   31   30 ar   
@<TRIPOS>SUBSTRUCTURE
     1 ANP500      1 GROUP   
@<TRIPOS>SET

