#    Name: 2om9_AJA_5_INTS_M
#    Modification time : Tue Mar 25 22:56:46 2014

@<TRIPOS>MOLECULE
2om9_AJA_5_INTS_M
   87     0     6     0     0
SMALL
NO_CHARGES


@<TRIPOS>ATOM
      1 N         -14.3115  -54.2125  -55.8820 N.am      1 SEC2        0.0000 
      2 N         -13.9440  -52.7270  -55.6490 N.am      5 SEL2        0.0000 
      3 N         -14.6790  -55.6980  -56.1150 N.am      3 SEP2        0.0000 
      4 CA        -13.2790  -52.3800  -53.3495 C.3       2 GLC5        0.0000 
      5 CA        -12.5190  -51.1780  -54.6330 C.3       6 GLL5        0.0000 
      6 CA        -14.0390  -53.5820  -52.0660 C.3       4 GLP5        0.0000 
      7 CA        -11.4325  -48.9200  -53.2005 C.3       2 GLC5        0.0000 
      8 CA        -12.2020  -49.7630  -55.0550 C.3       6 GLL5        0.0000 
      9 CA        -10.6630  -48.0770  -51.3460 C.3       4 GLP5        0.0000 
     10 CA        -10.6035  -49.2980  -57.8060 C.3       2 GLC5        0.0000 
     11 CA        -10.7870  -49.7120  -55.6190 C.3       6 GLL5        0.0000 
     12 CA        -10.4200  -48.8840  -59.9930 C.3       4 GLP5        0.0000 
     13 CA        -12.0760  -41.7410  -56.8900 C.3       2 GLC5        0.0000 
     14 CA        -10.5830  -43.3770  -56.5680 C.3       6 GLL5        0.0000 
     15 CA        -13.5690  -40.1050  -57.2120 C.3       4 GLP5        0.0000 
     16 CA         -9.7005  -41.5220  -57.3865 C.3       2 GLC5        0.0000 
     17 CA         -8.8180  -39.6670  -58.2050 C.3       4 GLP5        0.0000 
     18 CA         -8.2990  -42.3380  -58.7425 C.3       2 GLC5        0.0000 
     19 CA         -8.7120  -44.1470  -58.0360 C.3       6 GLL5        0.0000 
     20 CA         -7.8860  -40.5290  -59.4490 C.3       4 GLP5        0.0000 
     21 CA         -7.9315  -45.9710  -60.4460 C.3       2 GLC5        0.0000 
     22 CA         -6.9060  -45.0080  -59.5550 C.3       6 GLL5        0.0000 
     23 CA         -8.9570  -46.9340  -61.3370 C.3       4 GLP5        0.0000 
     24 CA         -4.8145  -47.1610  -61.2145 C.3       2 GLC5        0.0000 
     25 CA         -4.6870  -45.3620  -60.6790 C.3       6 GLL5        0.0000 
     26 CA         -4.9420  -48.9600  -61.7500 C.3       4 GLP5        0.0000 
     27 CA         -3.8355  -46.0330  -62.4425 C.3       2 GLC5        0.0000 
     28 CA         -3.2030  -45.0780  -60.6160 C.3       6 GLL5        0.0000 
     29 CA         -4.4680  -46.9880  -64.2690 C.3       4 GLP5        0.0000 
     30 CA         -2.0535  -45.1030  -59.0185 C.3       2 GLC5        0.0000 
     31 CA         -0.9040  -45.1280  -57.4210 C.3       4 GLP5        0.0000 
     32 CA         -1.2445  -45.1450  -61.1405 C.3       2 GLC5        0.0000 
     33 CA          0.7140  -45.2120  -61.6650 C.3       4 GLP5        0.0000 
     34 CA         -3.4755  -43.2090  -61.6250 C.3       2 GLC5        0.0000 
     35 CA         -3.7480  -41.3400  -62.6340 C.3       4 GLP5        0.0000 
     36 CA         -6.9825  -44.6545  -54.3445 C.3       2 GLC5        0.0000 
     37 CA         -8.3190  -43.7920  -55.5930 C.3       6 GLL5        0.0000 
     38 CA         -5.6460  -45.5170  -53.0960 C.3       4 GLP5        0.0000 
     39 CA         -6.9325  -42.6280  -55.1775 C.3       2 GLC5        0.0000 
     40 CA         -5.5460  -41.4640  -54.7620 C.3       4 GLP5        0.0000 
     41 CA         -6.7675  -47.2310  -56.5635 C.3       2 GLC5        0.0000 
     42 CA         -8.7370  -46.5750  -55.9710 C.3       6 GLL5        0.0000 
     43 CA         -4.7980  -47.8870  -57.1560 C.3       4 GLP5        0.0000 
     44 CA         -6.4405  -50.5195  -57.3575 C.3       2 GLC5        0.0000 
     45 CA         -8.2400  -50.8430  -56.5370 C.3       6 GLL5        0.0000 
     46 CA         -4.6410  -50.1960  -58.1780 C.3       4 GLP5        0.0000 
     47 CA         -8.6010  -51.5995  -58.0520 C.3       2 GLC5        0.0000 
     48 CA         -8.9620  -52.3560  -59.5670 C.3       4 GLP5        0.0000 
     49 CA         -5.7425  -50.7000  -52.9500 C.3       2 GLC5        0.0000 
     50 CA         -7.3770  -50.7640  -54.1910 C.3       6 GLL5        0.0000 
     51 CA         -4.1080  -50.6360  -51.7090 C.3       4 GLP5        0.0000 
     52 CA         -5.4385  -50.1965  -55.0975 C.3       2 GLC5        0.0000 
     53 CA         -3.5000  -49.6290  -56.0040 C.3       4 GLP5        0.0000 
     54 CA         -6.8185  -48.9230  -53.3225 C.3       2 GLC5        0.0000 
     55 CA         -6.2600  -47.0820  -52.4540 C.3       4 GLP5        0.0000 
     56 CA        -10.2295  -49.2065  -52.9970 C.3       2 GLC5        0.0000 
     57 CA         -9.7960  -50.3360  -54.6480 C.3       6 GLL5        0.0000 
     58 CA        -10.2970  -52.3945  -52.6670 C.3       2 GLC5        0.0000 
     59 CA        -10.1310  -51.8010  -54.4000 C.3       6 GLL5        0.0000 
     60 CA        -10.4630  -52.9880  -50.9340 C.3       4 GLP5        0.0000 
     61 CA        -11.6955  -52.3670  -52.6185 C.3       2 GLC5        0.0000 
     62 CA        -11.5880  -51.9220  -54.0190 C.3       6 GLL5        0.0000 
     63 CA        -11.8030  -52.8120  -51.2180 C.3       4 GLP5        0.0000 
     64 CA        -10.2780  -47.7122  -57.9533 C.3       2 GLC5        0.0000 
     65 CA        -10.3990  -48.3080  -55.8790 C.3       6 GLL5        0.0000 
     66 CA         -9.6740  -47.5700  -59.8250 C.3       4 GLP5        0.0000 
     67 CA        -11.0725  -46.5583  -54.4978 C.3       2 GLC5        0.0000 
     68 CA        -11.3650  -47.4010  -56.2840 C.3       6 GLL5        0.0000 
     69 CA        -11.2630  -45.2620  -52.9140 C.3       4 GLP5        0.0000 
     70 CA        -10.0183  -46.7207  -58.1403 C.3       2 GLC5        0.0000 
     71 CA        -11.0210  -46.0780  -56.5340 C.3       6 GLL5        0.0000 
     72 CA        -10.8127  -45.5667  -54.6848 C.3       2 GLC5        0.0000 
     73 CA         -8.8777  -46.0710  -58.9545 C.3       2 GLC5        0.0000 
     74 CA         -5.9882  -46.4447  -57.9997 C.3       2 GLC5        0.0000 
     75 CA         -7.4510  -44.9970  -58.1320 C.3       6 GLL5        0.0000 
     76 CA         -4.9290  -46.4380  -58.6425 C.3       2 GLC5        0.0000 
     77 CA         -5.4330  -44.6160  -59.5790 C.3       6 GLL5        0.0000 
     78 CA         -5.4189  -44.0946  -57.6556 C.3       2 GLC5        0.0000 
     79 CA         -4.5320  -43.3800  -56.1000 C.3       4 GLP5        0.0000 
     80 CA         -6.3024  -42.7466  -58.9111 C.3       2 GLC5        0.0000 
     81 CA         -6.2990  -40.6840  -58.6110 C.3       4 GLP5        0.0000 
     82 CA         -9.5006  -42.4094  -54.8239 C.3       2 GLC5        0.0000 
     83 CA         -9.8640  -41.0190  -53.5480 C.3       4 GLP5        0.0000 
     84 CA        -10.2001  -44.5309  -54.5069 C.3       2 GLC5        0.0000 
     85 CA         -9.2920  -47.4035  -57.8357 C.3       2 GLC5        0.0000 
     86 CA        -10.0865  -46.2495  -54.3802 C.3       2 GLC5        0.0000 
     87 CA         -7.5850  -47.1595  -54.1502 C.3       2 GLC5        0.0000 
@<TRIPOS>BOND
@<TRIPOS>SUBSTRUCTURE
     1 SEC2        1 GROUP        1 X    SEC  0     ROOT SEC X 2
     2 GLC5        4 GROUP        1 X    GLC  0     **** GLC X 6
     3 SEP2        3 GROUP        1 Y    SEP  0     ROOT SEP Y 9
     4 GLP5        6 GROUP        1 Y    GLP  0     **** GLP Y 13
     5 SEL2        2 GROUP        1 Z    SEL  0     ROOT SEL Z 16
     6 GLL5        5 GROUP        1 Z    GLL  0     **** GLL Z 20
@<TRIPOS>SET

