#    Name: 2om9_AJA_5_ligand
#    Modification time : Tue Mar 25 22:56:46 2014

@<TRIPOS>MOLECULE
2om9_AJA_5_ligand
   64    66     1     0     0
SMALL
NO_CHARGES


@<TRIPOS>ATOM
      1 O27       -14.8400  -51.2100  -54.3550 O.co2     1 AJA701      0.0000 
      2 C16       -13.8430  -51.7370  -54.8940 C.2       1 AJA701      0.0000 
      3 O26       -13.9440  -52.7270  -55.6490 O.co2     1 AJA701      0.0000 
      4 C10       -12.5190  -51.1780  -54.6330 C.2       1 AJA701      0.0000 
      5 C9        -12.2020  -49.7630  -55.0550 C.3       1 AJA701      0.0000 
      6 C8        -10.7870  -49.7120  -55.6190 C.3       1 AJA701      0.0000 
      7 C7        -10.3990  -48.3080  -55.8790 C.ar      1 AJA701      0.0000 
      8 C6        -11.3650  -47.4010  -56.2840 C.ar      1 AJA701      0.0000 
      9 O15       -12.6550  -47.8080  -56.4370 O.3       1 AJA701      0.0000 
     10 C5        -11.0210  -46.0780  -56.5340 C.ar      1 AJA701      0.0000 
     11 C4         -9.7040  -45.6650  -56.3770 C.ar      1 AJA701      0.0000 
     12 C19        -9.3280  -44.2380  -56.6450 C.3       1 AJA701      0.0000 
     13 C25       -10.5830  -43.3770  -56.5680 C.3       1 AJA701      0.0000 
     14 C20        -8.7120  -44.1470  -58.0360 C.3       1 AJA701      0.0000 
     15 C21        -7.4510  -44.9970  -58.1320 C.3       1 AJA701      0.0000 
     16 C22        -6.9060  -45.0080  -59.5550 C.3       1 AJA701      0.0000 
     17 C23        -5.4330  -44.6160  -59.5790 C.3       1 AJA701      0.0000 
     18 C28        -4.6870  -45.3620  -60.6790 C.3       1 AJA701      0.0000 
     19 C29        -3.2030  -45.0780  -60.6160 C.3       1 AJA701      0.0000 
     20 C24        -8.3190  -43.7920  -55.5930 C.3       1 AJA701      0.0000 
     21 C3         -8.7370  -46.5750  -55.9710 C.ar      1 AJA701      0.0000 
     22 C2         -9.0830  -47.8990  -55.7220 C.ar      1 AJA701      0.0000 
     23 O1         -8.1080  -48.7790  -55.3220 O.3       1 AJA701      0.0000 
     24 C14        -8.3780  -50.1720  -55.1760 C.3       1 AJA701      0.0000 
     25 C18        -8.2400  -50.8430  -56.5370 C.3       1 AJA701      0.0000 
     26 C17        -7.3770  -50.7640  -54.1910 C.3       1 AJA701      0.0000 
     27 C13        -9.7960  -50.3360  -54.6480 C.3       1 AJA701      0.0000 
     28 C12       -10.1310  -51.8010  -54.4000 C.3       1 AJA701      0.0000 
     29 C11       -11.5880  -51.9220  -54.0190 C.2       1 AJA701      0.0000 
     30 H         -12.2692  -49.1009  -54.1988 H         1 AJA701      0.0000 
     31 H         -12.9024  -49.4420  -55.8182 H         1 AJA701      0.0000 
     32 H         -10.7630  -50.2716  -56.5415 H         1 AJA701      0.0000 
     33 H         -11.7391  -45.4072  -56.8342 H         1 AJA701      0.0000 
     34 H          -8.4629  -43.1076  -58.2519 H         1 AJA701      0.0000 
     35 H          -9.4365  -44.4931  -58.7738 H         1 AJA701      0.0000 
     36 H          -7.6812  -46.0183  -57.8269 H         1 AJA701      0.0000 
     37 H          -6.6931  -44.5940  -57.4594 H         1 AJA701      0.0000 
     38 H          -7.4752  -44.3053  -60.1641 H         1 AJA701      0.0000 
     39 H          -7.0192  -46.0072  -59.9763 H         1 AJA701      0.0000 
     40 H          -4.9822  -44.8517  -58.6147 H         1 AJA701      0.0000 
     41 H          -5.3491  -43.5427  -59.7513 H         1 AJA701      0.0000 
     42 H          -5.0777  -45.0508  -61.6496 H         1 AJA701      0.0000 
     43 H          -4.8592  -46.4337  -60.5635 H         1 AJA701      0.0000 
     44 H          -7.7604  -46.2698  -55.8536 H         1 AJA701      0.0000 
     45 H          -9.8699  -49.8016  -53.7008 H         1 AJA701      0.0000 
     46 H          -9.5093  -52.1789  -53.5956 H         1 AJA701      0.0000 
     47 H          -9.9401  -52.3695  -55.3038 H         1 AJA701      0.0000 
     48 H         -11.7903  -52.5985  -53.2774 H         1 AJA701      0.0000 
     49 H         -10.3826  -42.4123  -56.7386 H         1 AJA701      0.0000 
     50 H         -11.2677  -43.6575  -57.2407 H         1 AJA701      0.0000 
     51 H         -11.0163  -43.4317  -55.6684 H         1 AJA701      0.0000 
     52 H          -2.8083  -45.3569  -59.7405 H         1 AJA701      0.0000 
     53 H          -2.7012  -45.5637  -61.3318 H         1 AJA701      0.0000 
     54 H          -3.0061  -44.1041  -60.7293 H         1 AJA701      0.0000 
     55 H          -7.4913  -44.3529  -55.6109 H         1 AJA701      0.0000 
     56 H          -8.0334  -42.8436  -55.7309 H         1 AJA701      0.0000 
     57 H          -8.6948  -43.8535  -54.6683 H         1 AJA701      0.0000 
     58 H          -7.3205  -50.7322  -56.9142 H         1 AJA701      0.0000 
     59 H          -8.4197  -51.8254  -56.4866 H         1 AJA701      0.0000 
     60 H          -8.8789  -50.4621  -57.2054 H         1 AJA701      0.0000 
     61 H          -6.4347  -50.6512  -54.5062 H         1 AJA701      0.0000 
     62 H          -7.4394  -50.3301  -53.2922 H         1 AJA701      0.0000 
     63 H          -7.5251  -51.7435  -54.0545 H         1 AJA701      0.0000 
     64 H         -13.1690  -47.3052  -55.7421 H         1 AJA701      0.0000 
@<TRIPOS>BOND
     1    2    1 ar   
     2    3    2 ar   
     3    4    2 1    
     4    5    4 1    
     5   29    4 2    
     6    6    5 1    
     7   30    5 1    
     8   31    5 1    
     9    7    6 1    
    10   27    6 1    
    11   32    6 1    
    12    8    7 ar   
    13   22    7 ar   
    14    9    8 1    
    15   10    8 ar   
    16   64    9 1    
    17   11   10 ar   
    18   33   10 1    
    19   12   11 1    
    20   21   11 ar   
    21   13   12 1    
    22   14   12 1    
    23   20   12 1    
    24   49   13 1    
    25   50   13 1    
    26   51   13 1    
    27   15   14 1    
    28   34   14 1    
    29   35   14 1    
    30   16   15 1    
    31   36   15 1    
    32   37   15 1    
    33   17   16 1    
    34   38   16 1    
    35   39   16 1    
    36   18   17 1    
    37   40   17 1    
    38   41   17 1    
    39   19   18 1    
    40   42   18 1    
    41   43   18 1    
    42   52   19 1    
    43   53   19 1    
    44   54   19 1    
    45   55   20 1    
    46   56   20 1    
    47   57   20 1    
    48   22   21 ar   
    49   44   21 1    
    50   23   22 1    
    51   24   23 1    
    52   25   24 1    
    53   26   24 1    
    54   27   24 1    
    55   58   25 1    
    56   59   25 1    
    57   60   25 1    
    58   61   26 1    
    59   62   26 1    
    60   63   26 1    
    61   28   27 1    
    62   45   27 1    
    63   29   28 1    
    64   46   28 1    
    65   47   28 1    
    66   48   29 1    
@<TRIPOS>SUBSTRUCTURE
     1 AJA701      1 GROUP   
@<TRIPOS>SET

