#    Name: 4CGA_1_CAVITY_N1_6.mol2
#    Modification time : Mon Mar 10 13:13:31 2014

@<TRIPOS>MOLECULE
4CGA_1_CAVITY_N1_6.mol2
  113     0     6     0     0
SMALL
NO_CHARGES


@<TRIPOS>ATOM
      1 CZ        -18.4716    4.6127    3.5049 C.ar      4 PHE5        0.0000 
      2 N         -17.7568    4.4590    1.5135 N.2       2 ALA2        0.0000 
      3 N         -16.4091    4.2727    0.8818 N.2       2 ALA2        0.0000 
      4 CZ        -17.7380    6.1892    8.1661 C.ar      4 PHE5        0.0000 
      5 CZ        -16.3903    6.0029    7.5343 C.ar      4 PHE5        0.0000 
      6 CZ        -18.3709    6.2218    6.8065 C.ar      4 PHE5        0.0000 
      7 CZ        -17.0232    6.0355    6.1747 C.ar      4 PHE5        0.0000 
      8 CZ        -19.0037    6.2544    5.4469 C.ar      4 PHE5        0.0000 
      9 CZ        -17.6561    6.0681    4.8152 C.ar      4 PHE5        0.0000 
     10 CZ        -16.3084    5.8818    4.1834 C.ar      4 PHE5        0.0000 
     11 CZ        -14.9608    5.6955    3.5516 C.ar      4 PHE5        0.0000 
     12 OG        -19.6366    6.2871    4.0874 O.2       1 SER1        0.0000 
     13 DU        -18.2889    6.1008    3.4556 H         6 CUB7        0.0000 
     14 CZ        -16.9413    5.9144    2.8238 C.ar      4 PHE5        0.0000 
     15 CZ        -15.5937    5.7281    2.1920 C.ar      4 PHE5        0.0000 
     16 N         -14.2460    5.5418    1.5602 N.2       2 ALA2        0.0000 
     17 CA        -18.9218    6.1334    2.0960 C.3       5 GLY6        0.0000 
     18 CZ        -17.5554    7.6772    8.1168 C.ar      4 PHE5        0.0000 
     19 CZ        -16.2077    7.4909    7.4850 C.ar      4 PHE5        0.0000 
     20 CZ        -18.1882    7.7098    6.7572 C.ar      4 PHE5        0.0000 
     21 CZ        -16.8406    7.5235    6.1254 C.ar      4 PHE5        0.0000 
     22 CZ        -15.4930    7.3372    5.4936 C.ar      4 PHE5        0.0000 
     23 CZ        -18.8211    7.7425    5.3976 C.ar      4 PHE5        0.0000 
     24 DU        -17.4735    7.5562    4.7659 H         6 CUB7        0.0000 
     25 CZ        -16.1258    7.3698    4.1341 C.ar      4 PHE5        0.0000 
     26 CA        -14.7782    7.1835    3.5023 C.3       5 GLY6        0.0000 
     27 CZ        -19.4540    7.7751    4.0381 C.ar      4 PHE5        0.0000 
     28 DU        -16.7587    7.4025    2.7745 H         6 CUB7        0.0000 
     29 CA        -15.4110    7.2162    2.1427 C.3       5 GLY6        0.0000 
     30 CZ        -18.0875    9.3189   10.0588 C.ar      4 PHE5        0.0000 
     31 OG        -16.7399    9.1326    9.4270 O.2       1 SER1        0.0000 
     32 CZ        -18.7204    9.3516    8.6993 C.ar      4 PHE5        0.0000 
     33 CZ        -17.3728    9.1652    8.0675 C.ar      4 PHE5        0.0000 
     34 CZ        -16.0251    8.9789    7.4357 C.ar      4 PHE5        0.0000 
     35 CZ        -18.0056    9.1979    6.7079 C.ar      4 PHE5        0.0000 
     36 DU        -16.6580    9.0116    6.0761 H         6 CUB7        0.0000 
     37 CZ        -15.3103    8.8252    5.4443 C.ar      4 PHE5        0.0000 
     38 CZ        -19.9861    9.4168    5.9801 C.ar      4 PHE5        0.0000 
     39 CZ        -18.6385    9.2305    5.3484 C.ar      4 PHE5        0.0000 
     40 DU        -17.2908    9.0442    4.7166 H         6 CUB7        0.0000 
     41 CZ        -15.9432    8.8579    4.0848 C.ar      4 PHE5        0.0000 
     42 CA        -14.5956    8.6716    3.4530 C.3       5 GLY6        0.0000 
     43 O         -26.0096   10.1947    7.1477 O.2       2 ALA2        0.0000 
     44 CZ        -20.6190    9.4494    4.6206 C.ar      4 PHE5        0.0000 
     45 DU        -19.2714    9.2631    3.9888 H         6 CUB7        0.0000 
     46 DU        -16.5761    8.8905    2.7252 H         6 CUB7        0.0000 
     47 CA        -15.2284    8.7042    2.0934 C.3       5 GLY6        0.0000 
     48 OG        -23.9471    9.8547    4.5246 O.2       1 SER1        0.0000 
     49 CA        -17.2721   10.7743   11.3691 C.3       5 GLY6        0.0000 
     50 CZ        -19.2526   10.9933   10.6413 C.ar      4 PHE5        0.0000 
     51 CA        -17.9049   10.8070   10.0095 C.3       5 GLY6        0.0000 
     52 NZ        -16.5573   10.6206    9.3778 N.2       3 LYS4        0.0000 
     53 CZ        -21.2331   11.2122    9.9135 C.ar      4 PHE5        0.0000 
     54 CZ        -19.8854   11.0259    9.2818 C.ar      4 PHE5        0.0000 
     55 DU        -18.5378   10.8396    8.6500 H         6 CUB7        0.0000 
     56 O         -17.1901   10.6533    8.0182 O.2       2 ALA2        0.0000 
     57 O         -15.8425   10.4670    7.3864 O.2       2 ALA2        0.0000 
     58 CZ        -21.8659   11.2448    8.5540 C.ar      4 PHE5        0.0000 
     59 CZ        -20.5183   11.0585    7.9222 C.ar      4 PHE5        0.0000 
     60 CZ        -19.1707   10.8722    7.2904 C.ar      4 PHE5        0.0000 
     61 O         -17.8230   10.6859    6.6586 O.2       2 ALA2        0.0000 
     62 O         -16.4754   10.4996    6.0268 O.2       2 ALA2        0.0000 
     63 O         -15.1277   10.3133    5.3951 O.2       2 ALA2        0.0000 
     64 OG        -26.5417   11.8364    9.0898 O.2       1 SER1        0.0000 
     65 O         -25.1941   11.6501    8.4580 O.2       2 ALA2        0.0000 
     66 CZ        -22.4988   11.2775    7.1944 C.ar      4 PHE5        0.0000 
     67 CZ        -21.1512   11.0912    6.5626 C.ar      4 PHE5        0.0000 
     68 CZ        -19.8035   10.9048    5.9308 C.ar      4 PHE5        0.0000 
     69 O         -18.4559   10.7185    5.2991 O.2       2 ALA2        0.0000 
     70 O         -17.1082   10.5322    4.6673 O.2       2 ALA2        0.0000 
     71 O         -15.7606   10.3459    4.0355 O.2       2 ALA2        0.0000 
     72 N         -14.4130   10.1596    3.4037 N.2       2 ALA2        0.0000 
     73 CZ        -25.8269   11.6827    7.0984 C.ar      4 PHE5        0.0000 
     74 OG        -24.4793   11.4964    6.4666 O.2       1 SER1        0.0000 
     75 OG        -23.1317   11.3101    5.8348 O.2       1 SER1        0.0000 
     76 OG        -21.7840   11.1238    5.2031 O.2       1 SER1        0.0000 
     77 DU        -20.4364   10.9375    4.5713 H         6 CUB7        0.0000 
     78 DU        -19.0887   10.7512    3.9395 H         6 CUB7        0.0000 
     79 DU        -17.7411   10.5648    3.3077 H         6 CUB7        0.0000 
     80 CZ        -19.0699   12.4813   10.5920 C.ar      4 PHE5        0.0000 
     81 NZ        -17.7223   12.2950    9.9602 N.2       3 LYS4        0.0000 
     82 NZ        -16.3747   12.1087    9.3285 N.2       3 LYS4        0.0000 
     83 CZ        -21.0505   12.7002    9.8642 C.ar      4 PHE5        0.0000 
     84 NZ        -19.7028   12.5139    9.2325 N.2       3 LYS4        0.0000 
     85 NZ        -18.3552   12.3276    8.6007 N.2       3 LYS4        0.0000 
     86 NZ        -17.0075   12.1413    7.9689 N.2       3 LYS4        0.0000 
     87 OG        -24.3786   13.1055    9.7682 O.2       1 SER1        0.0000 
     88 CZ        -23.0310   12.9192    9.1365 C.ar      4 PHE5        0.0000 
     89 DU        -21.6833   12.7329    8.5047 H         6 CUB7        0.0000 
     90 NZ        -20.3357   12.5466    7.8729 N.2       3 LYS4        0.0000 
     91 NZ        -18.9880   12.3602    7.2411 N.2       3 LYS4        0.0000 
     92 O         -17.6404   12.1739    6.6093 O.2       2 ALA2        0.0000 
     93 OG        -27.7067   13.5108    9.6723 O.2       1 SER1        0.0000 
     94 OG        -26.3591   13.3244    9.0405 O.2       1 SER1        0.0000 
     95 CZ        -25.0115   13.1381    8.4087 C.ar      4 PHE5        0.0000 
     96 CZ        -23.6638   12.9518    7.7769 C.ar      4 PHE5        0.0000 
     97 CZ        -22.3162   12.7655    7.1451 C.ar      4 PHE5        0.0000 
     98 CZ        -20.9685   12.5792    6.5133 C.ar      4 PHE5        0.0000 
     99 NZ        -19.6209   12.3929    5.8815 N.2       3 LYS4        0.0000 
    100 O         -18.2733   12.2066    5.2498 O.2       2 ALA2        0.0000 
    101 OG        -20.2538   12.4255    4.5220 O.2       1 SER1        0.0000 
    102 NZ        -18.9061   12.2392    3.8902 N.2       3 LYS4        0.0000 
    103 CZ        -20.8678   14.1883    9.8149 C.ar      4 PHE5        0.0000 
    104 NZ        -19.5202   14.0020    9.1832 N.2       3 LYS4        0.0000 
    105 CZ        -25.5436   14.7798   10.3507 C.ar      4 PHE5        0.0000 
    106 CZ        -24.1960   14.5935    9.7190 C.ar      4 PHE5        0.0000 
    107 CZ        -22.8483   14.4072    9.0872 C.ar      4 PHE5        0.0000 
    108 CZ        -21.5007   14.2209    8.4554 C.ar      4 PHE5        0.0000 
    109 NZ        -20.1531   14.0346    7.8236 N.2       3 LYS4        0.0000 
    110 DU        -27.5241   14.9988    9.6230 H         6 CUB7        0.0000 
    111 CZ        -26.1765   14.8125    8.9912 C.ar      4 PHE5        0.0000 
    112 CZ        -26.8094   14.8451    7.6316 C.ar      4 PHE5        0.0000 
    113 CZ        -25.3610   16.2679   10.3014 C.ar      4 PHE5        0.0000 
@<TRIPOS>BOND
@<TRIPOS>SUBSTRUCTURE
     1 SER1       12 GROUP   
     2 ALA2        2 GROUP   
     3 LYS4       52 GROUP   
     4 PHE5        1 GROUP   
     5 GLY6       17 GROUP   
     6 CUB7       13 GROUP   
@<TRIPOS>SET

