#    Name: 4cga_QLW_1_INTS_M
#    Modification time : Tue Mar 25 09:22:59 2014

@<TRIPOS>MOLECULE
4cga_QLW_1_INTS_M
   38     0     3     0     0
SMALL
NO_CHARGES


@<TRIPOS>ATOM
      1 CA        -19.6000   15.9250    8.6655 C.3       1 GLC5        0.0000 
      2 CA        -21.0850   14.9330    9.3320 C.3       3 GLL5        0.0000 
      3 CA        -18.1150   16.9170    7.9990 C.3       2 GLP5        0.0000 
      4 CA        -22.1635   15.7670    8.2680 C.3       1 GLC5        0.0000 
      5 CA        -23.2420   16.6010    7.2040 C.3       2 GLP5        0.0000 
      6 CA        -21.3555   14.4130   10.9105 C.3       1 GLC5        0.0000 
      7 CA        -21.6260   13.8930   12.4890 C.3       2 GLP5        0.0000 
      8 CA        -23.5705   14.4115    8.0390 C.3       1 GLC5        0.0000 
      9 CA        -22.7110   12.9600    8.9580 C.3       3 GLL5        0.0000 
     10 CA        -24.4300   15.8630    7.1200 C.3       2 GLP5        0.0000 
     11 CA        -22.3770   12.7520   10.7330 C.3       1 GLC5        0.0000 
     12 CA        -22.0430   12.5440   12.5080 C.3       2 GLP5        0.0000 
     13 CA        -23.4115   11.1890    9.6955 C.3       1 GLC5        0.0000 
     14 CA        -24.1120    9.4180   10.4330 C.3       2 GLP5        0.0000 
     15 CA        -18.5815   15.0400    8.8695 C.3       1 GLC5        0.0000 
     16 CA        -19.0480   13.1630    9.7400 C.3       3 GLL5        0.0000 
     17 CA        -18.9470    9.9945   11.6515 C.3       1 GLC5        0.0000 
     18 CA        -19.3780   10.4250    9.5020 C.3       3 GLL5        0.0000 
     19 CA        -18.5160    9.5640   13.8010 C.3       2 GLP5        0.0000 
     20 CA        -17.7945   10.5570   11.7475 C.3       1 GLC5        0.0000 
     21 CA        -16.9660   10.0420    9.9200 C.3       3 GLL5        0.0000 
     22 CA        -18.6230   11.0720   13.5750 C.3       2 GLP5        0.0000 
     23 CA        -16.0090    8.3275   10.5550 C.3       1 GLC5        0.0000 
     24 CA        -15.0520    6.6130   11.1900 C.3       2 GLP5        0.0000 
     25 CA        -14.5795    7.0915    5.7890 C.3       1 GLC5        0.0000 
     26 CA        -16.2470    7.1140    5.1080 C.3       3 GLL5        0.0000 
     27 CA        -12.9120    7.0690    6.4700 C.3       2 GLP5        0.0000 
     28 CA        -14.0480    6.9600    3.1630 C.3       1 GLC5        0.0000 
     29 CA        -16.0300    6.5140    2.2130 C.3       3 GLL5        0.0000 
     30 CA        -12.0660    7.4060    4.1130 C.3       2 GLP5        0.0000 
     31 CA        -15.9965    5.2770    4.9250 C.3       1 GLC5        0.0000 
     32 CA        -17.4270    7.1340    4.1280 C.3       3 GLL5        0.0000 
     33 CA        -15.1560    3.4300    5.2320 C.3       2 GLP5        0.0000 
     34 CA        -18.1253    3.2707    3.1392 C.3       1 GLC5        0.0000 
     35 CA        -17.7650    4.4190    1.6200 C.3       3 GLL5        0.0000 
     36 CA        -18.3580    1.7070    4.1110 C.3       2 GLP5        0.0000 
     37 CA        -19.2737    4.3021    1.0149 C.3       1 GLC5        0.0000 
     38 CA        -20.9360    3.7170    0.0620 C.3       2 GLP5        0.0000 
@<TRIPOS>BOND
@<TRIPOS>SUBSTRUCTURE
     1 GLC5        1 GROUP        1 X    GLC  0     ROOT GLC X 6
     2 GLP5        3 GROUP        1 Y    GLP  0     ROOT GLP Y 13
     3 GLL5        2 GROUP        1 Z    GLL  0     ROOT GLL Z 20
@<TRIPOS>SET

