#    Name: 4cga_QLW_1_ligand
#    Modification time : Tue Mar 25 09:22:59 2014

@<TRIPOS>MOLECULE
4cga_QLW_1_ligand
   49    51     1     0     0
SMALL
NO_CHARGES


@<TRIPOS>ATOM
      1 CAA       -21.0850   14.9330    9.3320 C.3       1 QLW0        0.0000 
      2 NAW       -21.3620   13.4850    9.2920 N.pl3     1 QLW0        0.0000 
      3 CAB       -22.7110   12.9600    8.9580 C.3       1 QLW0        0.0000 
      4 CAV       -20.3220   12.6450    9.4650 C.ar      1 QLW0        0.0000 
      5 CAM       -19.0480   13.1630    9.7400 C.ar      1 QLW0        0.0000 
      6 CAO       -17.9390   12.3430    9.9060 C.ar      1 QLW0        0.0000 
      7 CAL       -20.4740   11.2680    9.3490 C.ar      1 QLW0        0.0000 
      8 CAN       -19.3780   10.4250    9.5020 C.ar      1 QLW0        0.0000 
      9 NAX       -18.1070   10.9560    9.7820 N.pl3     1 QLW0        0.0000 
     10 CAR       -16.9660   10.0420    9.9200 C.3       1 QLW0        0.0000 
     11 CAU       -16.7900    9.3090    8.7060 C.ar      1 QLW0        0.0000 
     12 CAK       -16.3270    9.9370    7.5500 C.ar      1 QLW0        0.0000 
     13 CAI       -16.1390    9.2230    6.3550 C.ar      1 QLW0        0.0000 
     14 CAJ       -17.0770    7.9420    8.6400 C.ar      1 QLW0        0.0000 
     15 CAH       -16.9070    7.2180    7.4520 C.ar      1 QLW0        0.0000 
     16 CAT       -16.4480    7.8550    6.2950 C.ar      1 QLW0        0.0000 
     17 CAQ       -16.2470    7.1140    5.1080 C.3       1 QLW0        0.0000 
     18 CAP       -17.4270    7.1340    4.1280 C.3       1 QLW0        0.0000 
     19 CAS       -17.1550    6.3010    3.0220 C.ar      1 QLW0        0.0000 
     20 CAF       -16.0300    6.5140    2.2130 C.ar      1 QLW0        0.0000 
     21 CAD       -15.7700    5.6830    1.1190 C.ar      1 QLW0        0.0000 
     22 CAC       -16.6410    4.6300    0.8210 C.ar      1 QLW0        0.0000 
     23 CAE       -17.7650    4.4190    1.6200 C.ar      1 QLW0        0.0000 
     24 CAG       -18.0200    5.2500    2.7150 C.ar      1 QLW0        0.0000 
     25 H         -18.9358   14.1947    9.8212 H         1 QLW0        0.0000 
     26 H         -17.0238   12.7333   10.1128 H         1 QLW0        0.0000 
     27 H         -21.4029   10.8694    9.1487 H         1 QLW0        0.0000 
     28 H         -19.4916    9.4072    9.4110 H         1 QLW0        0.0000 
     29 H         -17.1474    9.3605   10.7660 H         1 QLW0        0.0000 
     30 H         -16.0623   10.6238   10.1606 H         1 QLW0        0.0000 
     31 H         -16.1163   10.9502    7.5685 H         1 QLW0        0.0000 
     32 H         -15.7754    9.7022    5.5253 H         1 QLW0        0.0000 
     33 H         -17.4219    7.4538    9.4845 H         1 QLW0        0.0000 
     34 H         -17.1214    6.2129    7.4327 H         1 QLW0        0.0000 
     35 H         -16.0269    6.0388    5.3272 H         1 QLW0        0.0000 
     36 H         -15.3517    7.4775    4.5434 H         1 QLW0        0.0000 
     37 H         -17.5875    8.1805    3.8312 H         1 QLW0        0.0000 
     38 H         -18.3187    6.8098    4.6836 H         1 QLW0        0.0000 
     39 H         -15.3893    7.2912    2.4281 H         1 QLW0        0.0000 
     40 H         -14.9426    5.8450    0.5363 H         1 QLW0        0.0000 
     41 H         -16.4536    4.0192    0.0218 H         1 QLW0        0.0000 
     42 H         -18.4107    3.6478    1.4033 H         1 QLW0        0.0000 
     43 H         -18.8521    5.0844    3.2981 H         1 QLW0        0.0000 
     44 H         -20.1318   15.1224    9.5677 H         1 QLW0        0.0000 
     45 H         -21.2610   15.3693    8.4496 H         1 QLW0        0.0000 
     46 H         -21.6530   15.4012   10.0089 H         1 QLW0        0.0000 
     47 H         -23.0056   13.2460    8.0462 H         1 QLW0        0.0000 
     48 H         -22.7348   11.9604    8.9736 H         1 QLW0        0.0000 
     49 H         -23.4043   13.2798    9.6037 H         1 QLW0        0.0000 
@<TRIPOS>BOND
     1    2    1 1    
     2   44    1 1    
     3   45    1 1    
     4   46    1 1    
     5    3    2 1    
     6    4    2 1    
     7   47    3 1    
     8   48    3 1    
     9   49    3 1    
    10    5    4 ar   
    11    7    4 ar   
    12    6    5 ar   
    13   25    5 1    
    14    9    6 ar   
    15   26    6 1    
    16    8    7 ar   
    17   27    7 1    
    18    9    8 ar   
    19   28    8 1    
    20   10    9 1    
    21   11   10 1    
    22   29   10 1    
    23   30   10 1    
    24   12   11 ar   
    25   14   11 ar   
    26   13   12 ar   
    27   31   12 1    
    28   16   13 ar   
    29   32   13 1    
    30   15   14 ar   
    31   33   14 1    
    32   16   15 ar   
    33   34   15 1    
    34   17   16 1    
    35   18   17 1    
    36   35   17 1    
    37   36   17 1    
    38   19   18 1    
    39   37   18 1    
    40   38   18 1    
    41   20   19 ar   
    42   24   19 ar   
    43   21   20 ar   
    44   39   20 1    
    45   22   21 ar   
    46   40   21 1    
    47   23   22 ar   
    48   41   22 1    
    49   24   23 ar   
    50   42   23 1    
    51   43   24 1    
@<TRIPOS>SUBSTRUCTURE
     1 QLW0        1 GROUP   
@<TRIPOS>SET

