#    Name: 3OA0_2_CAVITY_N1_ALL.mol2
#    Modification time : Tue Mar 11 19:26:29 2014

@<TRIPOS>MOLECULE
3OA0_2_CAVITY_N1_ALL.mol2
  145     0     7     0     0
SMALL
NO_CHARGES


@<TRIPOS>ATOM
      1 CZ         18.9775   52.2250   50.3525 C.ar      5 PHE5        0.0000 
      2 CZ         19.8237   51.1595   50.9838 C.ar      5 PHE5        0.0000 
      3 CZ         17.8431   51.2514   50.2296 C.ar      5 PHE5        0.0000 
      4 CZ         18.6893   50.1858   50.8609 C.ar      5 PHE5        0.0000 
      5 CZ         16.7087   50.2777   50.1067 C.ar      5 PHE5        0.0000 
      6 CZ         17.5549   49.2121   50.7380 C.ar      5 PHE5        0.0000 
      7 OG         14.7281   50.3696   49.3525 O.2       1 SER1        0.0000 
      8 CZ         15.5743   49.3040   49.9838 C.ar      5 PHE5        0.0000 
      9 N          16.4205   48.2385   50.6151 N.2       2 ALA2        0.0000 
     10 NZ         17.2667   47.1729   51.2463 N.2       4 LYS4        0.0000 
     11 OG         13.5937   49.3960   49.2296 O.2       1 SER1        0.0000 
     12 N          14.4399   48.3304   49.8609 N.2       2 ALA2        0.0000 
     13 N          15.2861   47.2648   50.4922 N.2       2 ALA2        0.0000 
     14 OG         13.3055   47.3567   49.7380 O.2       1 SER1        0.0000 
     15 CA         14.1517   46.2911   50.3693 C.3       6 GLY6        0.0000 
     16 CZ         19.4746   51.8170   48.9974 C.ar      5 PHE5        0.0000 
     17 CZ         20.3208   50.7514   49.6287 C.ar      5 PHE5        0.0000 
     18 CZ         18.3402   50.8433   48.8745 C.ar      5 PHE5        0.0000 
     19 CZ         19.1864   49.7777   49.5058 C.ar      5 PHE5        0.0000 
     20 CZ         17.2058   49.8696   48.7516 C.ar      5 PHE5        0.0000 
     21 CA         18.0520   48.8041   49.3828 C.3       6 GLY6        0.0000 
     22 OD1        19.6149   53.6068   51.8306 O.3       3 ASP3        0.0000 
     23 OD1        20.4610   52.5412   52.4618 O.3       3 ASP3        0.0000 
     24 CZ         17.6343   53.6987   51.0764 C.ar      5 PHE5        0.0000 
     25 O          18.4804   52.6331   51.7077 O.2       2 ALA2        0.0000 
     26 O          19.3266   51.5675   52.3389 O.2       2 ALA2        0.0000 
     27 CZ         16.4998   52.7250   50.9535 C.ar      5 PHE5        0.0000 
     28 O          17.3460   51.6595   51.5848 O.2       2 ALA2        0.0000 
     29 OG         15.3654   51.7514   50.8306 O.2       1 SER1        0.0000 
     30 OD1        16.2116   50.6858   51.4618 O.3       3 ASP3        0.0000 
     31 OD1        17.0578   49.6202   52.0931 O.3       3 ASP3        0.0000 
     32 OG         14.2310   50.7777   50.7077 O.2       1 SER1        0.0000 
     33 O          15.0772   49.7121   51.3389 O.2       2 ALA2        0.0000 
     34 O          15.9234   48.6465   51.9702 O.2       2 ALA2        0.0000 
     35 NZ         16.7696   47.5810   52.6015 N.2       4 LYS4        0.0000 
     36 DU         13.0966   49.8040   50.5848 H         7 CUB7        0.0000 
     37 DU         13.9428   48.7385   51.2160 H         7 CUB7        0.0000 
     38 CA         14.7890   47.6729   51.8473 C.3       6 GLY6        0.0000 
     39 NZ         15.6352   46.6073   52.4786 N.2       4 LYS4        0.0000 
     40 DU         11.9622   48.8304   50.4619 H         7 CUB7        0.0000 
     41 DU         12.8084   47.7648   51.0931 H         7 CUB7        0.0000 
     42 CA         13.6546   46.6992   51.7244 C.3       6 GLY6        0.0000 
     43 OG         11.6740   46.7911   50.9702 O.2       1 SER1        0.0000 
     44 OG         12.5202   45.7255   51.6015 O.2       1 SER1        0.0000 
     45 N          16.0714   48.8960   48.6287 N.2       2 ALA2        0.0000 
     46 N          14.9370   47.9223   48.5058 N.2       2 ALA2        0.0000 
     47 OG         13.8026   46.9486   48.3829 O.2       1 SER1        0.0000 
     48 CA         19.6835   49.3697   48.1506 C.3       6 GLY6        0.0000 
     49 CZ         17.7029   49.4616   47.3964 C.ar      5 PHE5        0.0000 
     50 CZ         15.7223   49.5535   46.6423 C.ar      5 PHE5        0.0000 
     51 O          16.5685   48.4879   47.2735 O.2       2 ALA2        0.0000 
     52 CA         15.0880   58.4358   55.3573 C.3       6 GLY6        0.0000 
     53 OG         15.9342   57.3702   55.9886 O.2       1 SER1        0.0000 
     54 CA         16.7804   56.3046   56.6198 C.3       6 GLY6        0.0000 
     55 O          13.1074   58.5277   54.6031 O.2       2 ALA2        0.0000 
     56 O          13.9536   57.4621   55.2344 O.2       2 ALA2        0.0000 
     57 O          14.7998   56.3966   55.8657 O.2       2 ALA2        0.0000 
     58 CA         15.6460   55.3310   56.4969 C.3       6 GLY6        0.0000 
     59 CZ         19.4060   56.0541   52.6773 C.ar      5 PHE5        0.0000 
     60 O          20.2522   54.9885   53.3086 O.2       2 ALA2        0.0000 
     61 O          21.0984   53.9229   53.9399 O.2       2 ALA2        0.0000 
     62 CZ         18.2716   55.0804   52.5544 C.ar      5 PHE5        0.0000 
     63 O          19.1178   54.0149   53.1857 O.2       2 ALA2        0.0000 
     64 O          19.9640   52.9493   53.8170 O.2       2 ALA2        0.0000 
     65 CZ         16.2910   55.1723   51.8003 C.ar      5 PHE5        0.0000 
     66 O          17.1372   54.1068   52.4315 O.2       2 ALA2        0.0000 
     67 OG         14.3104   55.2643   51.0461 O.2       1 SER1        0.0000 
     68 OG         15.1566   54.1987   51.6774 O.2       1 SER1        0.0000 
     69 O          16.0028   53.1331   52.3086 O.2       2 ALA2        0.0000 
     70 OG         13.1760   54.2906   50.9232 O.2       1 SER1        0.0000 
     71 OG         14.0222   53.2250   51.5545 O.2       1 SER1        0.0000 
     72 O          14.8684   52.1594   52.1857 O.2       2 ALA2        0.0000 
     73 O          10.3492   55.4481   49.5377 O.2       2 ALA2        0.0000 
     74 O          11.1954   54.3825   50.1690 O.2       2 ALA2        0.0000 
     75 OG         12.0416   53.3169   50.8003 O.2       1 SER1        0.0000 
     76 OG         12.8878   52.2513   51.4315 O.2       1 SER1        0.0000 
     77 OG         13.7340   51.1858   52.0628 O.2       1 SER1        0.0000 
     78 O          14.5802   50.1202   52.6941 O.2       2 ALA2        0.0000 
     79 O           8.3686   55.5400   48.7836 O.2       2 ALA2        0.0000 
     80 DU         11.7534   51.2777   51.3086 H         7 CUB7        0.0000 
     81 DU         12.5996   50.2121   51.9399 H         7 CUB7        0.0000 
     82 O          13.4458   49.1465   52.5712 O.2       2 ALA2        0.0000 
     83 O          14.2920   48.0810   53.2024 O.2       2 ALA2        0.0000 
     84 DU         11.4652   49.2384   51.8170 H         7 CUB7        0.0000 
     85 DU         12.3114   48.1729   52.4483 H         7 CUB7        0.0000 
     86 O          13.1576   47.1073   53.0795 O.2       2 ALA2        0.0000 
     87 DU         11.1770   47.1992   52.3254 H         7 CUB7        0.0000 
     88 CA         12.0232   46.1336   52.9566 C.3       6 GLY6        0.0000 
     89 N          18.4118   56.8702   55.3876 N.2       2 ALA2        0.0000 
     90 N          15.5850   58.0277   54.0022 N.2       2 ALA2        0.0000 
     91 N          16.4312   56.9622   54.6334 N.2       2 ALA2        0.0000 
     92 O          17.2774   55.8966   55.2647 O.2       2 ALA2        0.0000 
     93 CA         18.1236   54.8310   55.8960 C.3       6 GLY6        0.0000 
     94 N          13.6044   58.1196   53.2480 N.2       2 ALA2        0.0000 
     95 N          14.4506   57.0541   53.8793 N.2       2 ALA2        0.0000 
     96 O          15.2968   55.9885   54.5105 O.2       2 ALA2        0.0000 
     97 O          16.1430   54.9229   55.1418 O.2       2 ALA2        0.0000 
     98 O          12.4700   57.1460   53.1251 O.2       2 ALA2        0.0000 
     99 O          13.3162   56.0804   53.7564 O.2       2 ALA2        0.0000 
    100 O          14.1624   55.0148   54.3876 O.2       2 ALA2        0.0000 
    101 O          15.0086   53.9492   55.0189 O.2       2 ALA2        0.0000 
    102 O          13.0280   54.0412   54.2647 O.2       2 ALA2        0.0000 
    103 CA         13.8742   52.9756   54.8960 C.3       6 GLY6        0.0000 
    104 O          11.8936   53.0675   54.1418 O.2       2 ALA2        0.0000 
    105 CZ          8.2206   55.2906   52.1251 C.ar      5 PHE5        0.0000 
    106 N           9.0668   54.2250   52.7564 N.2       2 ALA2        0.0000 
    107 O           9.9130   53.1594   53.3876 O.2       2 ALA2        0.0000 
    108 CA         10.7592   52.0938   54.0189 C.3       6 GLY6        0.0000 
    109 O           6.2400   55.3825   51.3709 O.2       2 ALA2        0.0000 
    110 N           7.0862   54.3169   52.0022 N.2       2 ALA2        0.0000 
    111 N           7.9324   53.2513   52.6335 N.2       2 ALA2        0.0000 
    112 CZ         18.0627   57.5277   53.4012 C.ar      5 PHE5        0.0000 
    113 N          18.9089   56.4622   54.0325 N.2       2 ALA2        0.0000 
    114 CA         19.7551   55.3966   54.6638 C.3       6 GLY6        0.0000 
    115 CA         20.6013   54.3310   55.2950 C.3       6 GLY6        0.0000 
    116 CZ         16.9283   56.5541   53.2783 C.ar      5 PHE5        0.0000 
    117 O          17.7745   55.4885   53.9096 O.2       2 ALA2        0.0000 
    118 O          18.6207   54.4229   54.5408 O.2       2 ALA2        0.0000 
    119 CZ         15.7939   55.5804   53.1554 C.ar      5 PHE5        0.0000 
    120 O          16.6401   54.5148   53.7867 O.2       2 ALA2        0.0000 
    121 N          12.9671   56.7379   51.7700 N.2       2 ALA2        0.0000 
    122 N          13.8133   55.6723   52.4012 N.2       2 ALA2        0.0000 
    123 O          14.6595   54.6067   53.0325 O.2       2 ALA2        0.0000 
    124 CA         10.9865   56.8298   51.0158 C.3       6 GLY6        0.0000 
    125 O          11.8327   55.7642   51.6471 O.2       2 ALA2        0.0000 
    126 O          12.6789   54.6987   52.2783 O.2       2 ALA2        0.0000 
    127 O          13.5251   53.6331   52.9096 O.2       2 ALA2        0.0000 
    128 O          14.3713   52.5675   53.5409 O.2       2 ALA2        0.0000 
    129 CA          9.8521   55.8561   50.8929 C.3       6 GLY6        0.0000 
    130 O          10.6983   54.7906   51.5241 O.2       2 ALA2        0.0000 
    131 O          11.5445   53.7250   52.1554 O.2       2 ALA2        0.0000 
    132 DU         12.3907   52.6594   52.7867 H         7 CUB7        0.0000 
    133 OG         13.2369   51.5938   53.4179 O.2       1 SER1        0.0000 
    134 O           7.8715   55.9481   50.1387 O.2       2 ALA2        0.0000 
    135 CA          8.7177   54.8825   50.7700 C.3       6 GLY6        0.0000 
    136 DU          9.5639   53.8169   51.4012 H         7 CUB7        0.0000 
    137 DU         10.4101   52.7513   52.0325 H         7 CUB7        0.0000 
    138 DU         11.2563   51.6858   52.6638 H         7 CUB7        0.0000 
    139 OG         12.1025   50.6202   53.2950 O.2       1 SER1        0.0000 
    140 OG         12.9487   49.5546   53.9263 O.2       1 SER1        0.0000 
    141 OG         10.9681   49.6465   53.1721 O.2       1 SER1        0.0000 
    142 OG         11.8143   48.5809   53.8034 O.2       1 SER1        0.0000 
    143 CA         12.6605   47.5154   54.4347 C.3       6 GLY6        0.0000 
    144 CA         10.6799   47.6073   53.6805 C.3       6 GLY6        0.0000 
    145 CA          9.5455   46.6336   53.5576 C.3       6 GLY6        0.0000 
@<TRIPOS>BOND
@<TRIPOS>SUBSTRUCTURE
     1 SER1        7 GROUP   
     2 ALA2        9 GROUP   
     3 ASP3       22 GROUP   
     4 LYS4       10 GROUP   
     5 PHE5        1 GROUP   
     6 GLY6       15 GROUP   
     7 CUB7       36 GROUP   
@<TRIPOS>SET

