#    Name: 3oa0_HP7_2_INTS_M
#    Modification time : Tue Mar 25 03:31:17 2014

@<TRIPOS>MOLECULE
3oa0_HP7_2_INTS_M
   57     0    12     0     0
SMALL
NO_CHARGES


@<TRIPOS>ATOM
      1 N          20.9620   52.4275   50.4345 N.am      2 SEC2        0.0000 
      2 N          19.9000   51.6310   50.2560 N.am     10 SEL2        0.0000 
      3 N          22.0240   53.2240   50.6130 N.am      6 SEP2        0.0000 
      4 CA         17.3045   52.7545   49.7875 C.3       4 GLC5        0.0000 
      5 CA         17.7580   51.5780   51.0870 C.3      12 GLL5        0.0000 
      6 CA         16.8510   53.9310   48.4880 C.3       8 GLP5        0.0000 
      7 CA         16.1635   52.0345   49.6040 C.3       4 GLC5        0.0000 
      8 CA         16.4860   51.0180   51.0060 C.3      12 GLL5        0.0000 
      9 CA         15.8410   53.0510   48.2020 C.3       8 GLP5        0.0000 
     10 NZ         18.5810   52.8140   54.8570 N.4       3 LYC4        0.0000 
     11 NZ         20.0900   53.5200   55.1880 N.4      11 LYL4        0.0000 
     12 NZ         17.2840   50.8060   54.6800 N.4       7 LYP4        0.0000 
     13 N          18.5810   52.8140   54.8570 N.am      2 SEC2        0.0000 
     14 N          20.0900   53.5200   55.1880 N.am     10 SEL2        0.0000 
     15 N          17.0720   52.1080   54.5260 N.am      6 SEP2        0.0000 
     16 NZ         21.2150   53.1750   51.8840 N.4       3 LYC4        0.0000 
     17 NZ         20.4060   53.1260   53.1550 N.4      11 LYL4        0.0000 
     18 NZ         22.0240   53.2240   50.6130 N.4       7 LYP4        0.0000 
     19 N          21.2150   53.1750   51.8840 N.am      2 SEC2        0.0000 
     20 N          20.4060   53.1260   53.1550 N.am     10 SEL2        0.0000 
     21 NZ         15.0190   50.4915   54.2440 N.4       3 LYC4        0.0000 
     22 NZ         13.7890   50.9740   53.5740 N.4      11 LYL4        0.0000 
     23 N          15.0190   50.4915   54.2440 N.am      2 SEC2        0.0000 
     24 N          13.7890   50.9740   53.5740 N.am     10 SEL2        0.0000 
     25 N          16.2490   50.0090   54.9140 N.am      6 SEP2        0.0000 
     26 N          12.9820   55.7550   54.6430 N.am      2 SEC2        0.0000 
     27 N          13.7260   55.7800   53.2690 N.am     10 SEL2        0.0000 
     28 N          12.2380   55.7300   56.0170 N.am      6 SEP2        0.0000 
     29 CA         15.4390   50.7450   48.6640 C.3       4 GLC5        0.0000 
     30 CA         14.8590   49.4740   50.0110 C.3      12 GLL5        0.0000 
     31 CA         16.0190   52.0160   47.3170 C.3       8 GLP5        0.0000 
     32 O          15.4535   58.0835   52.4935 O.2       1 ALC1        0.0000 
     33 O          15.7400   57.8790   53.9680 O.2       9 ALL1        0.0000 
     34 O          15.1670   58.2880   51.0190 O.2       5 ALP1        0.0000 
     35 N          14.4115   53.9175   49.9500 N.am      2 SEC2        0.0000 
     36 N          14.1780   54.6250   51.0630 N.am     10 SEL2        0.0000 
     37 N          14.6450   53.2100   48.8370 N.am      6 SEP2        0.0000 
     38 N          13.3740   54.9695   49.5740 N.am      2 SEC2        0.0000 
     39 N          12.5700   55.3140   48.0850 N.am      6 SEP2        0.0000 
     40 N          19.7995   59.4670   53.7310 N.am      2 SEC2        0.0000 
     41 N          18.5850   58.6290   53.5520 N.am     10 SEL2        0.0000 
     42 N          21.0140   60.3050   53.9100 N.am      6 SEP2        0.0000 
     43 N          15.8190   52.7365   53.8905 N.am      2 SEC2        0.0000 
     44 N          14.5660   53.3650   53.2550 N.am     10 SEL2        0.0000 
     45 CA         15.3380   59.3720   55.4485 C.3       4 GLC5        0.0000 
     46 CA         13.5600   58.6350   54.7490 C.3      12 GLL5        0.0000 
     47 CA         17.1160   60.1090   56.1480 C.3       8 GLP5        0.0000 
     48 CA         11.7365   59.3895   54.3210 C.3       4 GLC5        0.0000 
     49 CA          9.9130   60.1440   53.8930 C.3       8 GLP5        0.0000 
     50 CA         17.3072   58.6325   54.9835 C.3       4 GLC5        0.0000 
     51 CA         18.1120   57.2840   53.3830 C.3      12 GLL5        0.0000 
     52 CA         17.4344   56.9086   52.1330 C.3       4 GLC5        0.0000 
     53 CA         16.8850   57.0280   54.2550 C.3      12 GLL5        0.0000 
     54 CA         17.4700   57.0280   50.4780 C.3       8 GLP5        0.0000 
     55 CA         18.8083   55.9745   51.9223 C.3       4 GLC5        0.0000 
     56 CA         19.2040   56.2680   53.7300 C.3      12 GLL5        0.0000 
     57 CA         18.6590   56.4070   50.1520 C.3       8 GLP5        0.0000 
@<TRIPOS>BOND
@<TRIPOS>SUBSTRUCTURE
     1 ALC1       32 GROUP        1 X    ALC  0     ROOT ALC X 1
     2 SEC2        1 GROUP        1 X    SEC  0     **** SEC X 2
     3 LYC4       10 GROUP        1 X    LYC  0     **** LYC X 4
     4 GLC5        4 GROUP        1 X    GLC  0     **** GLC X 6
     5 ALP1       34 GROUP        1 Y    ALP  0     ROOT ALP Y 8
     6 SEP2        3 GROUP        1 Y    SEP  0     **** SEP Y 9
     7 LYP4       12 GROUP        1 Y    LYP  0     **** LYP Y 11
     8 GLP5        6 GROUP        1 Y    GLP  0     **** GLP Y 13
     9 ALL1       33 GROUP        1 Z    ALL  0     ROOT ALL Z 15
    10 SEL2        2 GROUP        1 Z    SEL  0     **** SEL Z 16
    11 LYL4       11 GROUP        1 Z    LYL  0     **** LYL Z 18
    12 GLL5        5 GROUP        1 Z    GLL  0     **** GLL Z 20
@<TRIPOS>SET

