#    Name: 3oa0_HP7_2_ligand
#    Modification time : Tue Mar 25 03:31:17 2014

@<TRIPOS>MOLECULE
3oa0_HP7_2_ligand
   62    64     1     0     0
SMALL
NO_CHARGES


@<TRIPOS>ATOM
      1 N1         16.2170   50.0320   50.1380 N.am      1 HP7312      0.0000 
      2 C2         17.1820   49.6150   49.3250 C.2       1 HP7312      0.0000 
      3 O2         16.9460   48.7050   48.5160 O.2       1 HP7312      0.0000 
      4 N3         18.4230   50.1250   49.3840 N.am      1 HP7312      0.0000 
      5 C4         18.7470   51.1320   50.2320 C.2       1 HP7312      0.0000 
      6 O4         19.9000   51.6310   50.2560 O.2       1 HP7312      0.0000 
      7 C5         17.7580   51.5780   51.0870 C.2       1 HP7312      0.0000 
      8 C6         16.4860   51.0180   51.0060 C.2       1 HP7312      0.0000 
      9 PA         13.3440   52.3310   53.0830 P.3       1 HP7312      0.0000 
     10 PB         14.5700   54.7940   52.5120 P.3       1 HP7312      0.0000 
     11 O'P        20.0900   53.5200   55.1880 O.co2     1 HP7312      0.0000 
     12 O'Q        20.4060   53.1260   53.1550 O.co2     1 HP7312      0.0000 
     13 C1'        16.4860   55.5610   54.1310 C.3       1 HP7312      0.0000 
     14 O1A        13.7890   50.9740   53.5740 O.co2     1 HP7312      0.0000 
     15 O1B        13.7260   55.7800   53.2690 O.co2     1 HP7312      0.0000 
     16 C1C        14.8590   49.4740   50.0110 C.3       1 HP7312      0.0000 
     17 C2'        16.8850   57.0280   54.2550 C.3       1 HP7312      0.0000 
     18 N2'        15.7400   57.8790   53.9680 N.am      1 HP7312      0.0000 
     19 O2A        12.0740   53.0030   53.5720 O.co2     1 HP7312      0.0000 
     20 O2B        14.1780   54.6250   51.0630 O.co2     1 HP7312      0.0000 
     21 C2C        14.3270   48.9280   51.3240 C.3       1 HP7312      0.0000 
     22 O2C        14.5760   47.5260   51.3310 O.3       1 HP7312      0.0000 
     23 C3'        18.1120   57.2840   53.3830 C.3       1 HP7312      0.0000 
     24 O3'        18.5850   58.6290   53.5520 O.3       1 HP7312      0.0000 
     25 O3A        14.5660   53.3650   53.2550 O.3       1 HP7312      0.0000 
     26 O3B        16.0690   55.3340   52.7810 O.3       1 HP7312      0.0000 
     27 C3C        12.8280   49.1760   51.2780 C.3       1 HP7312      0.0000 
     28 O3C        12.1270   48.0280   50.7980 O.3       1 HP7312      0.0000 
     29 C4'        19.2040   56.2680   53.7300 C.3       1 HP7312      0.0000 
     30 O4'        20.3040   56.5190   52.8470 O.3       1 HP7312      0.0000 
     31 C4C        12.6080   50.2670   50.2440 C.3       1 HP7312      0.0000 
     32 O4C        13.8750   50.4460   49.5860 O.3       1 HP7312      0.0000 
     33 C5'        18.7110   54.8160   53.6550 C.3       1 HP7312      0.0000 
     34 O5'        17.5680   54.7040   54.5060 O.3       1 HP7312      0.0000 
     35 C5C        12.0530   51.4940   50.9770 C.3       1 HP7312      0.0000 
     36 O5C        13.1650   52.2240   51.4890 O.3       1 HP7312      0.0000 
     37 C6'        19.7760   53.7750   54.0090 C.2       1 HP7312      0.0000 
     38 C7'        14.9390   58.1100   55.0000 C.2       1 HP7312      0.0000 
     39 O7'        15.3520   57.8650   56.1260 O.2       1 HP7312      0.0000 
     40 C8'        13.5600   58.6350   54.7490 C.3       1 HP7312      0.0000 
     41 H          19.1734   49.7334   48.7527 H         1 HP7312      0.0000 
     42 H          17.9532   52.3119   51.7742 H         1 HP7312      0.0000 
     43 H          15.7444   51.3876   51.6415 H         1 HP7312      0.0000 
     44 H          15.6347   55.4158   54.8046 H         1 HP7312      0.0000 
     45 H          14.8593   48.6392   49.3044 H         1 HP7312      0.0000 
     46 H          17.1978   57.1693   55.3071 H         1 HP7312      0.0000 
     47 H          15.6228   58.2305   53.0438 H         1 HP7312      0.0000 
     48 H          14.7532   49.4438   52.1171 H         1 HP7312      0.0000 
     49 H          17.8190   57.1053   52.3477 H         1 HP7312      0.0000 
     50 H          12.4869   49.5155   52.2085 H         1 HP7312      0.0000 
     51 H          19.5075   56.4709   54.7637 H         1 HP7312      0.0000 
     52 H          11.8560   49.8992   49.5608 H         1 HP7312      0.0000 
     53 H          18.4023   54.6406   52.6114 H         1 HP7312      0.0000 
     54 H          11.3960   51.1401   51.7666 H         1 HP7312      0.0000 
     55 H          11.4751   52.0742   50.2629 H         1 HP7312      0.0000 
     56 H          13.5784   59.5164   54.2770 H         1 HP7312      0.0000 
     57 H          13.0222   58.0104   54.1827 H         1 HP7312      0.0000 
     58 H          13.0529   58.7690   55.6004 H         1 HP7312      0.0000 
     59 H          13.6795   47.1034   51.1980 H         1 HP7312      0.0000 
     60 H          18.4263   58.8398   54.5165 H         1 HP7312      0.0000 
     61 H          11.4103   47.8607   51.4751 H         1 HP7312      0.0000 
     62 H          20.2953   57.5077   52.6975 H         1 HP7312      0.0000 
@<TRIPOS>BOND
     1    2    1 1    
     2    8    1 1    
     3   16    1 1    
     4    3    2 2    
     5    4    2 1    
     6    5    4 1    
     7   41    4 1    
     8    6    5 2    
     9    7    5 1    
    10    8    7 2    
    11   42    7 1    
    12   43    8 1    
    13   14    9 ar   
    14   19    9 ar   
    15   25    9 1    
    16   36    9 1    
    17   15   10 ar   
    18   20   10 ar   
    19   25   10 1    
    20   26   10 1    
    21   37   11 ar   
    22   37   12 ar   
    23   17   13 1    
    24   26   13 1    
    25   34   13 1    
    26   44   13 1    
    27   21   16 1    
    28   32   16 1    
    29   45   16 1    
    30   18   17 1    
    31   23   17 1    
    32   46   17 1    
    33   38   18 am   
    34   47   18 1    
    35   22   21 1    
    36   27   21 1    
    37   48   21 1    
    38   59   22 1    
    39   24   23 1    
    40   29   23 1    
    41   49   23 1    
    42   60   24 1    
    43   28   27 1    
    44   31   27 1    
    45   50   27 1    
    46   61   28 1    
    47   30   29 1    
    48   33   29 1    
    49   51   29 1    
    50   62   30 1    
    51   32   31 1    
    52   35   31 1    
    53   52   31 1    
    54   34   33 1    
    55   37   33 1    
    56   53   33 1    
    57   36   35 1    
    58   54   35 1    
    59   55   35 1    
    60   39   38 2    
    61   40   38 1    
    62   56   40 1    
    63   57   40 1    
    64   58   40 1    
@<TRIPOS>SUBSTRUCTURE
     1 HP7312      1 GROUP   
@<TRIPOS>SET

