#    Name: 1daj_MOT_1_INTS_M
#    Modification time : Mon Mar 24 21:35:21 2014

@<TRIPOS>MOLECULE
1daj_MOT_1_INTS_M
   76     0    12     0     0
SMALL
NO_CHARGES


@<TRIPOS>ATOM
      1 CA          8.5185    2.8780   12.9260 C.3       4 GLC5        0.0000 
      2 CA         10.3700    2.3890   12.5700 C.3      12 GLL5        0.0000 
      3 CA          6.6670    3.3670   13.2820 C.3       8 GLP5        0.0000 
      4 CA          9.8475    1.7470   14.3185 C.3       4 GLC5        0.0000 
      5 CA          9.3250    1.1050   16.0670 C.3       8 GLP5        0.0000 
      6 CA         11.4770    0.7480   12.9715 C.3       4 GLC5        0.0000 
      7 CA         12.5840   -0.8930   13.3730 C.3       8 GLP5        0.0000 
      8 O          10.0200    0.8790   11.1435 O.2       1 ALC1        0.0000 
      9 O           9.4370    1.4780   12.3560 O.2       9 ALL1        0.0000 
     10 O          10.6030    0.2800    9.9310 O.2       5 ALP1        0.0000 
     11 CA         10.2270    2.6130   14.9390 C.3       4 GLC5        0.0000 
     12 CA         11.1290    4.1210   13.8110 C.3      12 GLL5        0.0000 
     13 O           9.7220    4.3780   15.5640 O.2       1 ALC1        0.0000 
     14 O          10.9490    4.9820   14.8150 O.2       9 ALL1        0.0000 
     15 O           8.4950    3.7740   16.3130 O.2       5 ALP1        0.0000 
     16 O          10.7680    4.5280   16.4160 O.2       1 ALC1        0.0000 
     17 O          10.5870    4.0740   18.0170 O.2       5 ALP1        0.0000 
     18 CA         14.2625    4.6475   10.2280 C.3       4 GLC5        0.0000 
     19 CA         14.0490    4.3270   11.9120 C.3      12 GLL5        0.0000 
     20 CA         14.4760    4.9680    8.5440 C.3       8 GLP5        0.0000 
     21 CA         12.4680    1.1810   12.7070 C.3       4 GLC5        0.0000 
     22 CA         12.3520    3.2550   12.0410 C.3      12 GLL5        0.0000 
     23 CA         13.4140    4.1115   10.2925 C.3       4 GLC5        0.0000 
     24 CA         14.1570    7.7515   15.1715 C.3       4 GLC5        0.0000 
     25 CA         13.7940    6.0610   13.8320 C.3      12 GLL5        0.0000 
     26 CA         14.5200    9.4420   16.5110 C.3       8 GLP5        0.0000 
     27 CA         13.7270    5.6455   15.3960 C.3       4 GLC5        0.0000 
     28 CA         13.6600    5.2300   16.9600 C.3       8 GLP5        0.0000 
     29 CA         16.5195    4.7555   13.4535 C.3       4 GLC5        0.0000 
     30 CA         16.1590    6.7480   14.1330 C.3      12 GLL5        0.0000 
     31 CA         16.8800    2.7630   12.7740 C.3       8 GLP5        0.0000 
     32 CA         15.3395    8.0950   15.3220 C.3       4 GLC5        0.0000 
     33 CA         17.8760    8.0385   14.6970 C.3       4 GLC5        0.0000 
     34 CA         19.5930    9.3290   15.2610 C.3       8 GLP5        0.0000 
     35 CA         15.3110    6.5090   15.9055 C.3       4 GLC5        0.0000 
     36 CA         14.4630    6.2700   17.6780 C.3       8 GLP5        0.0000 
     37 CA         12.9620   10.4265    9.7145 C.3       4 GLC5        0.0000 
     38 CA         13.6710    8.4180   10.3940 C.3      12 GLL5        0.0000 
     39 CA         12.2530   12.4350    9.0350 C.3       8 GLP5        0.0000 
     40 CA         15.2265    6.7330    9.4940 C.3       4 GLC5        0.0000 
     41 CA         15.9770    8.4980   10.4440 C.3      12 GLL5        0.0000 
     42 CA         17.6505    9.6915    9.8255 C.3       4 GLC5        0.0000 
     43 CA         19.3240   10.8850    9.2070 C.3       8 GLP5        0.0000 
     44 CA         15.0330   11.5030    6.5400 C.3       4 GLC5        0.0000 
     45 CA         13.7830   10.2820    6.7300 C.3      12 GLL5        0.0000 
     46 CA         16.2830   12.7240    6.3500 C.3       8 GLP5        0.0000 
     47 CA         13.0180   11.3585    7.8825 C.3       4 GLC5        0.0000 
     48 NZ         10.0140   10.1800    7.1650 N.4       3 LYC4        0.0000 
     49 NZ         11.4270    9.8690    6.5420 N.4      11 LYL4        0.0000 
     50 NZ          8.4220   11.7730    7.5910 N.4       7 LYP4        0.0000 
     51 N          10.0140   10.1800    7.1650 N.am      2 SEC2        0.0000 
     52 N          11.4270    9.8690    6.5420 N.am     10 SEL2        0.0000 
     53 N           8.6010   10.4910    7.7880 N.am      6 SEP2        0.0000 
     54 N          10.3095   11.1120    6.6065 N.am      2 SEC2        0.0000 
     55 N           9.1920   12.3550    6.6710 N.am      6 SEP2        0.0000 
     56 N          10.6680   11.9710    6.1360 N.am      2 SEC2        0.0000 
     57 N          12.1440   11.5870    5.6010 N.am     10 SEL2        0.0000 
     58 CA         15.9890   10.9485    5.5075 C.3       4 GLC5        0.0000 
     59 CA         14.8220    9.8530    5.6760 C.3      12 GLL5        0.0000 
     60 CA         17.1560   12.0440    5.3390 C.3       8 GLP5        0.0000 
     61 CA         12.3770    9.0630    3.5780 C.3       4 GLC5        0.0000 
     62 CA         14.3210    9.5530    4.2580 C.3      12 GLL5        0.0000 
     63 CA         10.4330    8.5730    2.8980 C.3       8 GLP5        0.0000 
     64 CA         15.5585   10.8155    4.1210 C.3       4 GLC5        0.0000 
     65 CA         16.7960   12.0780    3.9840 C.3       8 GLP5        0.0000 
     66 NZ         13.0910    7.3790    2.1475 N.4       3 LYC4        0.0000 
     67 NZ         14.3630    7.7660    2.7310 N.4      11 LYL4        0.0000 
     68 NZ         11.8190    6.9920    1.5640 N.4       7 LYP4        0.0000 
     69 N          13.0910    7.3790    2.1475 N.am      2 SEC2        0.0000 
     70 N          14.3630    7.7660    2.7310 N.am     10 SEL2        0.0000 
     71 N          11.8190    6.9920    1.5640 N.am      6 SEP2        0.0000 
     72 CA         15.3107    3.6930   12.6002 C.3       4 GLC5        0.0000 
     73 CA         14.2174    6.6010    9.6986 C.3       4 GLC5        0.0000 
     74 CA         15.2852    9.8720   11.8201 C.3       4 GLC5        0.0000 
     75 CA         15.9460    7.9380   11.6640 C.3      12 GLL5        0.0000 
     76 CA         15.9010   11.6690   12.3780 C.3       8 GLP5        0.0000 
@<TRIPOS>BOND
@<TRIPOS>SUBSTRUCTURE
     1 ALC1        8 GROUP        1 X    ALC  0     ROOT ALC X 1
     2 SEC2       51 GROUP        1 X    SEC  0     **** SEC X 2
     3 LYC4       48 GROUP        1 X    LYC  0     **** LYC X 4
     4 GLC5        1 GROUP        1 X    GLC  0     **** GLC X 6
     5 ALP1       10 GROUP        1 Y    ALP  0     ROOT ALP Y 8
     6 SEP2       53 GROUP        1 Y    SEP  0     **** SEP Y 9
     7 LYP4       50 GROUP        1 Y    LYP  0     **** LYP Y 11
     8 GLP5        3 GROUP        1 Y    GLP  0     **** GLP Y 13
     9 ALL1        9 GROUP        1 Z    ALL  0     ROOT ALL Z 15
    10 SEL2       52 GROUP        1 Z    SEL  0     **** SEL Z 16
    11 LYL4       49 GROUP        1 Z    LYL  0     **** LYL Z 18
    12 GLL5        2 GROUP        1 Z    GLL  0     **** GLL Z 20
@<TRIPOS>SET

