#    Name: 1daj_MOT_1_ligand
#    Modification time : Mon Mar 24 21:35:21 2014

@<TRIPOS>MOLECULE
1daj_MOT_1_ligand
   52    54     1     0     0
SMALL
NO_CHARGES


@<TRIPOS>ATOM
      1 N1         11.4250    2.3330   11.7490 N.ar      1 MOT208      0.0000 
      2 C2         10.3700    2.3890   12.5700 C.ar      1 MOT208      0.0000 
      3 NA2         9.4370    1.4780   12.3560 N.pl3     1 MOT208      0.0000 
      4 N3         10.2450    3.2440   13.5250 N.ar      1 MOT208      0.0000 
      5 C4         11.1290    4.1210   13.8110 C.ar      1 MOT208      0.0000 
      6 NA4        10.9490    4.9820   14.8150 N.pl3     1 MOT208      0.0000 
      7 C4A        12.2140    4.1260   13.0340 C.ar      1 MOT208      0.0000 
      8 C6         13.4340    4.9190   12.9410 C.2       1 MOT208      0.0000 
      9 C7         14.0490    4.3270   11.9120 C.2       1 MOT208      0.0000 
     10 O8         13.4000    3.3990   11.4150 O.3       1 MOT208      0.0000 
     11 C8A        12.3520    3.2550   12.0410 C.ar      1 MOT208      0.0000 
     12 C9         13.7940    6.0610   13.8320 C.3       1 MOT208      0.0000 
     13 N10        14.8550    7.0270   13.4870 N.pl3     1 MOT208      0.0000 
     14 CM         16.1590    6.7480   14.1330 C.3       1 MOT208      0.0000 
     15 C11        14.8320    8.7640    9.7830 C.ar      1 MOT208      0.0000 
     16 C12        13.6710    8.4180   10.3940 C.ar      1 MOT208      0.0000 
     17 C13        13.6660    7.8770   11.6180 C.ar      1 MOT208      0.0000 
     18 C14        14.7990    7.6140   12.2880 C.ar      1 MOT208      0.0000 
     19 C15        15.9460    7.9380   11.6640 C.ar      1 MOT208      0.0000 
     20 C16        15.9770    8.4980   10.4440 C.ar      1 MOT208      0.0000 
     21 C          14.8050    9.3080    8.5550 C.2       1 MOT208      0.0000 
     22 O          15.7310    9.9240    8.0560 O.2       1 MOT208      0.0000 
     23 N          13.7020    9.1980    7.7690 N.am      1 MOT208      0.0000 
     24 CA         13.7830   10.2820    6.7300 C.3       1 MOT208      0.0000 
     25 CT         12.3920   10.5770    6.2520 C.2       1 MOT208      0.0000 
     26 O1         11.4270    9.8690    6.5420 O.co2     1 MOT208      0.0000 
     27 O2         12.1440   11.5870    5.6010 O.co2     1 MOT208      0.0000 
     28 CB         14.8220    9.8530    5.6760 C.3       1 MOT208      0.0000 
     29 CG         14.3210    9.5530    4.2580 C.3       1 MOT208      0.0000 
     30 CD         14.9090    8.2860    3.6910 C.2       1 MOT208      0.0000 
     31 OE1        15.9030    7.7910    4.2070 O.co2     1 MOT208      0.0000 
     32 OE2        14.3630    7.7660    2.7310 O.co2     1 MOT208      0.0000 
     33 H           8.6451    1.5075   12.9659 H         1 MOT208      0.0000 
     34 H           9.6076    0.8418   11.6036 H         1 MOT208      0.0000 
     35 H          10.3742    4.6646   15.5692 H         1 MOT208      0.0000 
     36 H          11.4052    5.8670   14.7228 H         1 MOT208      0.0000 
     37 H          14.9697    4.6509   11.6052 H         1 MOT208      0.0000 
     38 H          14.0241    5.6304   14.8736 H         1 MOT208      0.0000 
     39 H          12.8296    6.6486   14.0512 H         1 MOT208      0.0000 
     40 H          12.7634    8.5811    9.8901 H         1 MOT208      0.0000 
     41 H          12.7376    7.6480   12.0750 H         1 MOT208      0.0000 
     42 H          16.8661    7.7420   12.1586 H         1 MOT208      0.0000 
     43 H          16.8960    8.7310   10.0002 H         1 MOT208      0.0000 
     44 H          12.9906    8.6013    7.7979 H         1 MOT208      0.0000 
     45 H          14.1799   11.1732    7.2449 H         1 MOT208      0.0000 
     46 H          15.3582    8.9508    6.0610 H         1 MOT208      0.0000 
     47 H          15.6059   10.6476    5.6145 H         1 MOT208      0.0000 
     48 H          14.5768   10.4013    3.6092 H         1 MOT208      0.0000 
     49 H          13.2261    9.4729    4.2828 H         1 MOT208      0.0000 
     50 H          16.5167    5.8504   13.8752 H         1 MOT208      0.0000 
     51 H          16.8513    7.4234   13.8790 H         1 MOT208      0.0000 
     52 H          16.0895    6.7604   15.1305 H         1 MOT208      0.0000 
@<TRIPOS>BOND
     1    2    1 ar   
     2   11    1 ar   
     3    3    2 1    
     4    4    2 ar   
     5   33    3 1    
     6   34    3 1    
     7    5    4 ar   
     8    6    5 1    
     9    7    5 ar   
    10   35    6 1    
    11   36    6 1    
    12    8    7 1    
    13   11    7 ar   
    14    9    8 2    
    15   12    8 1    
    16   10    9 1    
    17   37    9 1    
    18   11   10 1    
    19   13   12 1    
    20   38   12 1    
    21   39   12 1    
    22   14   13 1    
    23   18   13 1    
    24   50   14 1    
    25   51   14 1    
    26   52   14 1    
    27   16   15 ar   
    28   20   15 ar   
    29   21   15 1    
    30   17   16 ar   
    31   40   16 1    
    32   18   17 ar   
    33   41   17 1    
    34   19   18 ar   
    35   20   19 ar   
    36   42   19 1    
    37   43   20 1    
    38   22   21 2    
    39   23   21 am   
    40   24   23 1    
    41   44   23 1    
    42   25   24 1    
    43   28   24 1    
    44   45   24 1    
    45   26   25 ar   
    46   27   25 ar   
    47   29   28 1    
    48   46   28 1    
    49   47   28 1    
    50   30   29 1    
    51   48   29 1    
    52   49   29 1    
    53   31   30 ar   
    54   32   30 ar   
@<TRIPOS>SUBSTRUCTURE
     1 MOT208      1 GROUP   
@<TRIPOS>SET

