#    Name: 1z2p_ACP_1_INTS_M
#    Modification time : Tue Mar 25 11:26:17 2014

@<TRIPOS>MOLECULE
1z2p_ACP_1_INTS_M
   81     0    15     0     0
SMALL
NO_CHARGES


@<TRIPOS>ATOM
      1 Zn         19.3010   -4.0205    8.4060 Zn        4 ZIC7        0.0000 
      2 Zn         20.3170   -4.1600    8.5830 Zn       14 ZIL7        0.0000 
      3 Zn         18.2850   -3.8810    8.2290 Zn        9 ZIP7        0.0000 
      4 NZ         22.0320   -0.9120   11.1115 N.4       3 LYC4        0.0000 
      5 NZ         21.4270   -2.1490    9.7450 N.4      13 LYL4        0.0000 
      6 NZ         22.6370    0.3250   12.4780 N.4       8 LYP4        0.0000 
      7 Zn         20.9215   -1.3205    9.2450 Zn        4 ZIC7        0.0000 
      8 Zn         21.4270   -2.1490    9.7450 Zn       14 ZIL7        0.0000 
      9 Zn         20.4160   -0.4920    8.7450 Zn        9 ZIP7        0.0000 
     10 N          20.2510   -2.6965   10.6885 N.am      2 SEC2        0.0000 
     11 N          21.4270   -2.1490    9.7450 N.am     12 SEL2        0.0000 
     12 N          19.0750   -3.2440   11.6320 N.am      7 SEP2        0.0000 
     13 Zn         18.5340   -3.5435    7.3475 Zn        4 ZIC7        0.0000 
     14 Zn         18.7830   -3.2060    6.4660 Zn       14 ZIL7        0.0000 
     15 N          18.2150   -3.7215    5.2220 N.am      2 SEC2        0.0000 
     16 N          18.7830   -3.2060    6.4660 N.am     12 SEL2        0.0000 
     17 N          17.6470   -4.2370    3.9780 N.am      7 SEP2        0.0000 
     18 N          21.2515   -4.3570    4.8620 N.am      2 SEC2        0.0000 
     19 N          20.8290   -3.1590    4.8720 N.am     12 SEL2        0.0000 
     20 N          21.6740   -5.5550    4.8520 N.am      7 SEP2        0.0000 
     21 NZ         16.5455    1.1545    4.8745 N.4       3 LYC4        0.0000 
     22 NZ         17.4820    0.3520    5.4680 N.4      13 LYL4        0.0000 
     23 NZ         15.6090    1.9570    4.2810 N.4       8 LYP4        0.0000 
     24 N          16.5455    1.1545    4.8745 N.am      2 SEC2        0.0000 
     25 N          17.4820    0.3520    5.4680 N.am     12 SEL2        0.0000 
     26 N          15.6090    1.9570    4.2810 N.am      7 SEP2        0.0000 
     27 N          16.4810   -0.5670    5.6460 N.am      2 SEC2        0.0000 
     28 N          15.4800   -1.4860    5.8240 N.am      7 SEP2        0.0000 
     29 Zn         19.9420    0.0175    7.9275 Zn        4 ZIC7        0.0000 
     30 Zn         19.4680    0.5270    7.1100 Zn       14 ZIL7        0.0000 
     31 N          19.5910    0.6395    8.7730 N.am      2 SEC2        0.0000 
     32 N          19.4680    0.5270    7.1100 N.am     12 SEL2        0.0000 
     33 N          19.7140    0.7520   10.4360 N.am      7 SEP2        0.0000 
     34 CA         20.3470   -0.2040    3.2930 C.3       5 GLC5        0.0000 
     35 CA         21.0670    1.2700    4.5460 C.3      15 GLL5        0.0000 
     36 CA         19.6270   -1.6780    2.0400 C.3      10 GLP5        0.0000 
     37 CA         22.6200   -0.0385    4.1690 C.3       5 GLC5        0.0000 
     38 CA         24.1730   -1.3470    3.7920 C.3      10 GLP5        0.0000 
     39 CA         22.2995    2.6535    2.7435 C.3       5 GLC5        0.0000 
     40 CA         21.5930    2.6790    4.7830 C.3      15 GLL5        0.0000 
     41 CA         23.0060    2.6280    0.7040 C.3      10 GLP5        0.0000 
     42 CA         22.5210    5.4925    4.2330 C.3       5 GLC5        0.0000 
     43 CA         21.2330    4.7740    5.8460 C.3      15 GLL5        0.0000 
     44 CA         23.8090    6.2110    2.6200 C.3      10 GLP5        0.0000 
     45 O          22.6820    6.2855    6.5865 O.2       1 ALC1        0.0000 
     46 O          22.5920    5.2490    5.8150 O.2      11 ALL1        0.0000 
     47 O          22.7720    7.3220    7.3580 O.2       6 ALP1        0.0000 
     48 CA         21.6870    5.4110    3.0585 C.3       5 GLC5        0.0000 
     49 CA         20.7340    4.8300    4.4340 C.3      15 GLL5        0.0000 
     50 CA         22.6400    5.9920    1.6830 C.3      10 GLP5        0.0000 
     51 N          16.3470    3.2750    4.2040 N.am      2 SEC2        0.0000 
     52 N          17.0850    4.5930    4.1270 N.am     12 SEL2        0.0000 
     53 CA         16.0605    8.2695    1.7210 C.3       5 GLC5        0.0000 
     54 CA         16.4440    6.9760    3.3530 C.3      15 GLL5        0.0000 
     55 CA         15.6770    9.5630    0.0890 C.3      10 GLP5        0.0000 
     56 O          14.4455    5.5695    3.5450 O.2       1 ALC1        0.0000 
     57 O          15.1190    6.8240    3.2200 O.2      11 ALL1        0.0000 
     58 O          13.7720    4.3150    3.8700 O.2       6 ALP1        0.0000 
     59 O          14.2910    7.6515    2.3220 O.2       1 ALC1        0.0000 
     60 O          13.4630    8.4790    1.4240 O.2       6 ALP1        0.0000 
     61 N          16.5500    9.4790    2.5865 N.am      2 SEC2        0.0000 
     62 N          17.0240    8.1480    3.0650 N.am     12 SEL2        0.0000 
     63 N          16.0760   10.8100    2.1080 N.am      7 SEP2        0.0000 
     64 CA         17.0165    8.9395    1.6385 C.3       5 GLC5        0.0000 
     65 CA         18.3560    8.3160    3.1880 C.3      15 GLL5        0.0000 
     66 CA         17.2385   10.1490    3.0785 C.3       5 GLC5        0.0000 
     67 CA         16.1210   11.9820    2.9690 C.3      10 GLP5        0.0000 
     68 CA         17.6535    8.7330    4.9855 C.3       5 GLC5        0.0000 
     69 CA         16.9510    9.1500    6.7830 C.3      10 GLP5        0.0000 
     70 CA         18.9375    4.9090    2.1125 C.3       5 GLC5        0.0000 
     71 CA         18.7270    6.1500    3.8620 C.3      15 GLL5        0.0000 
     72 CA         19.1480    3.6680    0.3630 C.3      10 GLP5        0.0000 
     73 CA         20.6835    6.0710    2.7725 C.3       5 GLC5        0.0000 
     74 CA         20.9357    4.5158    7.8585 C.3       5 GLC5        0.0000 
     75 CA         20.6530    5.0000    9.7330 C.3      10 GLP5        0.0000 
     76 CA         16.4817    5.4905    1.9217 C.3       5 GLC5        0.0000 
     77 CA         17.2930    5.8780    3.7920 C.3      15 GLL5        0.0000 
     78 CA         16.0950    4.5540    0.2710 C.3      10 GLP5        0.0000 
     79 CA         16.9097    7.7885    5.1777 C.3       5 GLC5        0.0000 
     80 CA         16.1103    6.1180    5.3562 C.3       5 GLC5        0.0000 
     81 CA         15.3520    5.8090    7.1400 C.3      10 GLP5        0.0000 
@<TRIPOS>BOND
@<TRIPOS>SUBSTRUCTURE
     1 ALC1       45 GROUP        1 X    ALC  0     ROOT ALC X 1
     2 SEC2       10 GROUP        1 X    SEC  0     **** SEC X 2
     3 LYC4        4 GROUP        1 X    LYC  0     **** LYC X 4
     4 ZIC7        1 GROUP        1 X    ZIC  0     **** ZIC X 5
     5 GLC5       34 GROUP        1 X    GLC  0     **** GLC X 6
     6 ALP1       47 GROUP        1 Y    ALP  0     ROOT ALP Y 8
     7 SEP2       12 GROUP        1 Y    SEP  0     **** SEP Y 9
     8 LYP4        6 GROUP        1 Y    LYP  0     **** LYP Y 11
     9 ZIP7        3 GROUP        1 Y    ZIP  0     **** ZIP Y 12
    10 GLP5       36 GROUP        1 Y    GLP  0     **** GLP Y 13
    11 ALL1       46 GROUP        1 Z    ALL  0     ROOT ALL Z 15
    12 SEL2       11 GROUP        1 Z    SEL  0     **** SEL Z 16
    13 LYL4        5 GROUP        1 Z    LYL  0     **** LYL Z 18
    14 ZIL7        2 GROUP        1 Z    ZIL  0     **** ZIL Z 19
    15 GLL5       35 GROUP        1 Z    GLL  0     **** GLL Z 20
@<TRIPOS>SET

