#    Name: 1z2p_ACP_1_ligand
#    Modification time : Tue Mar 25 11:26:17 2014

@<TRIPOS>MOLECULE
1z2p_ACP_1_ligand
   45    47     1     0     0
SMALL
NO_CHARGES


@<TRIPOS>ATOM
      1 PG         21.4240   -3.1140    8.5570 P.3       1 ACP1476     0.0000 
      2 O1G        20.3170   -4.1600    8.5830 O.co2     1 ACP1476     0.0000 
      3 O2G        21.4270   -2.1490    9.7450 O.co2     1 ACP1476     0.0000 
      4 O3G        22.7730   -3.6720    8.1760 O.co2     1 ACP1476     0.0000 
      5 PB         20.0050   -2.4870    5.9300 P.3       1 ACP1476     0.0000 
      6 O1B        18.7830   -3.2060    6.4660 O.co2     1 ACP1476     0.0000 
      7 O2B        20.8290   -3.1590    4.8720 O.co2     1 ACP1476     0.0000 
      8 C3B        21.0710   -1.9460    7.2280 C.3       1 ACP1476     0.0000 
      9 PA         18.9570    0.2460    5.7230 P.3       1 ACP1476     0.0000 
     10 O1A        17.4820    0.3520    5.4680 O.co2     1 ACP1476     0.0000 
     11 O2A        19.4680    0.5270    7.1100 O.co2     1 ACP1476     0.0000 
     12 O3A        19.4910   -1.1640    5.1710 O.3       1 ACP1476     0.0000 
     13 O5'        19.6480    1.2460    4.6810 O.3       1 ACP1476     0.0000 
     14 C5'        21.0670    1.2700    4.5460 C.3       1 ACP1476     0.0000 
     15 C4'        21.5930    2.6790    4.7830 C.3       1 ACP1476     0.0000 
     16 O4'        21.0420    3.5650    3.8220 O.3       1 ACP1476     0.0000 
     17 C3'        21.2040    3.2890    6.1220 C.3       1 ACP1476     0.0000 
     18 O3'        22.1530    2.9780    7.1300 O.3       1 ACP1476     0.0000 
     19 C2'        21.2330    4.7740    5.8460 C.3       1 ACP1476     0.0000 
     20 O2'        22.5920    5.2490    5.8150 O.3       1 ACP1476     0.0000 
     21 C1'        20.7340    4.8300    4.4340 C.3       1 ACP1476     0.0000 
     22 N9         19.2770    5.0260    4.2760 N.pl3     1 ACP1476     0.0000 
     23 C8         18.3110    4.0960    4.4200 C.2       1 ACP1476     0.0000 
     24 N7         17.0850    4.5930    4.1270 N.2       1 ACP1476     0.0000 
     25 C5         17.2930    5.8780    3.7920 C.ar      1 ACP1476     0.0000 
     26 C6         16.4440    6.9760    3.3530 C.ar      1 ACP1476     0.0000 
     27 N6         15.1190    6.8240    3.2200 N.pl3     1 ACP1476     0.0000 
     28 N1         17.0240    8.1480    3.0650 N.ar      1 ACP1476     0.0000 
     29 C2         18.3560    8.3160    3.1880 C.ar      1 ACP1476     0.0000 
     30 N3         19.2240    7.3690    3.5650 N.ar      1 ACP1476     0.0000 
     31 C4         18.7270    6.1500    3.8620 C.ar      1 ACP1476     0.0000 
     32 H          22.0132   -1.7041    6.7905 H         1 ACP1476     0.0000 
     33 H          20.6109   -1.1027    7.6915 H         1 ACP1476     0.0000 
     34 H          21.3850    0.9573    3.5419 H         1 ACP1476     0.0000 
     35 H          21.5553    0.6030    5.2697 H         1 ACP1476     0.0000 
     36 H          22.6689    2.6803    4.7129 H         1 ACP1476     0.0000 
     37 H          20.2165    3.0066    6.3520 H         1 ACP1476     0.0000 
     38 H          20.6051    5.2801    6.4704 H         1 ACP1476     0.0000 
     39 H          21.2655    5.6107    3.8997 H         1 ACP1476     0.0000 
     40 H          18.4738    3.1651    4.7042 H         1 ACP1476     0.0000 
     41 H          14.6152    7.6229    2.8915 H         1 ACP1476     0.0000 
     42 H          14.7528    5.9253    3.4612 H         1 ACP1476     0.0000 
     43 H          18.7516    9.2960    2.9632 H         1 ACP1476     0.0000 
     44 H          22.7793    3.7574    7.1450 H         1 ACP1476     0.0000 
     45 H          22.5364    6.2098    6.0868 H         1 ACP1476     0.0000 
@<TRIPOS>BOND
     1    2    1 ar   
     2    3    1 ar   
     3    4    1 ar   
     4    8    1 1    
     5    6    5 ar   
     6    7    5 ar   
     7    8    5 1    
     8   12    5 1    
     9   32    8 1    
    10   33    8 1    
    11   10    9 ar   
    12   11    9 ar   
    13   12    9 1    
    14   13    9 1    
    15   14   13 1    
    16   15   14 1    
    17   34   14 1    
    18   35   14 1    
    19   16   15 1    
    20   17   15 1    
    21   36   15 1    
    22   21   16 1    
    23   18   17 1    
    24   19   17 1    
    25   37   17 1    
    26   44   18 1    
    27   20   19 1    
    28   21   19 1    
    29   38   19 1    
    30   45   20 1    
    31   22   21 1    
    32   39   21 1    
    33   23   22 1    
    34   31   22 1    
    35   24   23 2    
    36   40   23 1    
    37   25   24 1    
    38   26   25 ar   
    39   31   25 ar   
    40   27   26 1    
    41   28   26 ar   
    42   41   27 1    
    43   42   27 1    
    44   29   28 ar   
    45   30   29 ar   
    46   43   29 1    
    47   31   30 ar   
@<TRIPOS>SUBSTRUCTURE
     1 ACP1476     1 GROUP   
@<TRIPOS>SET

