#    Name: 3srr_Q20_1_INTS_M
#    Modification time : Mon Mar 24 18:07:57 2014

@<TRIPOS>MOLECULE
3srr_Q20_1_INTS_M
   62     0     9     0     0
SMALL
NO_CHARGES


@<TRIPOS>ATOM
      1 CA          4.8685  -27.9935   -2.0160 C.3       3 GLC5        0.0000 
      2 CA          4.1600  -28.6940   -3.8970 C.3       9 GLL5        0.0000 
      3 CA          5.5770  -27.2930   -0.1350 C.3       6 GLP5        0.0000 
      4 CA          3.8650  -26.7010   -3.9065 C.3       3 GLC5        0.0000 
      5 CA          3.5700  -24.7080   -3.9160 C.3       6 GLP5        0.0000 
      6 CA          4.9185  -26.2585   -4.2375 C.3       3 GLC5        0.0000 
      7 CA          6.2670  -27.8090   -4.5590 C.3       9 GLL5        0.0000 
      8 CA          6.3845  -26.5835   -6.1530 C.3       3 GLC5        0.0000 
      9 CA          6.5020  -25.3580   -7.7470 C.3       6 GLP5        0.0000 
     10 CA          7.2990  -28.8110   -3.6025 C.3       3 GLC5        0.0000 
     11 CA          8.3310  -29.8130   -2.6460 C.3       6 GLP5        0.0000 
     12 N           7.7460  -28.6540   -5.9765 N.am      2 SEC2        0.0000 
     13 N           6.5580  -28.8890   -5.3320 N.am      8 SEL2        0.0000 
     14 N           8.9340  -28.4190   -6.6210 N.am      5 SEP2        0.0000 
     15 CA          7.7950  -31.7675   -6.6885 C.3       3 GLC5        0.0000 
     16 CA          6.0500  -31.0550   -6.2120 C.3       9 GLL5        0.0000 
     17 CA          9.5400  -32.4800   -7.1650 C.3       6 GLP5        0.0000 
     18 O           2.6915  -27.4115   -2.6030 O.2       1 ALC1        0.0000 
     19 O           3.0000  -28.5980   -3.2330 O.2       7 ALL1        0.0000 
     20 O           2.3830  -26.2250   -1.9730 O.2       4 ALP1        0.0000 
     21 O           1.7645  -29.2605   -3.2000 O.2       1 ALC1        0.0000 
     22 O           0.5290  -29.9230   -3.1670 O.2       4 ALP1        0.0000 
     23 O           8.4070  -26.7040   -5.0755 O.2       1 ALC1        0.0000 
     24 O           7.1870  -26.8030   -4.5110 O.2       7 ALL1        0.0000 
     25 O           9.6270  -26.6050   -5.6400 O.2       4 ALP1        0.0000 
     26 O           8.0605  -27.6110   -5.5660 O.2       1 ALC1        0.0000 
     27 O           8.9340  -28.4190   -6.6210 O.2       4 ALP1        0.0000 
     28 O           7.6100  -25.6455   -3.5225 O.2       1 ALC1        0.0000 
     29 O           8.0330  -24.4880   -2.5340 O.2       4 ALP1        0.0000 
     30 CA          0.9725  -33.3900   -5.3630 C.3       3 GLC5        0.0000 
     31 CA          2.8230  -33.1900   -5.5960 C.3       9 GLL5        0.0000 
     32 CA         -0.8780  -33.5900   -5.1300 C.3       6 GLP5        0.0000 
     33 CA          2.8450  -35.0290   -5.8465 C.3       3 GLC5        0.0000 
     34 CA          2.8670  -36.8680   -6.0970 C.3       6 GLP5        0.0000 
     35 CA          2.9585  -33.3580   -3.9125 C.3       3 GLC5        0.0000 
     36 CA          3.0940  -33.5260   -2.2290 C.3       6 GLP5        0.0000 
     37 CA          1.4750  -31.7040   -5.9695 C.3       3 GLC5        0.0000 
     38 CA          0.1270  -30.2180   -6.3430 C.3       6 GLP5        0.0000 
     39 CA          2.0065  -33.5470  -11.5595 C.3       3 GLC5        0.0000 
     40 CA          2.5180  -33.5930   -9.4470 C.3       9 GLL5        0.0000 
     41 CA          1.4950  -33.5010  -13.6720 C.3       6 GLP5        0.0000 
     42 CA          3.7745  -32.3000  -10.1130 C.3       3 GLC5        0.0000 
     43 CA          5.0310  -31.0070  -10.7790 C.3       6 GLP5        0.0000 
     44 CA          0.1305  -33.3925   -7.0685 C.3       3 GLC5        0.0000 
     45 CA          1.1390  -33.1950   -9.0070 C.3       9 GLL5        0.0000 
     46 CA          6.3140  -29.5560   -3.4757 C.3       3 GLC5        0.0000 
     47 CA          4.4340  -29.9040   -4.7140 C.3       9 GLL5        0.0000 
     48 CA          7.1063  -30.1555   -4.2353 C.3       3 GLC5        0.0000 
     49 CA          5.7130  -29.9410   -5.4370 C.3       9 GLL5        0.0000 
     50 CA          5.9962  -31.3742   -8.1613 C.3       3 GLC5        0.0000 
     51 CA          6.4070  -31.1710  -10.0740 C.3       6 GLP5        0.0000 
     52 CA          3.9295  -35.2113   -6.8552 C.3       3 GLC5        0.0000 
     53 CA          5.4170  -33.3300   -7.0500 C.3       9 GLL5        0.0000 
     54 CA          5.6785  -32.7224   -9.1379 C.3       3 GLC5        0.0000 
     55 CA          4.9080  -34.9930   -8.7900 C.3       9 GLL5        0.0000 
     56 CA          7.9575  -33.4964   -7.1051 C.3       3 GLC5        0.0000 
     57 CA          6.7990  -35.3030   -7.2630 C.3       9 GLL5        0.0000 
     58 CA          4.4979  -36.0989   -7.0050 C.3       3 GLC5        0.0000 
     59 CA          0.6743  -34.9665   -9.4475 C.3       3 GLC5        0.0000 
     60 CA         -0.4800  -36.5390   -9.6680 C.3       6 GLP5        0.0000 
     61 CA          0.3297  -32.3470   -9.8415 C.3       3 GLC5        0.0000 
     62 CA         -1.1690  -31.3000  -10.4560 C.3       6 GLP5        0.0000 
@<TRIPOS>BOND
@<TRIPOS>SUBSTRUCTURE
     1 ALC1       18 GROUP        1 X    ALC  0     ROOT ALC X 1
     2 SEC2       12 GROUP        1 X    SEC  0     **** SEC X 2
     3 GLC5        1 GROUP        1 X    GLC  0     **** GLC X 6
     4 ALP1       20 GROUP        1 Y    ALP  0     ROOT ALP Y 8
     5 SEP2       14 GROUP        1 Y    SEP  0     **** SEP Y 9
     6 GLP5        3 GROUP        1 Y    GLP  0     **** GLP Y 13
     7 ALL1       19 GROUP        1 Z    ALL  0     ROOT ALL Z 15
     8 SEL2       13 GROUP        1 Z    SEL  0     **** SEL Z 16
     9 GLL5        2 GROUP        1 Z    GLL  0     **** GLL Z 20
@<TRIPOS>SET

