#    Name: 3srr_Q20_1_ligand
#    Modification time : Mon Mar 24 18:07:57 2014

@<TRIPOS>MOLECULE
3srr_Q20_1_ligand
   42    44     1     0     0
SMALL
NO_CHARGES


@<TRIPOS>ATOM
      1 C1          4.1600  -28.6940   -3.8970 C.ar      1 Q20168      0.0000 
      2 N2          5.1130  -27.7160   -3.8630 N.ar      1 Q20168      0.0000 
      3 C3          6.2670  -27.8090   -4.5590 C.ar      1 Q20168      0.0000 
      4 N4          6.5580  -28.8890   -5.3320 N.ar      1 Q20168      0.0000 
      5 C5          5.7130  -29.9410   -5.4370 C.ar      1 Q20168      0.0000 
      6 C6          4.4340  -29.9040   -4.7140 C.ar      1 Q20168      0.0000 
      7 C7          3.5090  -30.9500   -4.7650 C.ar      1 Q20168      0.0000 
      8 C8          3.8340  -32.0640   -5.5430 C.ar      1 Q20168      0.0000 
      9 C9          5.1210  -32.1000   -6.2850 C.ar      1 Q20168      0.0000 
     10 C10         6.0500  -31.0550   -6.2120 C.ar      1 Q20168      0.0000 
     11 N11         3.0000  -28.5980   -3.2330 N.pl3     1 Q20168      0.0000 
     12 N12         7.1870  -26.8030   -4.5110 N.pl3     1 Q20168      0.0000 
     13 C13         2.8230  -33.1900   -5.5960 C.3       1 Q20168      0.0000 
     14 C14         5.4170  -33.3300   -7.0500 C.ar      1 Q20168      0.0000 
     15 C15         4.5670  -33.7790   -8.1770 C.ar      1 Q20168      0.0000 
     16 C16         4.9080  -34.9930   -8.7900 C.ar      1 Q20168      0.0000 
     17 C17         6.0090  -35.7200   -8.3360 C.ar      1 Q20168      0.0000 
     18 C18         6.7990  -35.3030   -7.2630 C.ar      1 Q20168      0.0000 
     19 C19         6.4850  -34.1150   -6.6050 C.ar      1 Q20168      0.0000 
     20 O20         3.5010  -33.0160   -8.5610 O.3       1 Q20168      0.0000 
     21 C21         2.5180  -33.5930   -9.4470 C.3       1 Q20168      0.0000 
     22 C22         1.1390  -33.1950   -9.0070 C.3       1 Q20168      0.0000 
     23 C23         7.9530  -36.1200   -6.8150 C.2       1 Q20168      0.0000 
     24 O24         8.5510  -35.8920   -5.7650 O.2       1 Q20168      0.0000 
     25 H           2.6376  -30.9025   -4.2581 H         1 Q20168      0.0000 
     26 H           6.9307  -31.1049   -6.7013 H         1 Q20168      0.0000 
     27 H           2.8477  -27.7446   -2.7346 H         1 Q20168      0.0000 
     28 H           2.3906  -29.3884   -3.2953 H         1 Q20168      0.0000 
     29 H           7.9996  -26.9223   -5.0814 H         1 Q20168      0.0000 
     30 H           6.9679  -26.0347   -3.9096 H         1 Q20168      0.0000 
     31 H           4.3456  -35.3445   -9.5728 H         1 Q20168      0.0000 
     32 H           6.2530  -36.6149   -8.8195 H         1 Q20168      0.0000 
     33 H           7.0370  -33.8147   -5.7932 H         1 Q20168      0.0000 
     34 H           2.5839  -34.6883   -9.4465 H         1 Q20168      0.0000 
     35 H           2.6697  -33.2502  -10.4783 H         1 Q20168      0.0000 
     36 H           8.1857  -36.8996   -7.4966 H         1 Q20168      0.0000 
     37 H           3.1373  -33.9445   -6.1722 H         1 Q20168      0.0000 
     38 H           2.6421  -33.5697   -4.6888 H         1 Q20168      0.0000 
     39 H           1.9457  -32.8843   -5.9661 H         1 Q20168      0.0000 
     40 H           0.9407  -33.5080   -8.0782 H         1 Q20168      0.0000 
     41 H           1.0191  -32.2022   -9.0137 H         1 Q20168      0.0000 
     42 H           0.4337  -33.5794   -9.6026 H         1 Q20168      0.0000 
@<TRIPOS>BOND
     1    2    1 ar   
     2    6    1 ar   
     3   11    1 1    
     4    3    2 ar   
     5    4    3 ar   
     6   12    3 1    
     7    5    4 ar   
     8    6    5 ar   
     9   10    5 ar   
    10    7    6 ar   
    11    8    7 ar   
    12   25    7 1    
    13    9    8 ar   
    14   13    8 1    
    15   10    9 ar   
    16   14    9 1    
    17   26   10 1    
    18   27   11 1    
    19   28   11 1    
    20   29   12 1    
    21   30   12 1    
    22   37   13 1    
    23   38   13 1    
    24   39   13 1    
    25   15   14 ar   
    26   19   14 ar   
    27   16   15 ar   
    28   20   15 1    
    29   17   16 ar   
    30   31   16 1    
    31   18   17 ar   
    32   32   17 1    
    33   19   18 ar   
    34   23   18 1    
    35   33   19 1    
    36   21   20 1    
    37   22   21 1    
    38   34   21 1    
    39   35   21 1    
    40   40   22 1    
    41   41   22 1    
    42   42   22 1    
    43   24   23 2    
    44   36   23 1    
@<TRIPOS>SUBSTRUCTURE
     1 Q20168      1 GROUP   
@<TRIPOS>SET

