#    Name: 3G5E_1_CAVITY_N1_6.mol2
#    Modification time : Mon Mar 10 18:19:44 2014

@<TRIPOS>MOLECULE
3G5E_1_CAVITY_N1_6.mol2
   92     0     4     0     0
SMALL
NO_CHARGES


@<TRIPOS>ATOM
      1 CA         18.2418  -11.2305   12.2817 C.3       3 GLY6        0.0000 
      2 CZ         19.5029  -11.3465   14.5502 C.ar      2 PHE5        0.0000 
      3 CA         19.3615  -10.1190   13.6997 C.3       3 GLY6        0.0000 
      4 CA         18.6542   -3.9816    9.4475 C.3       3 GLY6        0.0000 
      5 DU         18.1892  -12.8792   15.2021 H         4 CUB7        0.0000 
      6 CZ         18.0478  -11.6517   14.3517 C.ar      2 PHE5        0.0000 
      7 CZ         17.9063  -10.4242   13.5013 C.ar      2 PHE5        0.0000 
      8 CA         17.3405   -5.5143   10.0995 C.3       3 GLY6        0.0000 
      9 CZ         16.5926  -11.9569   14.1532 C.ar      2 PHE5        0.0000 
     10 CZ         16.0268   -7.0470   10.7514 C.ar      2 PHE5        0.0000 
     11 CZ         13.8238  -13.7948   14.6067 C.ar      2 PHE5        0.0000 
     12 CZ         20.3397   -7.7800   14.2673 C.ar      2 PHE5        0.0000 
     13 N          20.1983   -6.5526   13.4169 N.2       1 ALA2        0.0000 
     14 CZ         19.3089  -11.7677   16.6202 C.ar      2 PHE5        0.0000 
     15 CZ         19.1675  -10.5402   15.7697 C.ar      2 PHE5        0.0000 
     16 CZ         19.0260   -9.3127   14.9193 C.ar      2 PHE5        0.0000 
     17 CA         18.8846   -8.0852   14.0689 C.3       3 GLY6        0.0000 
     18 CA         18.7431   -6.8578   13.2184 C.3       3 GLY6        0.0000 
     19 CA         18.6017   -5.6303   12.3680 C.3       3 GLY6        0.0000 
     20 O          18.4602   -4.4028   11.5175 O.2       1 ALA2        0.0000 
     21 CZ         18.3187   -3.1753   10.6671 C.ar      2 PHE5        0.0000 
     22 DU         17.9952  -13.3004   17.2722 H         4 CUB7        0.0000 
     23 DU         17.8538  -12.0729   16.4217 H         4 CUB7        0.0000 
     24 DU         17.7123  -10.8454   15.5713 H         4 CUB7        0.0000 
     25 CZ         17.5709   -9.6179   14.7208 C.ar      2 PHE5        0.0000 
     26 CZ         17.4294   -8.3904   13.8704 C.ar      2 PHE5        0.0000 
     27 CA         17.2880   -7.1630   13.0199 C.3       3 GLY6        0.0000 
     28 CA         17.1465   -5.9355   12.1695 C.3       3 GLY6        0.0000 
     29 CZ         17.0050   -4.7080   11.3190 C.ar      2 PHE5        0.0000 
     30 CZ         16.8636   -3.4805   10.4686 C.ar      2 PHE5        0.0000 
     31 DU         16.5401  -13.6056   17.0737 H         4 CUB7        0.0000 
     32 DU         16.3986  -12.3781   16.2232 H         4 CUB7        0.0000 
     33 CZ         16.2572  -11.1506   15.3728 C.ar      2 PHE5        0.0000 
     34 CZ         15.8328   -7.4682   12.8215 C.ar      2 PHE5        0.0000 
     35 CZ         15.6914   -6.2407   11.9710 C.ar      2 PHE5        0.0000 
     36 CZ         15.5499   -5.0132   11.1206 C.ar      2 PHE5        0.0000 
     37 CZ         14.9435  -12.6833   16.0248 C.ar      2 PHE5        0.0000 
     38 CZ         14.8020  -11.4558   15.1743 C.ar      2 PHE5        0.0000 
     39 O          13.6298  -14.2160   16.6767 O.2       1 ALA2        0.0000 
     40 CA         13.4883  -12.9885   15.8263 C.3       3 GLY6        0.0000 
     41 CZ         13.3469  -11.7610   14.9758 C.ar      2 PHE5        0.0000 
     42 CZ         20.0043   -6.9737   15.4869 C.ar      2 PHE5        0.0000 
     43 O          19.8628   -5.7463   14.6365 O.2       1 ALA2        0.0000 
     44 O          19.7213   -4.5188   13.7860 O.2       1 ALA2        0.0000 
     45 CZ         18.8320   -9.7339   16.9893 C.ar      2 PHE5        0.0000 
     46 CZ         18.6906   -8.5064   16.1389 C.ar      2 PHE5        0.0000 
     47 CZ         18.5491   -7.2789   15.2884 C.ar      2 PHE5        0.0000 
     48 CZ         18.4076   -6.0515   14.4380 C.ar      2 PHE5        0.0000 
     49 CZ         18.2662   -4.8240   13.5875 C.ar      2 PHE5        0.0000 
     50 O          17.5183  -11.2666   17.6413 O.2       1 ALA2        0.0000 
     51 CZ         17.3769  -10.0391   16.7908 C.ar      2 PHE5        0.0000 
     52 DU         17.2354   -8.8116   15.9404 H         4 CUB7        0.0000 
     53 DU         17.0940   -7.5841   15.0899 H         4 CUB7        0.0000 
     54 CZ         16.9525   -6.3567   14.2395 C.ar      2 PHE5        0.0000 
     55 CZ         16.8110   -5.1292   13.3891 C.ar      2 PHE5        0.0000 
     56 O          16.2046  -12.7993   18.2932 O.2       1 ALA2        0.0000 
     57 O          16.0632  -11.5718   17.4428 O.2       1 ALA2        0.0000 
     58 DU         15.9217  -10.3443   16.5924 H         4 CUB7        0.0000 
     59 CZ         15.7803   -9.1168   15.7419 C.ar      2 PHE5        0.0000 
     60 CZ         15.6388   -7.8893   14.8915 C.ar      2 PHE5        0.0000 
     61 CZ         15.4974   -6.6619   14.0410 C.ar      2 PHE5        0.0000 
     62 O          15.3559   -5.4344   13.1906 O.2       1 ALA2        0.0000 
     63 N          14.7495  -13.1045   18.0948 N.2       1 ALA2        0.0000 
     64 N          14.6080  -11.8770   17.2443 N.2       1 ALA2        0.0000 
     65 CA         14.4666  -10.6495   16.3939 C.3       3 GLY6        0.0000 
     66 CZ         14.3251   -9.4220   15.5434 C.ar      2 PHE5        0.0000 
     67 N          13.1529  -12.1822   17.0458 N.2       1 ALA2        0.0000 
     68 CA         19.6688   -6.1674   16.7065 C.3       3 GLY6        0.0000 
     69 CA         19.5273   -4.9400   15.8560 C.3       3 GLY6        0.0000 
     70 CZ         18.3551   -7.7001   17.3584 C.ar      2 PHE5        0.0000 
     71 CA         18.2136   -6.4726   16.5080 C.3       3 GLY6        0.0000 
     72 CZ         18.0722   -5.2452   15.6575 C.ar      2 PHE5        0.0000 
     73 O          17.0414   -9.2328   18.0104 O.2       1 ALA2        0.0000 
     74 CZ         16.9000   -8.0053   17.1600 C.ar      2 PHE5        0.0000 
     75 O          16.7585   -6.7778   16.3095 O.2       1 ALA2        0.0000 
     76 O          15.5863   -9.5380   17.8119 O.2       1 ALA2        0.0000 
     77 DU         15.4448   -8.3105   16.9615 H         4 CUB7        0.0000 
     78 O          15.3033   -7.0830   16.1110 O.2       1 ALA2        0.0000 
     79 N          14.5555  -13.5257   20.1648 N.2       1 ALA2        0.0000 
     80 N          14.4140  -12.2982   19.3143 N.2       1 ALA2        0.0000 
     81 N          14.2726  -11.0707   18.4639 N.2       1 ALA2        0.0000 
     82 CA         14.1311   -9.8432   17.6135 C.3       3 GLY6        0.0000 
     83 CA         13.9897   -8.6157   16.7630 C.3       3 GLY6        0.0000 
     84 CZ         18.0196   -6.8938   18.5780 C.ar      2 PHE5        0.0000 
     85 CA         17.8782   -5.6663   17.7276 C.3       3 GLY6        0.0000 
     86 CZ         16.5645   -7.1990   18.3795 C.ar      2 PHE5        0.0000 
     87 CA         16.4230   -5.9715   17.5291 C.3       3 GLY6        0.0000 
     88 CZ         15.2508   -8.7317   19.0315 C.ar      2 PHE5        0.0000 
     89 CZ         15.1093   -7.5042   18.1811 C.ar      2 PHE5        0.0000 
     90 N          14.9679   -6.2767   17.3306 N.2       1 ALA2        0.0000 
     91 CA         13.7956   -9.0369   18.8330 C.3       3 GLY6        0.0000 
     92 CA         13.6542   -7.8094   17.9826 C.3       3 GLY6        0.0000 
@<TRIPOS>BOND
@<TRIPOS>SUBSTRUCTURE
     1 ALA2       13 GROUP   
     2 PHE5        2 GROUP   
     3 GLY6        1 GROUP   
     4 CUB7        5 GROUP   
@<TRIPOS>SET

