#    Name: 3g5e_Q74_1_INTS_M
#    Modification time : Tue Mar 25 07:10:14 2014

@<TRIPOS>MOLECULE
3g5e_Q74_1_INTS_M
   72     0     6     0     0
SMALL
NO_CHARGES


@<TRIPOS>ATOM
      1 CA         16.1905   -1.9265   10.9590 C.3       2 GLC5        0.0000 
      2 CA         16.5870   -2.4300    9.0210 C.3       6 GLL5        0.0000 
      3 CA         15.7940   -1.4230   12.8970 C.3       4 GLP5        0.0000 
      4 CA         15.0845   -1.8115    8.1840 C.3       2 GLC5        0.0000 
      5 CA         13.5820   -1.1930    7.3470 C.3       4 GLP5        0.0000 
      6 CA         17.8015   -1.7820    8.0155 C.3       2 GLC5        0.0000 
      7 CA         19.0160   -1.1340    7.0100 C.3       4 GLP5        0.0000 
      8 CA         16.7615   -0.5690    9.0550 C.3       2 GLC5        0.0000 
      9 CA         16.9360    1.2920    9.0890 C.3       4 GLP5        0.0000 
     10 CA         17.9990   -2.2570   11.8490 C.3       2 GLC5        0.0000 
     11 CA         18.8640   -3.1110   10.4600 C.3       6 GLL5        0.0000 
     12 CA         17.1340   -1.4030   13.2380 C.3       4 GLP5        0.0000 
     13 CA         20.4485   -3.4305   11.3695 C.3       2 GLC5        0.0000 
     14 CA         22.0330   -3.7500   12.2790 C.3       4 GLP5        0.0000 
     15 CA         19.5000   -2.2915    9.1140 C.3       2 GLC5        0.0000 
     16 CA         20.1360   -1.4720    7.7680 C.3       4 GLP5        0.0000 
     17 CA         19.5600   -1.3750   11.4260 C.3       2 GLC5        0.0000 
     18 CA         20.2560    0.3610   12.3920 C.3       4 GLP5        0.0000 
     19 CA         13.8670   -3.0330    8.9710 C.3       2 GLC5        0.0000 
     20 CA         15.3340   -3.9930   10.3260 C.3       6 GLL5        0.0000 
     21 CA         12.4000   -2.0730    7.6160 C.3       4 GLP5        0.0000 
     22 CA         13.3650   -6.5365   12.7620 C.3       2 GLC5        0.0000 
     23 CA         14.1550   -5.5460   11.6490 C.3       6 GLL5        0.0000 
     24 CA         12.5750   -7.5270   13.8750 C.3       4 GLP5        0.0000 
     25 CA         12.4505   -5.1940   11.4980 C.3       2 GLC5        0.0000 
     26 CA         10.7460   -4.8420   11.3470 C.3       4 GLP5        0.0000 
     27 CA         13.7235   -4.5690   13.0260 C.3       2 GLC5        0.0000 
     28 CA         13.2920   -3.5920   14.4030 C.3       4 GLP5        0.0000 
     29 CA         13.5530   -6.0700   10.0560 C.3       2 GLC5        0.0000 
     30 CA         12.9510   -6.5940    8.4630 C.3       4 GLP5        0.0000 
     31 CA         14.6225   -7.4320   11.4350 C.3       2 GLC5        0.0000 
     32 CA         15.0900   -9.3180   11.2210 C.3       4 GLP5        0.0000 
     33 CA         19.8625   -4.1765   12.0050 C.3       2 GLC5        0.0000 
     34 CA         17.6920   -4.6030   11.7310 C.3       6 GLL5        0.0000 
     35 CA         18.0405   -4.8905   14.6955 C.3       2 GLC5        0.0000 
     36 CA         19.2440   -6.6510   14.4600 C.3       6 GLL5        0.0000 
     37 CA         16.8370   -3.1300   14.9310 C.3       4 GLP5        0.0000 
     38 CA         20.4175   -7.7680   15.4580 C.3       2 GLC5        0.0000 
     39 CA         21.5910   -8.8850   16.4560 C.3       4 GLP5        0.0000 
     40 CA         18.2640   -9.3295   12.6480 C.3       2 GLC5        0.0000 
     41 CA         18.0370   -9.6880   14.7510 C.3       6 GLL5        0.0000 
     42 CA         18.4910   -8.9710   10.5450 C.3       4 GLP5        0.0000 
     43 CA         19.4685   -5.5230   17.5190 C.3       2 GLC5        0.0000 
     44 CA         17.9230   -6.6200   16.6720 C.3       6 GLL5        0.0000 
     45 CA         21.0140   -4.4260   18.3660 C.3       4 GLP5        0.0000 
     46 CA         17.3835   -8.2705   19.5675 C.3       2 GLC5        0.0000 
     47 CA         16.5000   -7.1210   18.6850 C.3       6 GLL5        0.0000 
     48 CA         18.2670   -9.4200   20.4500 C.3       4 GLP5        0.0000 
     49 CA         14.9405   -7.4995   19.9195 C.3       2 GLC5        0.0000 
     50 CA         13.3810   -7.8780   21.1540 C.3       4 GLP5        0.0000 
     51 CA         16.9120   -5.3215   19.4095 C.3       2 GLC5        0.0000 
     52 CA         17.3240   -3.5220   20.1340 C.3       4 GLP5        0.0000 
     53 N          14.7960   -4.8685   16.1530 N.am      1 SEC2        0.0000 
     54 N          15.1320   -5.8080   17.2450 N.am      5 SEL2        0.0000 
     55 N          14.4600   -3.9290   15.0610 N.am      3 SEP2        0.0000 
     56 N          14.3340   -5.5730   20.6330 N.am      1 SEC2        0.0000 
     57 N          14.9180   -5.5410   19.3960 N.am      5 SEL2        0.0000 
     58 N          13.7500   -5.6050   21.8700 N.am      3 SEP2        0.0000 
     59 N          13.7430   -5.0405   18.8990 N.am      1 SEC2        0.0000 
     60 N          12.5680   -4.5400   18.4020 N.am      3 SEP2        0.0000 
     61 CA         17.0697   -3.9710    8.2268 C.3       2 GLC5        0.0000 
     62 CA         16.5340   -3.3660   10.0020 C.3       6 GLL5        0.0000 
     63 CA         17.5790   -5.0440    6.9420 C.3       4 GLP5        0.0000 
     64 CA         17.9282   -4.2215    8.7640 C.3       2 GLC5        0.0000 
     65 CA         13.9380   -3.2112   11.6810 C.3       2 GLC5        0.0000 
     66 CA         12.5470   -1.9510   12.5160 C.3       4 GLP5        0.0000 
     67 CA         16.0030   -5.4272    9.2755 C.3       2 GLC5        0.0000 
     68 CA         16.6770   -6.3830    7.7050 C.3       4 GLP5        0.0000 
     69 CA         17.5362   -7.3857   11.6260 C.3       2 GLC5        0.0000 
     70 CA         16.5120   -5.2520   12.0580 C.3       6 GLL5        0.0000 
     71 CA         19.0679   -5.6170   10.6037 C.3       2 GLC5        0.0000 
     72 CA         20.1510   -7.2330   10.0490 C.3       4 GLP5        0.0000 
@<TRIPOS>BOND
@<TRIPOS>SUBSTRUCTURE
     1 SEC2       53 GROUP        1 X    SEC  0     ROOT SEC X 2
     2 GLC5        1 GROUP        1 X    GLC  0     **** GLC X 6
     3 SEP2       55 GROUP        1 Y    SEP  0     ROOT SEP Y 9
     4 GLP5        3 GROUP        1 Y    GLP  0     **** GLP Y 13
     5 SEL2       54 GROUP        1 Z    SEL  0     ROOT SEL Z 16
     6 GLL5        2 GROUP        1 Z    GLL  0     **** GLL Z 20
@<TRIPOS>SET

