#    Name: 3g5e_Q74_1_ligand
#    Modification time : Tue Mar 25 07:10:14 2014

@<TRIPOS>MOLECULE
3g5e_Q74_1_ligand
   35    38     1     0     0
SMALL
NO_CHARGES


@<TRIPOS>ATOM
      1 F1         16.5870   -2.4300    9.0210 F         1 Q74320      0.0000 
      2 C2         16.5340   -3.3660   10.0020 C.ar      1 Q74320      0.0000 
      3 C3         17.6910   -3.6870   10.7120 C.ar      1 Q74320      0.0000 
      4 F4         18.8640   -3.1110   10.4600 F         1 Q74320      0.0000 
      5 C5         15.3340   -3.9930   10.3260 C.ar      1 Q74320      0.0000 
      6 C6         15.3240   -4.9500   11.3660 C.ar      1 Q74320      0.0000 
      7 F7         14.1550   -5.5460   11.6490 F         1 Q74320      0.0000 
      8 C8         16.5120   -5.2520   12.0580 C.ar      1 Q74320      0.0000 
      9 C9         17.6920   -4.6030   11.7310 C.ar      1 Q74320      0.0000 
     10 N10        18.7280   -5.0260   12.5130 N.2       1 Q74320      0.0000 
     11 S11        16.6510   -6.3490   13.3560 S.3       1 Q74320      0.0000 
     12 C12        18.3670   -5.9540   13.4130 C.2       1 Q74320      0.0000 
     13 C13        19.2440   -6.6510   14.4600 C.3       1 Q74320      0.0000 
     14 C14        18.4030   -7.2780   15.5330 C.2       1 Q74320      0.0000 
     15 C15        17.9140   -8.5710   15.5830 C.ar      1 Q74320      0.0000 
     16 C16        18.0370   -9.6880   14.7510 C.ar      1 Q74320      0.0000 
     17 C17        17.9230   -6.6200   16.6720 C.2       1 Q74320      0.0000 
     18 N18        17.1720   -7.4430   17.4160 N.pl3     1 Q74320      0.0000 
     19 C19        16.5000   -7.1210   18.6850 C.3       1 Q74320      0.0000 
     20 C20        15.4390   -6.0850   18.4190 C.2       1 Q74320      0.0000 
     21 O21        15.1320   -5.8080   17.2450 O.co2     1 Q74320      0.0000 
     22 O22        14.9180   -5.5410   19.3960 O.co2     1 Q74320      0.0000 
     23 C23        17.1160   -8.6470   16.8210 C.ar      1 Q74320      0.0000 
     24 N24        16.5130   -9.8070   17.1450 N.ar      1 Q74320      0.0000 
     25 C25        16.6340  -10.8930   16.3380 C.ar      1 Q74320      0.0000 
     26 C26        17.3810  -10.8530   15.1560 C.ar      1 Q74320      0.0000 
     27 H          14.4753   -3.7732    9.8293 H         1 Q74320      0.0000 
     28 H          19.9188   -5.9130   14.8982 H         1 Q74320      0.0000 
     29 H          19.8434   -7.4152   13.9613 H         1 Q74320      0.0000 
     30 H          18.5722   -9.6538   13.9019 H         1 Q74320      0.0000 
     31 H          18.1267   -5.6882   16.8674 H         1 Q74320      0.0000 
     32 H          17.2136   -6.7231   19.4040 H         1 Q74320      0.0000 
     33 H          16.0324   -8.0096   19.1049 H         1 Q74320      0.0000 
     34 H          16.1630  -11.7905   16.5918 H         1 Q74320      0.0000 
     35 H          17.4485  -11.7038   14.5705 H         1 Q74320      0.0000 
@<TRIPOS>BOND
     1    2    1 1    
     2    3    2 ar   
     3    5    2 ar   
     4    4    3 1    
     5    9    3 ar   
     6    6    5 ar   
     7   27    5 1    
     8    7    6 1    
     9    8    6 ar   
    10    9    8 ar   
    11   11    8 1    
    12   10    9 1    
    13   12   10 2    
    14   12   11 1    
    15   13   12 1    
    16   14   13 1    
    17   28   13 1    
    18   29   13 1    
    19   15   14 1    
    20   17   14 2    
    21   16   15 ar   
    22   23   15 ar   
    23   26   16 ar   
    24   30   16 1    
    25   18   17 1    
    26   31   17 1    
    27   19   18 1    
    28   23   18 1    
    29   20   19 1    
    30   32   19 1    
    31   33   19 1    
    32   21   20 ar   
    33   22   20 ar   
    34   24   23 ar   
    35   25   24 ar   
    36   26   25 ar   
    37   34   25 1    
    38   35   26 1    
@<TRIPOS>SUBSTRUCTURE
     1 Q74320      1 GROUP   
@<TRIPOS>SET

