#    Name: 3h3c_P1E_1_INTS_M
#    Modification time : Tue Mar 25 13:31:28 2014

@<TRIPOS>MOLECULE
3h3c_P1E_1_INTS_M
   78     0    12     0     0
SMALL
NO_CHARGES


@<TRIPOS>ATOM
      1 CA         14.6050  -11.5765    2.2040 C.3       4 GLC5        0.0000 
      2 CA         14.6980   -9.5710    2.0190 C.3      12 GLL5        0.0000 
      3 CA         14.5120  -13.5820    2.3890 C.3       8 GLP5        0.0000 
      4 CA         14.0530  -10.6775    0.5540 C.3       4 GLC5        0.0000 
      5 CA         13.4080  -11.7840   -0.9110 C.3       8 GLP5        0.0000 
      6 CA         15.5715   -8.0945    2.6400 C.3       4 GLC5        0.0000 
      7 CA         16.4450   -6.6180    3.2610 C.3       8 GLP5        0.0000 
      8 CA         11.8505   -9.1825    0.6040 C.3       4 GLC5        0.0000 
      9 CA         12.5790   -8.7150    2.4970 C.3      12 GLL5        0.0000 
     10 CA         11.1220   -9.6500   -1.2890 C.3       8 GLP5        0.0000 
     11 CA         11.8380   -5.8955    5.2625 C.3       4 GLC5        0.0000 
     12 CA         12.2010   -7.7260    5.7620 C.3      12 GLL5        0.0000 
     13 CA         11.4750   -4.0650    4.7630 C.3       8 GLP5        0.0000 
     14 CA         13.6340   -6.5260    5.3540 C.3       4 GLC5        0.0000 
     15 CA         15.0670   -5.3260    4.9460 C.3       8 GLP5        0.0000 
     16 CA         10.3445   -6.1150    4.5620 C.3       4 GLC5        0.0000 
     17 CA         10.7250   -7.9740    4.2090 C.3      12 GLL5        0.0000 
     18 CA          9.9640   -4.2560    4.9150 C.3       8 GLP5        0.0000 
     19 CA         10.8250   -6.4815    2.7190 C.3       4 GLC5        0.0000 
     20 CA         10.9250   -4.9890    1.2290 C.3       8 GLP5        0.0000 
     21 CA         11.1835  -11.0905    3.9330 C.3       4 GLC5        0.0000 
     22 CA         11.3180   -9.8180    5.4780 C.3      12 GLL5        0.0000 
     23 CA         11.0490  -12.3630    2.3880 C.3       8 GLP5        0.0000 
     24 CA         10.2905  -10.7365    6.9590 C.3       4 GLC5        0.0000 
     25 CA          9.2630  -11.6550    8.4400 C.3       8 GLP5        0.0000 
     26 CA          9.4575   -9.9285    5.4065 C.3       4 GLC5        0.0000 
     27 CA          7.5970  -10.0390    5.3350 C.3       8 GLP5        0.0000 
     28 N          13.2550   -8.5385    0.2090 N.am      2 SEC2        0.0000 
     29 N          13.5630   -9.0200    1.6430 N.am     10 SEL2        0.0000 
     30 N          12.9470   -8.0570   -1.2250 N.am      6 SEP2        0.0000 
     31 CA         14.2690  -11.5670    3.3040 C.3       4 GLC5        0.0000 
     32 CA         14.0260   -9.5520    4.2190 C.3      12 GLL5        0.0000 
     33 CA         15.2355   -8.0850    3.7400 C.3       4 GLC5        0.0000 
     34 CA         15.0375  -12.7435    4.0725 C.3       4 GLC5        0.0000 
     35 CA         15.5630  -11.9050    5.7560 C.3      12 GLL5        0.0000 
     36 CA         14.3170  -13.6360    6.0600 C.3       4 GLC5        0.0000 
     37 CA         13.0710  -15.3670    6.3640 C.3       8 GLP5        0.0000 
     38 CA         15.4335  -13.3435    9.1950 C.3       4 GLC5        0.0000 
     39 CA         15.7660  -12.4540    7.1820 C.3      12 GLL5        0.0000 
     40 CA         15.1010  -14.2330   11.2080 C.3       8 GLP5        0.0000 
     41 CA         14.2965  -13.6050    7.4760 C.3       4 GLC5        0.0000 
     42 CA         12.8270  -14.7560    7.7700 C.3       8 GLP5        0.0000 
     43 OD1        19.0195   -9.0780    7.1430 O.co2     3 ASC3        0.0000 
     44 OD1        17.1250   -9.0630    7.4200 O.co2    11 ASL3        0.0000 
     45 OD1        20.9140   -9.0930    6.8660 O.co2     7 ASP3        0.0000 
     46 CA         18.7005   -7.5670    6.0145 C.3       4 GLC5        0.0000 
     47 CA         16.7650   -7.7880    6.7900 C.3      12 GLL5        0.0000 
     48 CA         20.6360   -7.3460    5.2390 C.3       8 GLP5        0.0000 
     49 CA         15.9160   -6.5570    5.8680 C.3       4 GLC5        0.0000 
     50 O          15.7770   -8.9655   -0.1830 O.2       1 ALC1        0.0000 
     51 O          15.6110   -9.8330    1.0280 O.2       9 ALL1        0.0000 
     52 O          15.9430   -8.0980   -1.3940 O.2       5 ALP1        0.0000 
     53 CA         20.7120   -8.4025    1.3090 C.3       4 GLC5        0.0000 
     54 CA         22.0240   -9.2280    2.2960 C.3      12 GLL5        0.0000 
     55 CA         19.4000   -7.5770    0.3220 C.3       8 GLP5        0.0000 
     56 CA         21.3300   -8.2870    3.7675 C.3       4 GLC5        0.0000 
     57 CA         23.4440   -8.8520    3.1685 C.3       4 GLC5        0.0000 
     58 CA         24.8640   -8.4760    4.0410 C.3       8 GLP5        0.0000 
     59 CA         16.8660  -12.2265    1.2800 C.3       4 GLC5        0.0000 
     60 CA         17.5890  -10.3440    2.3740 C.3      12 GLL5        0.0000 
     61 CA         16.4820  -14.1280    0.8040 C.3       8 GLP5        0.0000 
     62 CA         15.3217  -11.1423   -0.1835 C.3       4 GLC5        0.0000 
     63 CA         16.9110  -10.3060    1.1380 C.3      12 GLL5        0.0000 
     64 CA         18.3250   -8.9510    1.0390 C.3       4 GLC5        0.0000 
     65 CA         16.8475   -8.4715    2.5085 C.3       4 GLC5        0.0000 
     66 CA         17.8540  -12.5598    1.3235 C.3       4 GLC5        0.0000 
     67 CA         18.8950  -10.7860    2.4290 C.3      12 GLL5        0.0000 
     68 CA         19.3130   -9.2843    1.0825 C.3       4 GLC5        0.0000 
     69 CA         19.5570  -11.1970    1.2570 C.3      12 GLL5        0.0000 
     70 CA         13.9635   -7.2828    3.3025 C.3       4 GLC5        0.0000 
     71 CA         15.2350   -5.7160    3.4440 C.3       8 GLP5        0.0000 
     72 CA          9.5297   -9.0065    4.1830 C.3       4 GLC5        0.0000 
     73 CA         11.7480   -8.6460    4.8470 C.3      12 GLL5        0.0000 
     74 CA          7.8230   -9.7030    3.8380 C.3       8 GLP5        0.0000 
     75 CA         12.2040  -10.7819    3.0390 C.3       4 GLC5        0.0000 
     76 CA         17.3495  -12.5252    0.3980 C.3       4 GLC5        0.0000 
     77 CA         17.5600  -10.6950   -0.0500 C.3      12 GLL5        0.0000 
     78 CA         18.8085   -9.2497    0.1570 C.3       4 GLC5        0.0000 
@<TRIPOS>BOND
@<TRIPOS>SUBSTRUCTURE
     1 ALC1       50 GROUP        1 X    ALC  0     ROOT ALC X 1
     2 SEC2       28 GROUP        1 X    SEC  0     **** SEC X 2
     3 ASC3       43 GROUP        1 X    ASC  0     **** ASC X 3
     4 GLC5        1 GROUP        1 X    GLC  0     **** GLC X 6
     5 ALP1       52 GROUP        1 Y    ALP  0     ROOT ALP Y 8
     6 SEP2       30 GROUP        1 Y    SEP  0     **** SEP Y 9
     7 ASP3       45 GROUP        1 Y    ASP  0     **** ASP Y 10
     8 GLP5        3 GROUP        1 Y    GLP  0     **** GLP Y 13
     9 ALL1       51 GROUP        1 Z    ALL  0     ROOT ALL Z 15
    10 SEL2       29 GROUP        1 Z    SEL  0     **** SEL Z 16
    11 ASL3       44 GROUP        1 Z    ASL  0     **** ASL Z 17
    12 GLL5        2 GROUP        1 Z    GLL  0     **** GLL Z 20
@<TRIPOS>SET

