#    Name: 3h3c_P1E_1_ligand
#    Modification time : Tue Mar 25 13:31:28 2014

@<TRIPOS>MOLECULE
3h3c_P1E_1_ligand
   57    59     1     0     0
SMALL
NO_CHARGES


@<TRIPOS>ATOM
      1 C4         16.9110  -10.3060    1.1380 C.ar      1 P1E999      0.0000 
      2 C6         18.8950  -10.7860    2.4290 C.ar      1 P1E999      0.0000 
      3 C9         14.6980   -9.5710    2.0190 C.ar      1 P1E999      0.0000 
      4 C13        12.5790   -8.7150    2.4970 C.ar      1 P1E999      0.0000 
      5 F22        12.2010   -7.7260    5.7620 F         1 P1E999      0.0000 
      6 C15        11.7480   -8.6460    4.8470 C.3       1 P1E999      0.0000 
      7 F16        10.7250   -7.9740    4.2090 F         1 P1E999      0.0000 
      8 F21        11.3180   -9.8180    5.4780 F         1 P1E999      0.0000 
      9 C12        12.8050   -8.9840    3.8250 C.ar      1 P1E999      0.0000 
     10 N14        13.5630   -9.0200    1.6430 N.ar      1 P1E999      0.0000 
     11 C11        14.0260   -9.5520    4.2190 C.ar      1 P1E999      0.0000 
     12 N8         14.2920   -9.8180    5.5540 N.pl3     1 P1E999      0.0000 
     13 C25        15.5940  -10.3650    5.9030 C.3       1 P1E999      0.0000 
     14 C28        15.5630  -11.9050    5.7560 C.3       1 P1E999      0.0000 
     15 C31        15.7660  -12.4540    7.1820 C.3       1 P1E999      0.0000 
     16 C27        16.3970  -11.3130    8.0170 C.3       1 P1E999      0.0000 
     17 C24        15.9710   -9.9870    7.3760 C.3       1 P1E999      0.0000 
     18 N26        17.1250   -9.0630    7.4200 N.4       1 P1E999      0.0000 
     19 C30        17.4810   -8.6910    8.8030 C.3       1 P1E999      0.0000 
     20 C29        16.7650   -7.7880    6.7900 C.3       1 P1E999      0.0000 
     21 N10        14.9340   -9.8600    3.2990 N.ar      1 P1E999      0.0000 
     22 N7         15.6110   -9.8330    1.0280 N.pl3     1 P1E999      0.0000 
     23 C5         17.5890  -10.3440    2.3740 C.ar      1 P1E999      0.0000 
     24 C3         17.5600  -10.6950   -0.0500 C.ar      1 P1E999      0.0000 
     25 C2         18.8740  -11.1500    0.0340 C.ar      1 P1E999      0.0000 
     26 C1         19.5570  -11.1970    1.2570 C.ar      1 P1E999      0.0000 
     27 S18        21.2710  -11.7650    1.3980 S.o2      1 P1E999      0.0000 
     28 O19        21.2630  -13.0550    2.0400 O.2       1 P1E999      0.0000 
     29 O20        21.9290  -11.4690    0.1760 O.2       1 P1E999      0.0000 
     30 N17        21.8560  -10.6820    2.5200 N.pl3     1 P1E999      0.0000 
     31 C23        22.0240   -9.2280    2.2960 C.3       1 P1E999      0.0000 
     32 H          19.3987  -10.8199    3.3267 H         1 P1E999      0.0000 
     33 H          11.6983   -8.3027    2.1941 H         1 P1E999      0.0000 
     34 H          13.6221   -9.6478    6.2860 H         1 P1E999      0.0000 
     35 H          16.3638   -9.9838    5.2594 H         1 P1E999      0.0000 
     36 H          16.3663  -12.2172    5.1347 H         1 P1E999      0.0000 
     37 H          14.6127  -12.2061    5.3886 H         1 P1E999      0.0000 
     38 H          16.4377  -13.2845    7.1540 H         1 P1E999      0.0000 
     39 H          14.8198  -12.7179    7.6024 H         1 P1E999      0.0000 
     40 H          17.4643  -11.4038    7.9863 H         1 P1E999      0.0000 
     41 H          16.0262  -11.3657    9.0210 H         1 P1E999      0.0000 
     42 H          15.1280   -9.6210    7.8639 H         1 P1E999      0.0000 
     43 H          17.9716   -9.4768    6.9280 H         1 P1E999      0.0000 
     44 H          15.2702   -9.6435    0.0032 H         1 P1E999      0.0000 
     45 H          17.0999  -10.0405    3.2236 H         1 P1E999      0.0000 
     46 H          17.0776  -10.6426   -0.9391 H         1 P1E999      0.0000 
     47 H          19.3614  -11.4620   -0.8264 H         1 P1E999      0.0000 
     48 H          22.0955  -11.1198    3.4006 H         1 P1E999      0.0000 
     49 H          17.7230   -9.4909    9.3522 H         1 P1E999      0.0000 
     50 H          18.2635   -8.0689    8.8306 H         1 P1E999      0.0000 
     51 H          16.7253   -8.2323    9.2705 H         1 P1E999      0.0000 
     52 H          17.5251   -7.1384    6.8054 H         1 P1E999      0.0000 
     53 H          16.5014   -7.9080    5.8329 H         1 P1E999      0.0000 
     54 H          15.9950   -7.3492    7.2532 H         1 P1E999      0.0000 
     55 H          22.3911   -8.7677    3.1043 H         1 P1E999      0.0000 
     56 H          22.6513   -9.0386    1.5406 H         1 P1E999      0.0000 
     57 H          21.1560   -8.7836    2.0745 H         1 P1E999      0.0000 
@<TRIPOS>BOND
     1   22    1 1    
     2   23    1 ar   
     3   24    1 ar   
     4   23    2 ar   
     5   26    2 ar   
     6   32    2 1    
     7   10    3 ar   
     8   21    3 ar   
     9   22    3 1    
    10    9    4 ar   
    11   10    4 ar   
    12   33    4 1    
    13    6    5 1    
    14    7    6 1    
    15    8    6 1    
    16    9    6 1    
    17   11    9 ar   
    18   12   11 1    
    19   21   11 ar   
    20   13   12 1    
    21   34   12 1    
    22   14   13 1    
    23   17   13 1    
    24   35   13 1    
    25   15   14 1    
    26   36   14 1    
    27   37   14 1    
    28   16   15 1    
    29   38   15 1    
    30   39   15 1    
    31   17   16 1    
    32   40   16 1    
    33   41   16 1    
    34   18   17 1    
    35   42   17 1    
    36   19   18 1    
    37   20   18 1    
    38   43   18 1    
    39   49   19 1    
    40   50   19 1    
    41   51   19 1    
    42   52   20 1    
    43   53   20 1    
    44   54   20 1    
    45   44   22 1    
    46   45   23 1    
    47   25   24 ar   
    48   46   24 1    
    49   26   25 ar   
    50   47   25 1    
    51   27   26 1    
    52   28   27 2    
    53   29   27 2    
    54   30   27 1    
    55   31   30 1    
    56   48   30 1    
    57   55   31 1    
    58   56   31 1    
    59   57   31 1    
@<TRIPOS>SUBSTRUCTURE
     1 P1E999      1 GROUP   
@<TRIPOS>SET

