#    Name: 4BNI_4_CAVITY_N1_6.mol2
#    Modification time : Tue Mar 11 20:11:18 2014

@<TRIPOS>MOLECULE
4BNI_4_CAVITY_N1_6.mol2
   72     0     5     0     0
SMALL
NO_CHARGES


@<TRIPOS>ATOM
      1 CA        -44.2271  -37.6433   30.0867 C.3       4 GLY6        0.0000 
      2 OG        -42.4606  -37.1552   31.9283 O.2       1 SER1        0.0000 
      3 CZ        -41.0569  -37.6836   31.9436 C.ar      3 PHE5        0.0000 
      4 OG        -44.3726  -37.9878   31.5394 O.2       1 SER1        0.0000 
      5 CZ        -42.9688  -38.5162   31.5547 C.ar      3 PHE5        0.0000 
      6 N         -40.5984  -27.7892   37.4337 N.2       2 ALA2        0.0000 
      7 CZ        -39.1946  -28.3175   37.4490 C.ar      3 PHE5        0.0000 
      8 N         -41.1066  -29.1501   37.0601 N.2       2 ALA2        0.0000 
      9 CZ        -39.7028  -29.6785   37.0754 C.ar      3 PHE5        0.0000 
     10 CA        -43.0185  -29.9828   36.6712 C.3       4 GLY6        0.0000 
     11 CA        -41.6147  -30.5111   36.6865 C.3       4 GLY6        0.0000 
     12 CZ        -40.2109  -31.0394   36.7018 C.ar      3 PHE5        0.0000 
     13 CA        -42.1228  -31.8720   36.3128 C.3       4 GLY6        0.0000 
     14 CA        -40.7190  -32.4004   36.3281 C.3       4 GLY6        0.0000 
     15 CZ        -39.3153  -32.9287   36.3434 C.ar      3 PHE5        0.0000 
     16 CA        -39.8234  -34.2897   35.9698 C.3       4 GLY6        0.0000 
     17 CA        -39.2684  -28.3345   43.6332 C.3       4 GLY6        0.0000 
     18 CA        -41.1803  -29.1671   43.2443 C.3       4 GLY6        0.0000 
     19 N         -39.7766  -29.6955   43.2596 N.2       2 ALA2        0.0000 
     20 CA        -40.5267  -27.4617   42.1653 C.3       4 GLY6        0.0000 
     21 OG        -39.1229  -27.9900   42.1806 O.2       1 SER1        0.0000 
     22 CA        -41.0349  -28.8226   41.7917 C.3       4 GLY6        0.0000 
     23 CA        -39.6311  -29.3510   41.8070 C.3       4 GLY6        0.0000 
     24 CA        -41.5430  -30.1836   41.4180 C.3       4 GLY6        0.0000 
     25 CZ        -40.2358  -26.7727   39.2600 C.ar      3 PHE5        0.0000 
     26 CZ        -42.1477  -27.6053   38.8711 C.ar      3 PHE5        0.0000 
     27 N         -40.7439  -28.1337   38.8864 N.2       2 ALA2        0.0000 
     28 CZ        -39.3401  -28.6620   38.9017 C.ar      3 PHE5        0.0000 
     29 CZ        -42.6558  -28.9663   38.4974 C.ar      3 PHE5        0.0000 
     30 CZ        -41.2520  -29.4946   38.5127 C.ar      3 PHE5        0.0000 
     31 CZ        -39.8482  -30.0230   38.5280 C.ar      3 PHE5        0.0000 
     32 CA        -41.7602  -30.8556   38.1391 C.3       4 GLY6        0.0000 
     33 CA        -39.9689  -34.6342   37.4224 C.3       4 GLY6        0.0000 
     34 N         -42.3890  -36.8277   36.6599 N.2       2 ALA2        0.0000 
     35 N         -44.3009  -37.6603   36.2709 N.2       2 ALA2        0.0000 
     36 CA        -42.8971  -38.1887   36.2862 C.3       4 GLY6        0.0000 
     37 N         -41.4933  -38.7170   36.3015 N.2       2 ALA2        0.0000 
     38 CA        -43.4052  -39.5496   35.9126 C.3       4 GLY6        0.0000 
     39 N         -42.0014  -40.0780   35.9279 N.2       2 ALA2        0.0000 
     40 OG        -40.3812  -27.1172   40.7126 O.2       1 SER1        0.0000 
     41 OG        -38.9774  -27.6455   40.7279 O.2       1 SER1        0.0000 
     42 CZ        -40.8894  -28.4782   40.3390 C.ar      3 PHE5        0.0000 
     43 CZ        -39.4856  -29.0065   40.3543 C.ar      3 PHE5        0.0000 
     44 CZ        -41.3975  -29.8391   39.9654 C.ar      3 PHE5        0.0000 
     45 CA        -39.9937  -30.3674   39.9807 C.3       4 GLY6        0.0000 
     46 CA        -43.0426  -38.5332   37.7389 C.3       4 GLY6        0.0000 
     47 N         -41.7353  -35.1223   35.5809 N.2       2 ALA2        0.0000 
     48 CA        -40.3315  -35.6506   35.5962 C.3       4 GLY6        0.0000 
     49 N         -42.2435  -36.4832   35.2072 N.2       2 ALA2        0.0000 
     50 N         -40.8397  -37.0116   35.2225 N.2       2 ALA2        0.0000 
     51 CA        -44.1554  -37.3159   34.8183 C.3       4 GLY6        0.0000 
     52 DU        -42.7516  -37.8442   34.8336 H         5 CUB7        0.0000 
     53 N         -41.3478  -38.3725   34.8489 N.2       2 ALA2        0.0000 
     54 DU        -44.6635  -38.6768   34.4447 H         5 CUB7        0.0000 
     55 CZ        -43.2598  -39.2051   34.4600 C.ar      3 PHE5        0.0000 
     56 CZ        -41.8560  -39.7335   34.4753 C.ar      3 PHE5        0.0000 
     57 CZ        -39.5573  -29.3340   35.6228 C.ar      3 PHE5        0.0000 
     58 CZ        -41.4692  -30.1666   35.2338 C.ar      3 PHE5        0.0000 
     59 OG        -40.0654  -30.6949   35.2491 O.2       1 SER1        0.0000 
     60 OG        -38.6616  -31.2233   35.2644 O.2       1 SER1        0.0000 
     61 CA        -41.9774  -31.5276   34.8602 C.3       4 GLY6        0.0000 
     62 OG        -40.5736  -32.0559   34.8755 O.2       1 SER1        0.0000 
     63 OG        -39.1698  -32.5842   34.8908 O.2       1 SER1        0.0000 
     64 CA        -41.0817  -33.4168   34.5019 C.3       4 GLY6        0.0000 
     65 CA        -39.6779  -33.9452   34.5172 C.3       4 GLY6        0.0000 
     66 CA        -40.1861  -35.3061   34.1435 C.3       4 GLY6        0.0000 
     67 OG        -42.0980  -36.1387   33.7546 O.2       1 SER1        0.0000 
     68 CA        -40.6942  -36.6671   33.7699 C.3       4 GLY6        0.0000 
     69 OG        -42.6061  -37.4997   33.3810 O.2       1 SER1        0.0000 
     70 CZ        -41.2023  -38.0280   33.3963 C.ar      3 PHE5        0.0000 
     71 OG        -44.5181  -38.3323   32.9920 O.2       1 SER1        0.0000 
     72 CZ        -43.1143  -38.8607   33.0073 C.ar      3 PHE5        0.0000 
@<TRIPOS>BOND
@<TRIPOS>SUBSTRUCTURE
     1 SER1        2 GROUP   
     2 ALA2        6 GROUP   
     3 PHE5        3 GROUP   
     4 GLY6        1 GROUP   
     5 CUB7       52 GROUP   
@<TRIPOS>SET

