#    Name: 4bni_P1F_4_INTS_M
#    Modification time : Tue Mar 25 08:00:38 2014

@<TRIPOS>MOLECULE
4bni_P1F_4_INTS_M
   82     0     9     0     0
SMALL
NO_CHARGES


@<TRIPOS>ATOM
      1 N         -37.3105  -30.2385   35.2015 N.am      2 SEC2        0.0000 
      2 N         -38.4080  -30.3640   34.6570 N.am      8 SEL2        0.0000 
      3 N         -36.2130  -30.1130   35.7460 N.am      5 SEP2        0.0000 
      4 O         -38.4115  -30.5420   33.4090 O.2       1 ALC1        0.0000 
      5 O         -38.4080  -30.3640   34.6570 O.2       7 ALL1        0.0000 
      6 O         -38.4150  -30.7200   32.1610 O.2       4 ALP1        0.0000 
      7 CA        -37.8910  -27.9625   36.0650 C.3       3 GLC5        0.0000 
      8 CA        -39.4970  -29.1640   36.3960 C.3       9 GLL5        0.0000 
      9 CA        -36.2850  -26.7610   35.7340 C.3       6 GLP5        0.0000 
     10 CA        -39.3045  -26.3385   38.4045 C.3       3 GLC5        0.0000 
     11 CA        -40.6450  -27.8510   38.2600 C.3       9 GLL5        0.0000 
     12 CA        -37.9640  -24.8260   38.5490 C.3       6 GLP5        0.0000 
     13 CA        -41.7580  -26.1230   38.9110 C.3       3 GLC5        0.0000 
     14 CA        -42.8710  -24.3950   39.5620 C.3       6 GLP5        0.0000 
     15 CA        -40.5750  -27.0705   36.4800 C.3       3 GLC5        0.0000 
     16 CA        -40.5050  -26.2900   34.7000 C.3       6 GLP5        0.0000 
     17 CA        -38.4780  -27.6485   39.5150 C.3       3 GLC5        0.0000 
     18 CA        -40.2160  -28.6040   39.5140 C.3       9 GLL5        0.0000 
     19 CA        -36.7400  -26.6930   39.5160 C.3       6 GLP5        0.0000 
     20 CA        -38.6315  -29.7350   38.7055 C.3       3 GLC5        0.0000 
     21 CA        -37.0470  -30.8660   37.8970 C.3       6 GLP5        0.0000 
     22 CA        -40.2045  -30.6670   40.3235 C.3       3 GLC5        0.0000 
     23 CA        -40.1930  -32.7300   41.1330 C.3       6 GLP5        0.0000 
     24 CA        -38.9465  -26.6615   40.2105 C.3       3 GLC5        0.0000 
     25 CA        -40.3430  -27.7490   40.7660 C.3       9 GLL5        0.0000 
     26 CA        -37.5500  -25.5740   39.6550 C.3       6 GLP5        0.0000 
     27 CA        -41.6070  -26.0720   40.1640 C.3       3 GLC5        0.0000 
     28 CA        -40.6930  -26.2775   42.0495 C.3       3 GLC5        0.0000 
     29 CA        -41.0430  -24.8060   43.3330 C.3       6 GLP5        0.0000 
     30 CA        -42.1520  -29.0720   42.7905 C.3       3 GLC5        0.0000 
     31 CA        -40.3170  -28.6760   41.9630 C.3       9 GLL5        0.0000 
     32 CA        -43.9870  -29.4680   43.6180 C.3       6 GLP5        0.0000 
     33 CA        -40.8735  -27.1540   43.2550 C.3       3 GLC5        0.0000 
     34 CA        -41.4300  -25.6320   44.5470 C.3       6 GLP5        0.0000 
     35 CA        -37.8235  -27.8755   40.9355 C.3       3 GLC5        0.0000 
     36 CA        -38.9070  -29.0580   42.3550 C.3       9 GLL5        0.0000 
     37 CA        -37.8435  -30.1050   40.8030 C.3       3 GLC5        0.0000 
     38 CA        -36.7800  -31.1520   39.2510 C.3       6 GLP5        0.0000 
     39 CA        -38.3765  -31.3505   44.6495 C.3       3 GLC5        0.0000 
     40 CA        -38.9060  -29.5520   43.8080 C.3       9 GLL5        0.0000 
     41 CA        -37.8470  -33.1490   45.4910 C.3       6 GLP5        0.0000 
     42 CA        -43.7020  -29.9740   37.0135 C.3       3 GLC5        0.0000 
     43 CA        -41.8350  -29.5390   36.8220 C.3       9 GLL5        0.0000 
     44 CA        -45.5690  -30.4090   37.2050 C.3       6 GLP5        0.0000 
     45 CA        -43.4635  -31.1565   36.5200 C.3       3 GLC5        0.0000 
     46 CA        -41.8760  -30.4570   35.7820 C.3       9 GLL5        0.0000 
     47 CA        -45.0510  -31.8560   37.2580 C.3       6 GLP5        0.0000 
     48 O         -42.5075  -34.1895   32.1840 O.2       1 ALC1        0.0000 
     49 O         -41.0530  -33.4830   32.0030 O.2       7 ALL1        0.0000 
     50 O         -43.9620  -34.8960   32.3650 O.2       4 ALP1        0.0000 
     51 CA        -39.8608  -30.3317   33.4207 C.3       3 GLC5        0.0000 
     52 CA        -40.7090  -30.7950   35.1070 C.3       9 GLL5        0.0000 
     53 CA        -39.6020  -30.2130   31.6010 C.3       6 GLP5        0.0000 
     54 CA        -42.3489  -28.2446   40.1172 C.3       3 GLC5        0.0000 
     55 CA        -44.3110  -28.5010   40.4080 C.3       6 GLP5        0.0000 
     56 CA        -37.2692  -28.4380   43.4727 C.3       3 GLC5        0.0000 
     57 CA        -35.6320  -27.5710   43.8640 C.3       6 GLP5        0.0000 
     58 CA        -39.5358  -27.6475   44.2107 C.3       3 GLC5        0.0000 
     59 CA        -40.1650  -25.9900   45.3400 C.3       6 GLP5        0.0000 
     60 CA        -39.7260  -30.9697   42.0583 C.3       3 GLC5        0.0000 
     61 CA        -41.6573  -31.6465   37.6650 C.3       3 GLC5        0.0000 
     62 CA        -41.4590  -33.2950   39.0280 C.3       6 GLP5        0.0000 
     63 CA        -42.0573  -33.6675   34.2293 C.3       3 GLC5        0.0000 
     64 CA        -39.9800  -33.4010   35.5240 C.3       9 GLL5        0.0000 
     65 CA        -43.9010  -34.1440   33.5610 C.3       6 GLP5        0.0000 
     66 CA        -40.0620  -31.8230   32.6680 C.3       3 GLC5        0.0000 
     67 CA        -40.4470  -32.9810   34.2710 C.3       9 GLL5        0.0000 
     68 CA        -38.1037  -34.7182   34.7993 C.3       3 GLC5        0.0000 
     69 CA        -36.3940  -35.3650   33.9830 C.3       6 GLP5        0.0000 
     70 CA        -40.6362  -33.6833   37.3217 C.3       3 GLC5        0.0000 
     71 CA        -39.6470  -34.7420   35.7070 C.3       9 GLL5        0.0000 
     72 CA        -39.6347  -36.1842   36.8983 C.3       3 GLC5        0.0000 
     73 CA        -39.5590  -37.1770   38.6240 C.3       6 GLP5        0.0000 
     74 CA        -39.1335  -36.7150   32.8932 C.3       3 GLC5        0.0000 
     75 CA        -39.7740  -35.6410   34.6380 C.3       9 GLL5        0.0000 
     76 CA        -38.2380  -37.9930   31.7690 C.3       6 GLP5        0.0000 
     77 CA        -38.2115  -35.4010   34.0002 C.3       3 GLC5        0.0000 
     78 CA        -40.2840  -35.2330   33.3970 C.3       9 GLL5        0.0000 
     79 CA        -39.0718  -34.1265   32.0130 C.3       3 GLC5        0.0000 
     80 CA        -37.7030  -33.6940   30.7280 C.3       6 GLP5        0.0000 
     81 CA        -42.1707  -34.3515   33.4295 C.3       3 GLC5        0.0000 
     82 CA        -40.5970  -33.8850   33.1990 C.3       9 GLL5        0.0000 
@<TRIPOS>BOND
@<TRIPOS>SUBSTRUCTURE
     1 ALC1        4 GROUP        1 X    ALC  0     ROOT ALC X 1
     2 SEC2        1 GROUP        1 X    SEC  0     **** SEC X 2
     3 GLC5        7 GROUP        1 X    GLC  0     **** GLC X 6
     4 ALP1        6 GROUP        1 Y    ALP  0     ROOT ALP Y 8
     5 SEP2        3 GROUP        1 Y    SEP  0     **** SEP Y 9
     6 GLP5        9 GROUP        1 Y    GLP  0     **** GLP Y 13
     7 ALL1        5 GROUP        1 Z    ALL  0     ROOT ALL Z 15
     8 SEL2        2 GROUP        1 Z    SEL  0     **** SEL Z 16
     9 GLL5        8 GROUP        1 Z    GLL  0     **** GLL Z 20
@<TRIPOS>SET

