#    Name: 4bni_P1F_4_ligand
#    Modification time : Tue Mar 25 08:00:38 2014

@<TRIPOS>MOLECULE
4bni_P1F_4_ligand
   44    45     1     0     0
SMALL
NO_CHARGES


@<TRIPOS>ATOM
      1 O17       -38.4080  -30.3640   34.6570 O.3       1 P1F1257     0.0000 
      2 C6        -39.5300  -30.1060   35.3740 C.ar      1 P1F1257     0.0000 
      3 C1        -39.4970  -29.1640   36.3960 C.ar      1 P1F1257     0.0000 
      4 C2        -40.6550  -28.8660   37.1190 C.ar      1 P1F1257     0.0000 
      5 C16       -40.6450  -27.8510   38.2600 C.3       1 P1F1257     0.0000 
      6 C17       -40.2160  -28.6040   39.5140 C.3       1 P1F1257     0.0000 
      7 C18       -40.3430  -27.7490   40.7660 C.3       1 P1F1257     0.0000 
      8 C19       -40.3170  -28.6760   41.9630 C.3       1 P1F1257     0.0000 
      9 C20       -38.9070  -29.0580   42.3550 C.3       1 P1F1257     0.0000 
     10 C21       -38.9060  -29.5520   43.8080 C.3       1 P1F1257     0.0000 
     11 C3        -41.8350  -29.5390   36.8220 C.ar      1 P1F1257     0.0000 
     12 C4        -41.8760  -30.4570   35.7820 C.ar      1 P1F1257     0.0000 
     13 C5        -40.7090  -30.7950   35.1070 C.ar      1 P1F1257     0.0000 
     14 O7        -40.8030  -31.6810   34.0750 O.3       1 P1F1257     0.0000 
     15 C8        -40.4470  -32.9810   34.2710 C.ar      1 P1F1257     0.0000 
     16 C9        -39.9800  -33.4010   35.5240 C.ar      1 P1F1257     0.0000 
     17 C10       -39.6470  -34.7420   35.7070 C.ar      1 P1F1257     0.0000 
     18 C11       -39.7740  -35.6410   34.6380 C.ar      1 P1F1257     0.0000 
     19 C12       -40.2840  -35.2330   33.3970 C.ar      1 P1F1257     0.0000 
     20 C13       -40.5970  -33.8850   33.1990 C.ar      1 P1F1257     0.0000 
     21 NAB       -41.0530  -33.4830   32.0030 N.pl3     1 P1F1257     0.0000 
     22 H         -38.6163  -28.6818   36.6237 H         1 P1F1257     0.0000 
     23 H         -41.6318  -27.4541   38.3966 H         1 P1F1257     0.0000 
     24 H         -39.9370  -27.0750   38.0445 H         1 P1F1257     0.0000 
     25 H         -39.1752  -28.9254   39.4008 H         1 P1F1257     0.0000 
     26 H         -40.8366  -29.4996   39.6244 H         1 P1F1257     0.0000 
     27 H         -41.2773  -27.2115   40.7412 H         1 P1F1257     0.0000 
     28 H         -39.5133  -27.0624   40.8183 H         1 P1F1257     0.0000 
     29 H         -40.8865  -29.5841   41.7288 H         1 P1F1257     0.0000 
     30 H         -40.8081  -28.1837   42.8117 H         1 P1F1257     0.0000 
     31 H         -38.2560  -28.1969   42.2748 H         1 P1F1257     0.0000 
     32 H         -38.5480  -29.8517   41.7124 H         1 P1F1257     0.0000 
     33 H         -42.6835  -29.3542   37.3782 H         1 P1F1257     0.0000 
     34 H         -42.7698  -30.8879   35.5099 H         1 P1F1257     0.0000 
     35 H         -39.8865  -32.7329   36.2878 H         1 P1F1257     0.0000 
     36 H         -39.3111  -35.0729   36.6154 H         1 P1F1257     0.0000 
     37 H         -39.4854  -36.6256   34.7677 H         1 P1F1257     0.0000 
     38 H         -40.4240  -35.9122   32.6501 H         1 P1F1257     0.0000 
     39 H         -40.3665  -33.1348   31.3647 H         1 P1F1257     0.0000 
     40 H         -42.0386  -33.5675   31.8568 H         1 P1F1257     0.0000 
     41 H         -37.9893  -29.8121   44.1112 H         1 P1F1257     0.0000 
     42 H         -39.2353  -28.8498   44.4392 H         1 P1F1257     0.0000 
     43 H         -39.4927  -30.3528   43.9284 H         1 P1F1257     0.0000 
     44 H         -38.7144  -30.4148   33.7065 H         1 P1F1257     0.0000 
@<TRIPOS>BOND
     1    2    1 1    
     2   44    1 1    
     3    3    2 ar   
     4   13    2 ar   
     5    4    3 ar   
     6   22    3 1    
     7    5    4 1    
     8   11    4 ar   
     9    6    5 1    
    10   23    5 1    
    11   24    5 1    
    12    7    6 1    
    13   25    6 1    
    14   26    6 1    
    15    8    7 1    
    16   27    7 1    
    17   28    7 1    
    18    9    8 1    
    19   29    8 1    
    20   30    8 1    
    21   10    9 1    
    22   31    9 1    
    23   32    9 1    
    24   41   10 1    
    25   42   10 1    
    26   43   10 1    
    27   12   11 ar   
    28   33   11 1    
    29   13   12 ar   
    30   34   12 1    
    31   14   13 1    
    32   15   14 1    
    33   16   15 ar   
    34   20   15 ar   
    35   17   16 ar   
    36   35   16 1    
    37   18   17 ar   
    38   36   17 1    
    39   19   18 ar   
    40   37   18 1    
    41   20   19 ar   
    42   38   19 1    
    43   21   20 1    
    44   39   21 1    
    45   40   21 1    
@<TRIPOS>SUBSTRUCTURE
     1 P1F1257     1 GROUP   
@<TRIPOS>SET

