#    Name: 4l1f_COS_1_INTS_M
#    Modification time : Tue Mar 25 09:23:28 2014

@<TRIPOS>MOLECULE
4l1f_COS_1_INTS_M
   93     0    12     0     0
SMALL
NO_CHARGES


@<TRIPOS>ATOM
      1 CA         91.9980   17.6140   23.8235 C.3       4 GLC5        0.0000 
      2 CA         92.3700   15.7740   22.6580 C.3      12 GLL5        0.0000 
      3 CA         91.6260   19.4540   24.9890 C.3       8 GLP5        0.0000 
      4 CA         94.2900   16.5435   22.0050 C.3       4 GLC5        0.0000 
      5 CA         96.2100   17.3130   21.3520 C.3       8 GLP5        0.0000 
      6 CA         91.8640   17.3600   21.6600 C.3       4 GLC5        0.0000 
      7 CA         91.3580   18.9460   20.6620 C.3       8 GLP5        0.0000 
      8 O          93.4030   15.1865   18.4645 O.2       1 ALC1        0.0000 
      9 O          93.8710   14.5820   19.5760 O.2       9 ALL1        0.0000 
     10 O          92.9350   15.7910   17.3530 O.2       5 ALP1        0.0000 
     11 CA         96.9155   15.5720   25.6230 C.3       4 GLC5        0.0000 
     12 CA         95.2390   14.1260   25.4760 C.3      12 GLL5        0.0000 
     13 CA         98.5920   17.0180   25.7700 C.3       8 GLP5        0.0000 
     14 CA         97.6975   15.4385   26.4915 C.3       4 GLC5        0.0000 
     15 CA         96.8030   13.8590   27.2130 C.3      12 GLL5        0.0000 
     16 CA         98.7110   14.5705   26.0640 C.3       4 GLC5        0.0000 
     17 CA         98.0930   13.0220   27.0950 C.3      12 GLL5        0.0000 
     18 CA         99.3290   16.1190   25.0330 C.3       8 GLP5        0.0000 
     19 NZ         98.9200    9.6280   23.2605 N.4       3 LYC4        0.0000 
     20 NZ         98.7710   10.3900   24.3150 N.4      11 LYL4        0.0000 
     21 NZ         99.8200    7.7750   22.3660 N.4       7 LYP4        0.0000 
     22 N          98.9200    9.6280   23.2605 N.am      2 SEC2        0.0000 
     23 N          98.7710   10.3900   24.3150 N.am     10 SEL2        0.0000 
     24 N          99.0690    8.8660   22.2060 N.am      6 SEP2        0.0000 
     25 NZ        101.4210    8.9050   23.9315 N.4       3 LYC4        0.0000 
     26 NZ        101.9830    9.9910   24.7130 N.4      11 LYL4        0.0000 
     27 N         101.4210    8.9050   23.9315 N.am      2 SEC2        0.0000 
     28 N         101.9830    9.9910   24.7130 N.am     10 SEL2        0.0000 
     29 N         100.8590    7.8190   23.1500 N.am      6 SEP2        0.0000 
     30 CA        105.2360   12.2220   19.9755 C.3       4 GLC5        0.0000 
     31 CA        103.2680   11.8340   20.8890 C.3      12 GLL5        0.0000 
     32 CA        107.2040   12.6100   19.0620 C.3       8 GLP5        0.0000 
     33 CA        102.9130   12.0335   18.6850 C.3       4 GLC5        0.0000 
     34 CA        102.5580   12.2330   16.4810 C.3       8 GLP5        0.0000 
     35 CA        104.9965   11.6945   21.8440 C.3       4 GLC5        0.0000 
     36 CA        106.7250   11.5550   22.7990 C.3       8 GLP5        0.0000 
     37 CA        101.6835   12.0420   18.2590 C.3       4 GLC5        0.0000 
     38 CA        100.8090   11.8510   20.0370 C.3      12 GLL5        0.0000 
     39 CA         99.7610   11.1465   18.3420 C.3       4 GLC5        0.0000 
     40 CA         98.7130   10.4420   16.6470 C.3       8 GLP5        0.0000 
     41 CA        101.2155   15.2615   22.8115 C.3       4 GLC5        0.0000 
     42 CA        101.9050   14.0170   21.1140 C.3      12 GLL5        0.0000 
     43 CA        100.5260   16.5060   24.5090 C.3       8 GLP5        0.0000 
     44 CA        100.3305   15.1655   21.1290 C.3       4 GLC5        0.0000 
     45 CA         98.7560   16.3140   21.1440 C.3       8 GLP5        0.0000 
     46 N         100.7975   15.1440   17.6085 N.am      2 SEC2        0.0000 
     47 N         101.2990   14.7620   19.0250 N.am     10 SEL2        0.0000 
     48 N         100.2960   15.5260   16.1920 N.am      6 SEP2        0.0000 
     49 O         104.6645   14.8070   20.3415 O.2       1 ALC1        0.0000 
     50 O         103.5100   14.9800   19.5250 O.2       9 ALL1        0.0000 
     51 O         105.8190   14.6340   21.1580 O.2       5 ALP1        0.0000 
     52 CA        105.7570   15.3285   18.9345 C.3       4 GLC5        0.0000 
     53 CA        103.8360   15.6490   18.2350 C.3      12 GLL5        0.0000 
     54 CA        107.6780   15.0080   19.6340 C.3       8 GLP5        0.0000 
     55 CA        104.0510   15.8220   16.1300 C.3       4 GLC5        0.0000 
     56 CA        104.2660   15.9950   14.0250 C.3       8 GLP5        0.0000 
     57 CA        103.1970   13.9410   17.3580 C.3       4 GLC5        0.0000 
     58 CA        103.9490   17.6550   20.3685 C.3       4 GLC5        0.0000 
     59 CA        103.6610   17.1450   18.4920 C.3      12 GLL5        0.0000 
     60 CA        104.2370   18.1650   22.2450 C.3       8 GLP5        0.0000 
     61 CA        102.0430   18.3840   18.1585 C.3       4 GLC5        0.0000 
     62 CA        100.4250   19.6230   17.8250 C.3       8 GLP5        0.0000 
     63 N         101.5325   16.4255   16.2910 N.am      2 SEC2        0.0000 
     64 N         102.7690   17.3250   16.3900 N.am     10 SEL2        0.0000 
     65 CA        104.0890   17.9360   14.9455 C.3       4 GLC5        0.0000 
     66 CA        103.9120   19.8770   15.8660 C.3      12 GLL5        0.0000 
     67 CA        102.5940   22.7270   16.9500 C.3       4 GLC5        0.0000 
     68 CA        104.0580   21.3870   16.1350 C.3      12 GLL5        0.0000 
     69 CA        101.1300   24.0670   17.7650 C.3       8 GLP5        0.0000 
     70 CA        103.3920   21.4710   18.2315 C.3       4 GLC5        0.0000 
     71 CA        102.7260   21.5550   20.3280 C.3       8 GLP5        0.0000 
     72 CA        102.1155   23.8785   13.7660 C.3       4 GLC5        0.0000 
     73 CA        103.4330   22.4930   14.8250 C.3      12 GLL5        0.0000 
     74 CA        100.7980   25.2640   12.7070 C.3       8 GLP5        0.0000 
     75 CA        102.4395   23.8415   15.9495 C.3       4 GLC5        0.0000 
     76 CA        101.4460   25.1900   17.0740 C.3       8 GLP5        0.0000 
     77 CA        101.9120   21.5510   15.1850 C.3       4 GLC5        0.0000 
     78 CA        100.3910   20.6090   15.5450 C.3       8 GLP5        0.0000 
     79 CA        103.2085   20.8110   13.6760 C.3       4 GLC5        0.0000 
     80 CA        102.9840   19.1290   12.5270 C.3       8 GLP5        0.0000 
     81 CA        105.6730   21.2370   11.8630 C.3       4 GLC5        0.0000 
     82 CA        104.6930   21.9320   13.3200 C.3      12 GLL5        0.0000 
     83 CA        106.6530   20.5420   10.4060 C.3       8 GLP5        0.0000 
     84 CA        103.8385   20.5305   12.9235 C.3       4 GLC5        0.0000 
     85 CA        105.8290   22.8165   13.9710 C.3       4 GLC5        0.0000 
     86 CA        106.9650   23.7010   14.6220 C.3       8 GLP5        0.0000 
     87 CA         95.1302   15.9724   21.5390 C.3       4 GLC5        0.0000 
     88 CA         94.6010   14.2890   21.8760 C.3      12 GLL5        0.0000 
     89 CA         98.5870   14.9467   27.9680 C.3       4 GLC5        0.0000 
     90 CA         99.7260   16.4530   28.7820 C.3       8 GLP5        0.0000 
     91 CA        102.1880   20.6205   15.7728 C.3       4 GLC5        0.0000 
     92 CA        103.4845   19.8805   14.2637 C.3       4 GLC5        0.0000 
     93 CA        105.3553   22.8205   15.0510 C.3       4 GLC5        0.0000 
@<TRIPOS>BOND
@<TRIPOS>SUBSTRUCTURE
     1 ALC1        8 GROUP        1 X    ALC  0     ROOT ALC X 1
     2 SEC2       22 GROUP        1 X    SEC  0     **** SEC X 2
     3 LYC4       19 GROUP        1 X    LYC  0     **** LYC X 4
     4 GLC5        1 GROUP        1 X    GLC  0     **** GLC X 6
     5 ALP1       10 GROUP        1 Y    ALP  0     ROOT ALP Y 8
     6 SEP2       24 GROUP        1 Y    SEP  0     **** SEP Y 9
     7 LYP4       21 GROUP        1 Y    LYP  0     **** LYP Y 11
     8 GLP5        3 GROUP        1 Y    GLP  0     **** GLP Y 13
     9 ALL1        9 GROUP        1 Z    ALL  0     ROOT ALL Z 15
    10 SEL2       23 GROUP        1 Z    SEL  0     **** SEL Z 16
    11 LYL4       20 GROUP        1 Z    LYL  0     **** LYL Z 18
    12 GLL5        2 GROUP        1 Z    GLL  0     **** GLL Z 20
@<TRIPOS>SET

