#    Name: 4l1f_COS_1_ligand
#    Modification time : Tue Mar 25 09:23:29 2014

@<TRIPOS>MOLECULE
4l1f_COS_1_ligand
   80    82     1     0     0
SMALL
NO_CHARGES


@<TRIPOS>ATOM
      1 N1A        92.6000   15.5320   21.3400 N.ar      1 COS402      0.0000 
      2 C2A        92.3700   15.7740   22.6580 C.ar      1 COS402      0.0000 
      3 N3A        93.1980   15.3230   23.6270 N.ar      1 COS402      0.0000 
      4 C4A        94.2930   14.6060   23.2760 C.ar      1 COS402      0.0000 
      5 C5A        94.6010   14.2890   21.8760 C.ar      1 COS402      0.0000 
      6 C6A        93.6540   14.8160   20.8760 C.ar      1 COS402      0.0000 
      7 N6A        93.8710   14.5820   19.5760 N.pl3     1 COS402      0.0000 
      8 N7A        95.7570   13.5850   21.8640 N.2       1 COS402      0.0000 
      9 C8A        96.1450   13.4180   23.1650 C.2       1 COS402      0.0000 
     10 N9A        95.2590   14.0480   23.9850 N.pl3     1 COS402      0.0000 
     11 C1B        95.2390   14.1260   25.4760 C.3       1 COS402      0.0000 
     12 C2B        95.0800   12.7140   26.0630 C.3       1 COS402      0.0000 
     13 O2B        93.7500   12.2120   26.0650 O.3       1 COS402      0.0000 
     14 C3B        95.6390   12.9110   27.4520 C.3       1 COS402      0.0000 
     15 O3B        94.7840   13.7140   28.2690 O.3       1 COS402      0.0000 
     16 P3B        93.9420   13.1100   29.5240 P.3       1 COS402      0.0000 
     17 O7A        93.4620   14.4440   30.0790 O.co2     1 COS402      0.0000 
     18 O8A        92.8180   12.3110   28.8950 O.co2     1 COS402      0.0000 
     19 O9A        94.9520   12.2510   30.2680 O.co2     1 COS402      0.0000 
     20 C4B        96.8030   13.8590   27.2130 C.3       1 COS402      0.0000 
     21 O4B        96.4630   14.6020   26.0010 O.3       1 COS402      0.0000 
     22 C5B        98.0930   13.0220   27.0950 C.3       1 COS402      0.0000 
     23 O5B        98.0800   12.2850   25.8480 O.3       1 COS402      0.0000 
     24 P1A        99.1840   11.1260   25.6040 P.3       1 COS402      0.0000 
     25 O1A        98.7710   10.3900   24.3150 O.co2     1 COS402      0.0000 
     26 O2A        99.5070   10.4660   26.9010 O.co2     1 COS402      0.0000 
     27 O3A       100.4930   12.0630   25.2930 O.3       1 COS402      0.0000 
     28 P2A       101.9540   11.4860   24.8570 P.3       1 COS402      0.0000 
     29 O4A       101.9830    9.9910   24.7130 O.co2     1 COS402      0.0000 
     30 O5A       103.0330   12.0760   25.7660 O.co2     1 COS402      0.0000 
     31 O6A       102.1930   12.2340   23.4270 O.3       1 COS402      0.0000 
     32 CBP       101.8600   12.4260   21.0110 C.3       1 COS402      0.0000 
     33 CCP       101.3660   11.8680   22.3400 C.3       1 COS402      0.0000 
     34 CDP       103.2680   11.8340   20.8890 C.3       1 COS402      0.0000 
     35 CEP       100.8090   11.8510   20.0370 C.3       1 COS402      0.0000 
     36 CAP       101.9050   14.0170   21.1140 C.3       1 COS402      0.0000 
     37 OAP       102.8450   14.4540   22.1230 O.3       1 COS402      0.0000 
     38 C9P       102.2500   14.6200   19.7950 C.2       1 COS402      0.0000 
     39 O9P       101.2990   14.7620   19.0250 O.2       1 COS402      0.0000 
     40 N8P       103.5100   14.9800   19.5250 N.am      1 COS402      0.0000 
     41 C7P       103.8360   15.6490   18.2350 C.3       1 COS402      0.0000 
     42 C6P       103.6610   17.1450   18.4920 C.3       1 COS402      0.0000 
     43 C5P       103.4990   17.8610   17.2140 C.2       1 COS402      0.0000 
     44 O5P       102.7690   17.3250   16.3900 O.2       1 COS402      0.0000 
     45 N4P       104.0840   19.0510   17.0760 N.am      1 COS402      0.0000 
     46 C3P       103.9120   19.8770   15.8660 C.3       1 COS402      0.0000 
     47 C2P       104.0580   21.3870   16.1350 C.3       1 COS402      0.0000 
     48 S1P       103.4330   22.4930   14.8250 S.3       1 COS402      0.0000 
     49 S'P       104.6930   21.9320   13.3200 S.3       1 COS402      0.0000 
     50 H          91.5174   16.3318   22.9299 H         1 COS402      0.0000 
     51 H          93.5101   15.2640   18.9399 H         1 COS402      0.0000 
     52 H          94.3746   13.7462   19.3574 H         1 COS402      0.0000 
     53 H          96.9263   12.9288   23.4535 H         1 COS402      0.0000 
     54 H          94.4083   14.7048   25.8115 H         1 COS402      0.0000 
     55 H          95.7813   12.0818   25.5319 H         1 COS402      0.0000 
     56 H          95.9752   12.0557   27.8705 H         1 COS402      0.0000 
     57 H          96.8764   14.5072   28.0584 H         1 COS402      0.0000 
     58 H          98.1352   12.3524   27.9556 H         1 COS402      0.0000 
     59 H          98.9405   13.7076   27.1463 H         1 COS402      0.0000 
     60 H         100.3230   12.2235   22.4803 H         1 COS402      0.0000 
     61 H         101.2975   10.7648   22.2300 H         1 COS402      0.0000 
     62 H         100.8910   14.3263   21.3840 H         1 COS402      0.0000 
     63 H         104.2973   14.8253   20.1608 H         1 COS402      0.0000 
     64 H         103.1537   15.3430   17.4671 H         1 COS402      0.0000 
     65 H         104.8531   15.4578   17.9561 H         1 COS402      0.0000 
     66 H         104.5393   17.5088   19.0283 H         1 COS402      0.0000 
     67 H         102.7841   17.2867   19.1263 H         1 COS402      0.0000 
     68 H         104.6939   19.4637   17.8127 H         1 COS402      0.0000 
     69 H         102.9159   19.7073   15.4217 H         1 COS402      0.0000 
     70 H         104.6547   19.5967   15.0990 H         1 COS402      0.0000 
     71 H         105.0910   21.7046   16.2272 H         1 COS402      0.0000 
     72 H         103.4971   21.7208   17.0013 H         1 COS402      0.0000 
     73 H         103.7210   12.1239   20.0459 H         1 COS402      0.0000 
     74 H         103.8555   12.1135   21.6484 H         1 COS402      0.0000 
     75 H         103.2513   10.8342   20.8839 H         1 COS402      0.0000 
     76 H         101.0761   11.9827   19.0824 H         1 COS402      0.0000 
     77 H         100.6761   10.8690   20.1714 H         1 COS402      0.0000 
     78 H          99.9164   12.2864   20.1544 H         1 COS402      0.0000 
     79 H          93.4542   12.2670   27.0187 H         1 COS402      0.0000 
     80 H         102.8079   13.7508   22.8330 H         1 COS402      0.0000 
@<TRIPOS>BOND
     1    2    1 ar   
     2    6    1 ar   
     3    3    2 ar   
     4   50    2 1    
     5    4    3 ar   
     6    5    4 ar   
     7   10    4 1    
     8    6    5 ar   
     9    8    5 1    
    10    7    6 1    
    11   51    7 1    
    12   52    7 1    
    13    9    8 2    
    14   10    9 1    
    15   53    9 1    
    16   11   10 1    
    17   12   11 1    
    18   21   11 1    
    19   54   11 1    
    20   13   12 1    
    21   14   12 1    
    22   55   12 1    
    23   79   13 1    
    24   15   14 1    
    25   20   14 1    
    26   56   14 1    
    27   16   15 1    
    28   17   16 ar   
    29   18   16 ar   
    30   19   16 ar   
    31   21   20 1    
    32   22   20 1    
    33   57   20 1    
    34   23   22 1    
    35   58   22 1    
    36   59   22 1    
    37   24   23 1    
    38   25   24 ar   
    39   26   24 ar   
    40   27   24 1    
    41   28   27 1    
    42   29   28 ar   
    43   30   28 ar   
    44   31   28 1    
    45   33   31 1    
    46   33   32 1    
    47   34   32 1    
    48   35   32 1    
    49   36   32 1    
    50   60   33 1    
    51   61   33 1    
    52   73   34 1    
    53   74   34 1    
    54   75   34 1    
    55   76   35 1    
    56   77   35 1    
    57   78   35 1    
    58   37   36 1    
    59   38   36 1    
    60   62   36 1    
    61   80   37 1    
    62   39   38 2    
    63   40   38 am   
    64   41   40 1    
    65   63   40 1    
    66   42   41 1    
    67   64   41 1    
    68   65   41 1    
    69   43   42 1    
    70   66   42 1    
    71   67   42 1    
    72   44   43 2    
    73   45   43 am   
    74   46   45 1    
    75   68   45 1    
    76   47   46 1    
    77   69   46 1    
    78   70   46 1    
    79   48   47 1    
    80   71   47 1    
    81   72   47 1    
    82   49   48 1    
@<TRIPOS>SUBSTRUCTURE
     1 COS402      1 GROUP   
@<TRIPOS>SET

