#    Name: 4li6_1XO_1_INTS_M
#    Modification time : Tue Apr  8 00:00:43 2014

@<TRIPOS>MOLECULE
4li6_1XO_1_INTS_M
   73     0     9     0     0
SMALL
NO_CHARGES


@<TRIPOS>ATOM
      1 CA        -22.3370   -4.3145    7.4110 C.3       3 GLC5        0.0000 
      2 CA        -23.8510   -3.9880    6.1040 C.3       9 GLL5        0.0000 
      3 CA        -20.8230   -4.6410    8.7180 C.3       6 GLP5        0.0000 
      4 CA        -22.9265   -5.8455    5.4450 C.3       3 GLC5        0.0000 
      5 CA        -22.0020   -7.7030    4.7860 C.3       6 GLP5        0.0000 
      6 CA        -22.9550   -2.7725    3.8685 C.3       3 GLC5        0.0000 
      7 CA        -24.0840   -2.3560    5.5820 C.3       9 GLL5        0.0000 
      8 CA        -21.8260   -3.1890    2.1550 C.3       6 GLP5        0.0000 
      9 CA        -25.3035   -6.6035    5.5800 C.3       3 GLC5        0.0000 
     10 CA        -26.1730   -5.3660    7.0370 C.3       9 GLL5        0.0000 
     11 CA        -24.4340   -7.8410    4.1230 C.3       6 GLP5        0.0000 
     12 CA        -26.5245   -4.5750    4.9650 C.3       3 GLC5        0.0000 
     13 CA        -26.8760   -3.7840    2.8930 C.3       6 GLP5        0.0000 
     14 CA        -22.5550   -5.7765    8.2405 C.3       3 GLC5        0.0000 
     15 CA        -24.2870   -6.9120    7.7630 C.3       9 GLL5        0.0000 
     16 CA        -23.7805   -7.6955    6.1535 C.3       3 GLC5        0.0000 
     17 CA        -23.2740   -8.4790    4.5440 C.3       6 GLP5        0.0000 
     18 CA        -24.5625  -12.6465   10.2615 C.3       3 GLC5        0.0000 
     19 CA        -24.7640  -12.4920    8.1920 C.3       9 GLL5        0.0000 
     20 CA        -24.3610  -12.8010   12.3310 C.3       6 GLP5        0.0000 
     21 CA        -26.6650  -13.1640    5.6500 C.3       3 GLC5        0.0000 
     22 CA        -27.0610  -12.2760    7.3910 C.3       9 GLL5        0.0000 
     23 CA        -26.2690  -14.0520    3.9090 C.3       6 GLP5        0.0000 
     24 O         -22.2350   -8.3190    8.1805 O.2       1 ALC1        0.0000 
     25 O         -23.3360   -9.0550    8.3000 O.2       7 ALL1        0.0000 
     26 O         -21.1340   -7.5830    8.0610 O.2       4 ALP1        0.0000 
     27 N         -21.0245  -10.3075    8.9935 N.am      2 SEC2        0.0000 
     28 N         -22.3070  -11.0120    8.7640 N.am      8 SEL2        0.0000 
     29 N         -19.7420   -9.6030    9.2230 N.am      5 SEP2        0.0000 
     30 N         -21.4165  -12.0865    8.7850 N.am      2 SEC2        0.0000 
     31 N         -20.5260  -13.1610    8.8060 N.am      5 SEP2        0.0000 
     32 N         -25.8995   -7.4725   11.3785 N.am      2 SEC2        0.0000 
     33 N         -25.2180   -6.4920   10.3030 N.am      8 SEL2        0.0000 
     34 N         -26.5810   -8.4530   12.4540 N.am      5 SEP2        0.0000 
     35 CA        -27.0555   -5.8235   11.8955 C.3       3 GLC5        0.0000 
     36 CA        -26.9590   -5.0040    9.8080 C.3       9 GLL5        0.0000 
     37 CA        -27.1520   -6.6430   13.9830 C.3       6 GLP5        0.0000 
     38 CA        -28.0120   -6.5145   10.2780 C.3       3 GLC5        0.0000 
     39 CA        -29.0650   -8.0250   10.7480 C.3       6 GLP5        0.0000 
     40 CA        -27.8285   -2.2895   10.9545 C.3       3 GLC5        0.0000 
     41 CA        -26.4440   -3.5300    9.9030 C.3       9 GLL5        0.0000 
     42 CA        -29.2130   -1.0490   12.0060 C.3       6 GLP5        0.0000 
     43 CA        -27.5945   -2.1965    8.9585 C.3       3 GLC5        0.0000 
     44 CA        -28.7450   -0.8630    8.0140 C.3       6 GLP5        0.0000 
     45 CA        -27.4600   -1.9290   12.1255 C.3       3 GLC5        0.0000 
     46 CA        -25.7070   -2.8090   12.2450 C.3       9 GLL5        0.0000 
     47 CA        -22.2302   -2.8585    5.9715 C.3       3 GLC5        0.0000 
     48 CA        -20.4930   -2.5450    6.1000 C.3       6 GLP5        0.0000 
     49 CA        -26.1755  -10.2107    9.1492 C.3       3 GLC5        0.0000 
     50 CA        -25.6820  -10.3130    7.6370 C.3       9 GLL5        0.0000 
     51 CA        -27.2040   -9.7120   10.4370 C.3       6 GLP5        0.0000 
     52 CA        -26.2913  -11.2453    9.2267 C.3       3 GLC5        0.0000 
     53 CA        -24.4417  -14.2903    8.4808 C.3       3 GLC5        0.0000 
     54 CA        -23.5050  -15.8020    8.9450 C.3       6 GLP5        0.0000 
     55 CA        -24.8767  -13.8643    6.6632 C.3       3 GLC5        0.0000 
     56 CA        -24.3750  -14.9500    5.3100 C.3       6 GLP5        0.0000 
     57 CA        -28.2930  -13.7372    7.7840 C.3       3 GLC5        0.0000 
     58 CA        -25.9930  -13.0650    7.8410 C.3       9 GLL5        0.0000 
     59 CA        -30.0590  -14.8040    7.9520 C.3       6 GLP5        0.0000 
     60 CA        -27.0940  -10.6475    8.8880 C.3       3 GLC5        0.0000 
     61 CA        -25.2097   -0.6210   12.6165 C.3       3 GLC5        0.0000 
     62 CA        -25.1970    1.4860   12.4870 C.3       6 GLP5        0.0000 
     63 CA        -25.8642   -3.7780   14.1550 C.3       3 GLC5        0.0000 
     64 CA        -24.7380   -2.6470   13.2470 C.3       9 GLL5        0.0000 
     65 CA        -26.5060   -4.8280   15.5640 C.3       6 GLP5        0.0000 
     66 CA        -21.1762   -3.5368   12.9133 C.3       3 GLC5        0.0000 
     67 CA        -23.4140   -3.0340   13.0060 C.3       9 GLL5        0.0000 
     68 CA        -19.1160   -3.7670   13.4380 C.3       6 GLP5        0.0000 
     69 CA        -23.9853   -4.8242   13.5147 C.3       3 GLC5        0.0000 
     70 CA        -23.0590   -3.5790   11.7710 C.3       9 GLL5        0.0000 
     71 CA        -24.7340   -6.3420   14.6410 C.3       6 GLP5        0.0000 
     72 CA        -22.1835   -4.1490    9.9962 C.3       3 GLC5        0.0000 
     73 CA        -25.9793   -3.3116    4.4239 C.3       3 GLC5        0.0000 
@<TRIPOS>BOND
@<TRIPOS>SUBSTRUCTURE
     1 ALC1       24 GROUP        1 X    ALC  0     ROOT ALC X 1
     2 SEC2       27 GROUP        1 X    SEC  0     **** SEC X 2
     3 GLC5        1 GROUP        1 X    GLC  0     **** GLC X 6
     4 ALP1       26 GROUP        1 Y    ALP  0     ROOT ALP Y 8
     5 SEP2       29 GROUP        1 Y    SEP  0     **** SEP Y 9
     6 GLP5        3 GROUP        1 Y    GLP  0     **** GLP Y 13
     7 ALL1       25 GROUP        1 Z    ALL  0     ROOT ALL Z 15
     8 SEL2       28 GROUP        1 Z    SEL  0     **** SEL Z 16
     9 GLL5        2 GROUP        1 Z    GLL  0     **** GLL Z 20
@<TRIPOS>SET

