#    Name: 4li6_1XO_1_ligand
#    Modification time : Tue Apr  8 00:00:43 2014

@<TRIPOS>MOLECULE
4li6_1XO_1_ligand
   50    53     1     0     0
SMALL
NO_CHARGES


@<TRIPOS>ATOM
      1 S1        -23.8510   -3.9880    6.1040 S.3       1 1XO1406     0.0000 
      2 C2        -25.5300   -4.1180    6.4980 C.2       1 1XO1406     0.0000 
      3 C3        -26.2090   -3.0000    6.2410 C.2       1 1XO1406     0.0000 
      4 C5        -25.3470   -1.9480    5.6950 C.2       1 1XO1406     0.0000 
      5 C7        -24.0840   -2.3560    5.5820 C.2       1 1XO1406     0.0000 
      6 C9        -26.1730   -5.3660    7.0370 C.3       1 1XO1406     0.0000 
      7 N12       -25.4330   -6.0630    8.0930 N.am      1 1XO1406     0.0000 
      8 C13       -24.2870   -6.9120    7.7630 C.3       1 1XO1406     0.0000 
      9 C16       -24.4410   -8.3980    7.8930 C.2       1 1XO1406     0.0000 
     10 N17       -25.5290   -8.9750    7.5440 N.2       1 1XO1406     0.0000 
     11 C18       -25.6820  -10.3130    7.6370 C.ar      1 1XO1406     0.0000 
     12 C19       -24.6120  -11.1060    8.0860 C.ar      1 1XO1406     0.0000 
     13 C20       -24.7640  -12.4920    8.1920 C.ar      1 1XO1406     0.0000 
     14 C22       -25.9930  -13.0650    7.8410 C.ar      1 1XO1406     0.0000 
     15 C24       -27.0610  -12.2760    7.3910 C.ar      1 1XO1406     0.0000 
     16 C26       -26.9070  -10.8900    7.2870 C.ar      1 1XO1406     0.0000 
     17 C28       -23.3230  -10.3940    8.4210 C.2       1 1XO1406     0.0000 
     18 N29       -23.3360   -9.0550    8.3000 N.am      1 1XO1406     0.0000 
     19 O31       -22.3070  -11.0120    8.7640 O.2       1 1XO1406     0.0000 
     20 C32       -25.8180   -5.9170    9.3930 C.2       1 1XO1406     0.0000 
     21 O33       -25.2180   -6.4920   10.3030 O.2       1 1XO1406     0.0000 
     22 C34       -26.9590   -5.0040    9.8080 C.3       1 1XO1406     0.0000 
     23 C37       -26.4440   -3.5300    9.9030 C.3       1 1XO1406     0.0000 
     24 C40       -25.3640   -3.3570   10.9970 C.ar      1 1XO1406     0.0000 
     25 C41       -25.7070   -2.8090   12.2450 C.ar      1 1XO1406     0.0000 
     26 C43       -24.7380   -2.6470   13.2470 C.ar      1 1XO1406     0.0000 
     27 C45       -23.4140   -3.0340   13.0060 C.ar      1 1XO1406     0.0000 
     28 C47       -23.0590   -3.5790   11.7710 C.ar      1 1XO1406     0.0000 
     29 C49       -24.0290   -3.7350   10.7780 C.ar      1 1XO1406     0.0000 
     30 H         -27.1572   -2.8325    6.3740 H         1 1XO1406     0.0000 
     31 H         -25.7198   -1.0821    5.4657 H         1 1XO1406     0.0000 
     32 H         -23.2770   -1.9636    5.2821 H         1 1XO1406     0.0000 
     33 H         -26.3552   -6.0641    6.1798 H         1 1XO1406     0.0000 
     34 H         -27.1973   -5.1008    7.4057 H         1 1XO1406     0.0000 
     35 H         -23.3967   -6.5982    8.3881 H         1 1XO1406     0.0000 
     36 H         -23.9477   -6.6882    6.7063 H         1 1XO1406     0.0000 
     37 H         -23.9968  -13.0744    8.5179 H         1 1XO1406     0.0000 
     38 H         -26.1154  -14.0885    7.9149 H         1 1XO1406     0.0000 
     39 H         -27.9512  -12.7152    7.1394 H         1 1XO1406     0.0000 
     40 H         -27.6775  -10.3078    6.9604 H         1 1XO1406     0.0000 
     41 H         -22.4670   -8.5070    8.5271 H         1 1XO1406     0.0000 
     42 H         -27.3360   -5.2960   10.7778 H         1 1XO1406     0.0000 
     43 H         -27.7516   -5.0410    9.0742 H         1 1XO1406     0.0000 
     44 H         -27.2891   -2.8813   10.1272 H         1 1XO1406     0.0000 
     45 H         -26.0266   -3.2458    8.9385 H         1 1XO1406     0.0000 
     46 H         -26.6788   -2.5240   12.4248 H         1 1XO1406     0.0000 
     47 H         -24.9998   -2.2465   14.1520 H         1 1XO1406     0.0000 
     48 H         -22.7058   -2.9161   13.7391 H         1 1XO1406     0.0000 
     49 H         -22.0911   -3.8636   11.5930 H         1 1XO1406     0.0000 
     50 H         -23.7625   -4.1361    9.8631 H         1 1XO1406     0.0000 
@<TRIPOS>BOND
     1    2    1 1    
     2    5    1 1    
     3    3    2 2    
     4    6    2 1    
     5    4    3 1    
     6   30    3 1    
     7    5    4 2    
     8   31    4 1    
     9   32    5 1    
    10    7    6 1    
    11   33    6 1    
    12   34    6 1    
    13    8    7 1    
    14   20    7 am   
    15    9    8 1    
    16   35    8 1    
    17   36    8 1    
    18   10    9 2    
    19   18    9 1    
    20   11   10 1    
    21   12   11 ar   
    22   16   11 ar   
    23   13   12 ar   
    24   17   12 1    
    25   14   13 ar   
    26   37   13 1    
    27   15   14 ar   
    28   38   14 1    
    29   16   15 ar   
    30   39   15 1    
    31   40   16 1    
    32   18   17 am   
    33   19   17 2    
    34   41   18 1    
    35   21   20 2    
    36   22   20 1    
    37   23   22 1    
    38   42   22 1    
    39   43   22 1    
    40   24   23 1    
    41   44   23 1    
    42   45   23 1    
    43   25   24 ar   
    44   29   24 ar   
    45   26   25 ar   
    46   46   25 1    
    47   27   26 ar   
    48   47   26 1    
    49   28   27 ar   
    50   48   27 1    
    51   29   28 ar   
    52   49   28 1    
    53   50   29 1    
@<TRIPOS>SUBSTRUCTURE
     1 1XO1406     1 GROUP   
@<TRIPOS>SET

