#    Name: 2isc_223_6_INTS_M
#    Modification time : Tue Mar 25 18:35:30 2014

@<TRIPOS>MOLECULE
2isc_223_6_INTS_M
   62     0     9     0     0
SMALL
NO_CHARGES


@<TRIPOS>ATOM
      1 CA        -32.4200   13.1570  -11.9220 C.3       3 GLC5        0.0000 
      2 CA        -33.3860   14.1180  -10.5850 C.3       9 GLL5        0.0000 
      3 CA        -31.4540   12.1960  -13.2590 C.3       6 GLP5        0.0000 
      4 CA        -32.7850   14.9270  -11.9585 C.3       3 GLC5        0.0000 
      5 CA        -32.1840   15.7360  -13.3320 C.3       6 GLP5        0.0000 
      6 CA        -34.7475   14.4890  -12.0735 C.3       3 GLC5        0.0000 
      7 CA        -36.1090   14.8600  -13.5620 C.3       6 GLP5        0.0000 
      8 CA        -34.1000   12.5500  -11.3595 C.3       3 GLC5        0.0000 
      9 CA        -34.8140   10.9820  -12.1340 C.3       6 GLP5        0.0000 
     10 CA        -32.5645   15.8400  -11.1410 C.3       3 GLC5        0.0000 
     11 CA        -32.9450   15.9440   -8.9500 C.3       9 GLL5        0.0000 
     12 CA        -31.7490   17.7780   -9.4450 C.3       3 GLC5        0.0000 
     13 CA        -30.5530   19.6120   -9.9400 C.3       6 GLP5        0.0000 
     14 CA        -38.6345   17.2275   -8.2115 C.3       3 GLC5        0.0000 
     15 CA        -36.4960   16.7370   -8.3630 C.3       9 GLL5        0.0000 
     16 CA        -40.7730   17.7180   -8.0600 C.3       6 GLP5        0.0000 
     17 CA        -35.3455   18.3475   -9.2380 C.3       3 GLC5        0.0000 
     18 CA        -34.1950   19.9580  -10.1130 C.3       6 GLP5        0.0000 
     19 O         -32.3745   17.8425   -7.3220 O.2       1 ALC1        0.0000 
     20 O         -32.1060   16.6230   -8.3100 O.2       7 ALL1        0.0000 
     21 O         -32.6430   19.0620   -6.3340 O.2       4 ALP1        0.0000 
     22 O         -35.0090   18.0730   -7.1690 O.2       1 ALC1        0.0000 
     23 O         -35.1930   17.0000   -8.0870 O.2       7 ALL1        0.0000 
     24 O         -34.8250   19.1460   -6.2510 O.2       4 ALP1        0.0000 
     25 CA        -39.4590   16.5205   -9.7300 C.3       3 GLC5        0.0000 
     26 CA        -37.7990   15.1200   -9.9060 C.3       9 GLL5        0.0000 
     27 CA        -41.1190   17.9210   -9.5540 C.3       6 GLP5        0.0000 
     28 CA        -37.7345   16.9270  -10.4365 C.3       3 GLC5        0.0000 
     29 CA        -37.6700   18.7340  -10.9670 C.3       6 GLP5        0.0000 
     30 CA        -37.7040   15.1255  -11.8240 C.3       3 GLC5        0.0000 
     31 CA        -37.6090   15.1310  -13.7420 C.3       6 GLP5        0.0000 
     32 CA        -36.3420   11.0020   -5.4435 C.3       3 GLC5        0.0000 
     33 CA        -36.3160   11.9240   -7.4060 C.3       9 GLL5        0.0000 
     34 CA        -36.3680   10.0800   -3.4810 C.3       6 GLP5        0.0000 
     35 CA        -35.2180   10.0355   -7.3125 C.3       3 GLC5        0.0000 
     36 CA        -34.1200    8.1470   -7.2190 C.3       6 GLP5        0.0000 
     37 CA        -34.5060   12.2030   -7.4625 C.3       3 GLC5        0.0000 
     38 CA        -32.6960   12.4820   -7.5190 C.3       6 GLP5        0.0000 
     39 CA        -35.3655   11.0300   -8.9830 C.3       3 GLC5        0.0000 
     40 CA        -34.4150   10.1360  -10.5600 C.3       6 GLP5        0.0000 
     41 N         -35.9065   11.6805   -5.2465 N.am      2 SEC2        0.0000 
     42 N         -36.2670   12.6110   -6.1410 N.am      8 SEL2        0.0000 
     43 N         -35.5460   10.7500   -4.3520 N.am      5 SEP2        0.0000 
     44 CA        -38.1350    9.4600   -9.2055 C.3       3 GLC5        0.0000 
     45 CA        -37.7440   11.4910   -9.4610 C.3       9 GLL5        0.0000 
     46 CA        -38.5260    7.4290   -8.9500 C.3       6 GLP5        0.0000 
     47 CA        -36.0795   10.8135  -10.0105 C.3       3 GLC5        0.0000 
     48 O         -39.1250   10.2675  -10.9515 O.2       1 ALC1        0.0000 
     49 O         -38.9460   10.7520   -9.6960 O.2       7 ALL1        0.0000 
     50 O         -39.3040    9.7830  -12.2070 O.2       4 ALP1        0.0000 
     51 CA        -37.6810   13.9255  -12.0505 C.3       3 GLC5        0.0000 
     52 CA        -37.7530   12.7200  -10.3590 C.3       9 GLL5        0.0000 
     53 CA        -36.2835   11.8510  -11.2465 C.3       3 GLC5        0.0000 
     54 CA        -36.0028   15.1962  -11.4893 C.3       3 GLC5        0.0000 
     55 CA        -36.5550   15.6980   -9.2820 C.3       9 GLL5        0.0000 
     56 CA        -33.9355   18.0063   -9.4955 C.3       3 GLC5        0.0000 
     57 CA        -34.4070   16.1650   -8.8060 C.3       9 GLL5        0.0000 
     58 CA        -36.9331   17.4344   -9.9284 C.3       3 GLC5        0.0000 
     59 CA        -35.2380   15.3670   -9.5510 C.3       9 GLL5        0.0000 
     60 CA        -37.5600   10.2240   -7.1160 C.3       3 GLC5        0.0000 
     61 CA        -37.7080   12.0040   -8.0260 C.3       9 GLL5        0.0000 
     62 CA        -38.1080    8.4840   -6.5160 C.3       6 GLP5        0.0000 
@<TRIPOS>BOND
@<TRIPOS>SUBSTRUCTURE
     1 ALC1       19 GROUP        1 X    ALC  0     ROOT ALC X 1
     2 SEC2       41 GROUP        1 X    SEC  0     **** SEC X 2
     3 GLC5        1 GROUP        1 X    GLC  0     **** GLC X 6
     4 ALP1       21 GROUP        1 Y    ALP  0     ROOT ALP Y 8
     5 SEP2       43 GROUP        1 Y    SEP  0     **** SEP Y 9
     6 GLP5        3 GROUP        1 Y    GLP  0     **** GLP Y 13
     7 ALL1       20 GROUP        1 Z    ALL  0     ROOT ALL Z 15
     8 SEL2       42 GROUP        1 Z    SEL  0     **** SEL Z 16
     9 GLL5        2 GROUP        1 Z    GLL  0     **** GLL Z 20
@<TRIPOS>SET

