#    Name: 2isc_223_6_ligand
#    Modification time : Tue Mar 25 18:35:31 2014

@<TRIPOS>MOLECULE
2isc_223_6_ligand
   37    39     1     0     0
SMALL
NO_CHARGES


@<TRIPOS>ATOM
      1 N1        -32.5120   14.9830   -9.7920 N.ar      1 223404      0.0000 
      2 C2        -33.3860   14.1180  -10.5850 C.ar      1 223404      0.0000 
      3 C4        -35.2380   15.3670   -9.5510 C.ar      1 223404      0.0000 
      4 C5        -34.4070   16.1650   -8.8060 C.ar      1 223404      0.0000 
      5 C6        -32.9450   15.9440   -8.9500 C.ar      1 223404      0.0000 
      6 C8        -36.4960   16.7370   -8.3630 C.2       1 223404      0.0000 
      7 N6        -32.1060   16.6230   -8.3100 N.pl3     1 223404      0.0000 
      8 N3        -34.8000   14.4040  -10.3990 N.ar      1 223404      0.0000 
      9 C9        -36.5550   15.6980   -9.2820 C.2       1 223404      0.0000 
     10 N7        -35.1930   17.0000   -8.0870 N.pl3     1 223404      0.0000 
     11 C10       -37.7990   15.1200   -9.9060 C.3       1 223404      0.0000 
     12 N1'       -38.2980   13.7970   -9.5080 N.4       1 223404      0.0000 
     13 C6'       -38.1030   13.4740   -8.0840 C.3       1 223404      0.0000 
     14 C4'       -37.7080   12.0040   -8.0260 C.3       1 223404      0.0000 
     15 C5'       -36.3160   11.9240   -7.4060 C.3       1 223404      0.0000 
     16 O5'       -36.2670   12.6110   -6.1410 O.3       1 223404      0.0000 
     17 C3'       -37.7440   11.4910   -9.4610 C.3       1 223404      0.0000 
     18 O3'       -38.9460   10.7520   -9.6960 O.3       1 223404      0.0000 
     19 C2'       -37.7530   12.7200  -10.3590 C.3       1 223404      0.0000 
     20 H         -33.0560   13.4336  -11.1667 H         1 223404      0.0000 
     21 H         -37.2597   17.1835   -7.9946 H         1 223404      0.0000 
     22 H         -32.4778   17.3405   -7.7210 H         1 223404      0.0000 
     23 H         -31.1457   16.3817   -8.4502 H         1 223404      0.0000 
     24 H         -34.8779   17.6788   -7.4720 H         1 223404      0.0000 
     25 H         -37.6515   15.1339  -11.0392 H         1 223404      0.0000 
     26 H         -38.6364   15.8863   -9.7728 H         1 223404      0.0000 
     27 H         -39.4171   13.7961   -9.6880 H         1 223404      0.0000 
     28 H         -39.0164   13.6120   -7.5293 H         1 223404      0.0000 
     29 H         -37.3085   14.0657   -7.6603 H         1 223404      0.0000 
     30 H         -38.4099   11.4843   -7.4329 H         1 223404      0.0000 
     31 H         -35.6017   12.3568   -8.1235 H         1 223404      0.0000 
     32 H         -36.0577   10.8596   -7.2928 H         1 223404      0.0000 
     33 H         -36.8693   10.9329   -9.6547 H         1 223404      0.0000 
     34 H         -36.7507   12.9407  -10.6609 H         1 223404      0.0000 
     35 H         -38.3900   12.5359  -11.1985 H         1 223404      0.0000 
     36 H         -35.6896   13.1884   -5.5636 H         1 223404      0.0000 
     37 H         -38.9123   10.5044  -10.6643 H         1 223404      0.0000 
@<TRIPOS>BOND
     1    2    1 ar   
     2    5    1 ar   
     3    8    2 ar   
     4   20    2 1    
     5    4    3 ar   
     6    8    3 ar   
     7    9    3 1    
     8    5    4 ar   
     9   10    4 1    
    10    7    5 1    
    11    9    6 2    
    12   10    6 1    
    13   21    6 1    
    14   22    7 1    
    15   23    7 1    
    16   11    9 1    
    17   24   10 1    
    18   12   11 1    
    19   25   11 1    
    20   26   11 1    
    21   13   12 1    
    22   19   12 1    
    23   27   12 1    
    24   14   13 1    
    25   28   13 1    
    26   29   13 1    
    27   15   14 1    
    28   17   14 1    
    29   30   14 1    
    30   16   15 1    
    31   31   15 1    
    32   32   15 1    
    33   36   16 1    
    34   18   17 1    
    35   19   17 1    
    36   33   17 1    
    37   37   18 1    
    38   34   19 1    
    39   35   19 1    
@<TRIPOS>SUBSTRUCTURE
     1 223404      1 GROUP   
@<TRIPOS>SET

