#    Name: 1bhx_R56_1_INTS_M
#    Modification time : Mon Mar 24 19:34:17 2014

@<TRIPOS>MOLECULE
1bhx_R56_1_INTS_M
   73     0    12     0     0
SMALL
NO_CHARGES


@<TRIPOS>ATOM
      1 CA         19.9875  -15.4710   28.4110 C.3       4 GLC5        0.0000 
      2 CA         19.8790  -14.7540   26.5500 C.3      12 GLL5        0.0000 
      3 CA         20.0960  -16.1880   30.2720 C.3       8 GLP5        0.0000 
      4 CA         21.2840  -14.1360   28.4340 C.3       4 GLC5        0.0000 
      5 CA         21.0250  -14.0020   26.3100 C.3      12 GLL5        0.0000 
      6 CA         21.5430  -14.2700   30.5580 C.3       8 GLP5        0.0000 
      7 CA         17.8505  -15.0865   27.1825 C.3       4 GLC5        0.0000 
      8 CA         18.5670  -16.9220   26.4870 C.3      12 GLL5        0.0000 
      9 CA         17.1340  -13.2510   27.8780 C.3       8 GLP5        0.0000 
     10 CA         16.8450  -17.0980   27.4375 C.3       4 GLC5        0.0000 
     11 CA         15.1230  -17.2740   28.3880 C.3       8 GLP5        0.0000 
     12 N          15.5760  -13.3620   24.1500 N.am      2 SEC2        0.0000 
     13 N          16.3540  -13.9150   22.9140 N.am     10 SEL2        0.0000 
     14 N          14.7980  -12.8090   25.3860 N.am      6 SEP2        0.0000 
     15 CA         18.7090  -15.4935   19.1185 C.3       4 GLC5        0.0000 
     16 CA         19.0090  -14.3360   20.5480 C.3      12 GLL5        0.0000 
     17 CA         18.4090  -16.6510   17.6890 C.3       8 GLP5        0.0000 
     18 CA         21.7605  -14.8325   20.8140 C.3       4 GLC5        0.0000 
     19 CA         20.1060  -14.6080   21.5470 C.3      12 GLL5        0.0000 
     20 CA         23.4150  -15.0570   20.0810 C.3       8 GLP5        0.0000 
     21 CA         20.4445  -12.6740   22.2620 C.3       4 GLC5        0.0000 
     22 CA         20.7830  -10.7400   22.9770 C.3       8 GLP5        0.0000 
     23 CA         20.1800  -11.8850   21.2515 C.3       4 GLC5        0.0000 
     24 CA         19.5770  -13.0300   19.5260 C.3      12 GLL5        0.0000 
     25 CA         16.6870  -11.7940   22.6015 C.3       4 GLC5        0.0000 
     26 CA         17.2240  -12.5620   20.5980 C.3      12 GLL5        0.0000 
     27 CA         16.1500  -11.0260   24.6050 C.3       8 GLP5        0.0000 
     28 O          15.6575  -10.5505   21.5020 O.2       1 ALC1        0.0000 
     29 O          14.8940  -11.6530   20.6710 O.2       9 ALL1        0.0000 
     30 O          16.4210   -9.4480   22.3330 O.2       5 ALP1        0.0000 
     31 CA         12.2885  -12.3060   18.8355 C.3       4 GLC5        0.0000 
     32 CA         13.4600  -11.7790   20.4810 C.3      12 GLL5        0.0000 
     33 CA         11.1170  -12.8330   17.1900 C.3       8 GLP5        0.0000 
     34 CA         10.8430  -11.3025   20.6580 C.3       4 GLC5        0.0000 
     35 CA         12.7470  -10.6020   21.1150 C.3      12 GLL5        0.0000 
     36 CA          8.9390  -12.0030   20.2010 C.3       8 GLP5        0.0000 
     37 CA         14.5050  -10.8750   23.6105 C.3       4 GLC5        0.0000 
     38 CA         12.8600  -10.7240   22.6160 C.3      12 GLL5        0.0000 
     39 OD1         9.6400  -10.5425   25.2850 O.co2     3 ASC3        0.0000 
     40 OD1        11.1950  -11.7100   24.0880 O.co2    11 ASL3        0.0000 
     41 OD1         8.2480  -10.5290   25.9310 O.co2     7 ASP3        0.0000 
     42 OD1         9.3775  -11.6270   25.2275 O.co2     3 ASC3        0.0000 
     43 OD1         7.9700  -12.6590   25.8860 O.co2     7 ASP3        0.0000 
     44 O           9.6400  -10.5425   25.2850 O.2       1 ALC1        0.0000 
     45 O          11.0320  -10.5560   24.6390 O.2       9 ALL1        0.0000 
     46 O           8.2480  -10.5290   25.9310 O.2       5 ALP1        0.0000 
     47 O           9.3775  -11.6270   25.2275 O.2       1 ALC1        0.0000 
     48 O          10.5070  -12.7250   24.5240 O.2       9 ALL1        0.0000 
     49 O           9.2385  -12.6920   25.2050 O.2       1 ALC1        0.0000 
     50 O           7.9700  -12.6590   25.8860 O.2       5 ALP1        0.0000 
     51 O          10.4590  -14.2010   24.2720 O.2       1 ALC1        0.0000 
     52 O          10.4110  -15.6770   24.0200 O.2       5 ALP1        0.0000 
     53 O          10.2810  -13.2265   26.0945 O.2       1 ALC1        0.0000 
     54 O          10.0550  -13.7280   27.6650 O.2       5 ALP1        0.0000 
     55 CA         22.9265  -13.3055   27.0165 C.3       4 GLC5        0.0000 
     56 CA         24.2560  -12.3140   28.0180 C.3       8 GLP5        0.0000 
     57 CA         21.8525  -12.5990   24.8540 C.3       4 GLC5        0.0000 
     58 CA         22.1690  -14.5920   25.7200 C.3      12 GLL5        0.0000 
     59 CA         22.1080  -10.9010   23.6930 C.3       8 GLP5        0.0000 
     60 CA         18.9780  -13.0235   25.6995 C.3       4 GLC5        0.0000 
     61 CA         17.5040  -11.6690   24.9690 C.3       8 GLP5        0.0000 
     62 CA         20.3500  -16.8534   27.9361 C.3       4 GLC5        0.0000 
     63 CA         19.8390  -16.0960   26.2060 C.3      12 GLL5        0.0000 
     64 CA         21.2140  -17.0460   29.6700 C.3       8 GLP5        0.0000 
     65 CA         21.1275  -14.5670   19.4305 C.3       4 GLC5        0.0000 
     66 CA         22.9620  -15.4510   18.8240 C.3       8 GLP5        0.0000 
     67 CA         18.7488  -14.2585   18.0012 C.3       4 GLC5        0.0000 
     68 CA         17.9100  -12.3660   19.2870 C.3      12 GLL5        0.0000 
     69 CA         18.7540  -15.8190   16.5960 C.3       8 GLP5        0.0000 
     70 CA         18.5389  -11.0925   19.1956 C.3       4 GLC5        0.0000 
     71 CA         19.0940   -9.5550   18.3890 C.3       8 GLP5        0.0000 
     72 CA         12.5122   -8.7740   21.9027 C.3       4 GLC5        0.0000 
     73 CA         12.2210   -6.8850   21.9400 C.3       8 GLP5        0.0000 
@<TRIPOS>BOND
@<TRIPOS>SUBSTRUCTURE
     1 ALC1       28 GROUP        1 X    ALC  0     ROOT ALC X 1
     2 SEC2       12 GROUP        1 X    SEC  0     **** SEC X 2
     3 ASC3       39 GROUP        1 X    ASC  0     **** ASC X 3
     4 GLC5        1 GROUP        1 X    GLC  0     **** GLC X 6
     5 ALP1       30 GROUP        1 Y    ALP  0     ROOT ALP Y 8
     6 SEP2       14 GROUP        1 Y    SEP  0     **** SEP Y 9
     7 ASP3       41 GROUP        1 Y    ASP  0     **** ASP Y 10
     8 GLP5        3 GROUP        1 Y    GLP  0     **** GLP Y 13
     9 ALL1       29 GROUP        1 Z    ALL  0     ROOT ALL Z 15
    10 SEL2       13 GROUP        1 Z    SEL  0     **** SEL Z 16
    11 ASL3       40 GROUP        1 Z    ASL  0     **** ASL Z 17
    12 GLL5        2 GROUP        1 Z    GLL  0     **** GLL Z 20
@<TRIPOS>SET

