#    Name: 1bhx_R56_1_ligand
#    Modification time : Mon Mar 24 19:34:18 2014

@<TRIPOS>MOLECULE
1bhx_R56_1_ligand
   60    62     1     0     0
SMALL
NO_CHARGES


@<TRIPOS>ATOM
      1 C1         22.1690  -14.5920   25.7200 C.ar      1 R561        0.0000 
      2 C3         22.1450  -15.9400   25.3790 C.ar      1 R561        0.0000 
      3 C5         20.9710  -16.7030   25.6290 C.ar      1 R561        0.0000 
      4 C7         19.8390  -16.0960   26.2060 C.ar      1 R561        0.0000 
      5 C8         19.8790  -14.7540   26.5500 C.ar      1 R561        0.0000 
      6 C10        21.0250  -14.0020   26.3100 C.ar      1 R561        0.0000 
      7 C12        18.5670  -16.9220   26.4870 C.3       1 R561        0.0000 
      8 S15        17.8430  -17.3940   24.8500 S.o2      1 R561        0.0000 
      9 O16        18.8810  -18.1230   24.0360 O.2       1 R561        0.0000 
     10 O17        16.5900  -17.9970   25.0660 O.2       1 R561        0.0000 
     11 N18        17.6520  -15.8550   24.1860 N.pl3     1 R561        0.0000 
     12 C20        18.0550  -15.5820   22.8040 C.3       1 R561        0.0000 
     13 C22        17.3480  -14.3450   22.3100 C.2       1 R561        0.0000 
     14 O23        16.3540  -13.9150   22.9140 O.2       1 R561        0.0000 
     15 N24        17.8480  -13.7720   21.1870 N.am      1 R561        0.0000 
     16 C25        19.0090  -14.3360   20.5480 C.3       1 R561        0.0000 
     17 C27        20.1060  -14.6080   21.5470 C.3       1 R561        0.0000 
     18 C30        19.5960  -15.4160   22.7580 C.3       1 R561        0.0000 
     19 S33        19.5770  -13.0300   19.5260 S.3       1 R561        0.0000 
     20 C34        17.9100  -12.3660   19.2870 C.3       1 R561        0.0000 
     21 C37        17.2240  -12.5620   20.5980 C.3       1 R561        0.0000 
     22 C39        15.6820  -12.7390   20.3790 C.2       1 R561        0.0000 
     23 O40        15.2270  -13.7840   19.9280 O.2       1 R561        0.0000 
     24 N41        14.8940  -11.6530   20.6710 N.am      1 R561        0.0000 
     25 C43        13.4600  -11.7790   20.4810 C.3       1 R561        0.0000 
     26 C46        12.7470  -10.6020   21.1150 C.3       1 R561        0.0000 
     27 C49        12.8600  -10.7240   22.6160 C.3       1 R561        0.0000 
     28 N52        12.0620  -11.8660   23.1110 N.pl3     1 R561        0.0000 
     29 C54        11.1950  -11.7100   24.0880 C.cat     1 R561        0.0000 
     30 N55        11.0320  -10.5560   24.6390 N.pl3     1 R561        0.0000 
     31 N58        10.5070  -12.7250   24.5240 N.pl3     1 R561        0.0000 
     32 H          22.9989  -14.0229   25.5510 H         1 R561        0.0000 
     33 H          22.9538  -16.3903   24.9532 H         1 R561        0.0000 
     34 H          20.9552  -17.6958   25.3865 H         1 R561        0.0000 
     35 H          19.0576  -14.3087   26.9856 H         1 R561        0.0000 
     36 H          21.0520  -13.0037   26.5606 H         1 R561        0.0000 
     37 H          17.7876  -16.3713   26.9147 H         1 R561        0.0000 
     38 H          18.7529  -17.8573   26.9162 H         1 R561        0.0000 
     39 H          17.2617  -15.2058   24.8021 H         1 R561        0.0000 
     40 H          17.7945  -16.4177   22.1741 H         1 R561        0.0000 
     41 H          18.8317  -15.0993   19.8971 H         1 R561        0.0000 
     42 H          20.5202  -13.6627   21.9103 H         1 R561        0.0000 
     43 H          20.9125  -15.1718   21.0686 H         1 R561        0.0000 
     44 H          20.0559  -16.4138   22.7400 H         1 R561        0.0000 
     45 H          19.9229  -14.9186   23.6816 H         1 R561        0.0000 
     46 H          17.5462  -12.9634   18.5085 H         1 R561        0.0000 
     47 H          18.1055  -11.3680   19.0396 H         1 R561        0.0000 
     48 H          17.3927  -11.7163   21.2190 H         1 R561        0.0000 
     49 H          15.2644  -10.7788   21.0089 H         1 R561        0.0000 
     50 H          13.0832  -12.6999   20.9395 H         1 R561        0.0000 
     51 H          13.2065  -11.8043   19.4155 H         1 R561        0.0000 
     52 H          11.7040  -10.6125   20.8254 H         1 R561        0.0000 
     53 H          13.2102   -9.6799   20.7878 H         1 R561        0.0000 
     54 H          12.5110   -9.7920   23.0751 H         1 R561        0.0000 
     55 H          13.9148  -10.8562   22.8830 H         1 R561        0.0000 
     56 H          12.2396  -12.7685   22.6372 H         1 R561        0.0000 
     57 H          10.3479  -10.5086   25.3668 H         1 R561        0.0000 
     58 H          11.6048   -9.8156   24.2873 H         1 R561        0.0000 
     59 H           9.8387  -12.5280   25.2414 H         1 R561        0.0000 
     60 H          10.7101  -13.6083   24.1015 H         1 R561        0.0000 
@<TRIPOS>BOND
     1    2    1 ar   
     2    6    1 ar   
     3   32    1 1    
     4    3    2 ar   
     5   33    2 1    
     6    4    3 ar   
     7   34    3 1    
     8    5    4 ar   
     9    7    4 1    
    10    6    5 ar   
    11   35    5 1    
    12   36    6 1    
    13    8    7 1    
    14   37    7 1    
    15   38    7 1    
    16    9    8 2    
    17   10    8 2    
    18   11    8 1    
    19   12   11 1    
    20   39   11 1    
    21   13   12 1    
    22   18   12 1    
    23   40   12 1    
    24   14   13 2    
    25   15   13 am   
    26   16   15 1    
    27   21   15 1    
    28   17   16 1    
    29   19   16 1    
    30   41   16 1    
    31   18   17 1    
    32   42   17 1    
    33   43   17 1    
    34   44   18 1    
    35   45   18 1    
    36   20   19 1    
    37   21   20 1    
    38   46   20 1    
    39   47   20 1    
    40   22   21 1    
    41   48   21 1    
    42   23   22 2    
    43   24   22 am   
    44   25   24 1    
    45   49   24 1    
    46   26   25 1    
    47   50   25 1    
    48   51   25 1    
    49   27   26 1    
    50   52   26 1    
    51   53   26 1    
    52   28   27 1    
    53   54   27 1    
    54   55   27 1    
    55   29   28 ar   
    56   56   28 1    
    57   30   29 ar   
    58   31   29 ar   
    59   57   30 1    
    60   58   30 1    
    61   59   31 1    
    62   60   31 1    
@<TRIPOS>SUBSTRUCTURE
     1 R561        1 GROUP   
@<TRIPOS>SET

