#    Name: 4lj5_ADP_1_INTS_M
#    Modification time : Tue Apr  8 00:02:00 2014

@<TRIPOS>MOLECULE
4lj5_ADP_1_INTS_M
   53     0     9     0     0
SMALL
NO_CHARGES


@<TRIPOS>ATOM
      1 N          55.3460   19.7535   44.1830 N.am      2 SEC2        0.0000 
      2 N          55.1640   18.6820   45.0340 N.am      8 SEL2        0.0000 
      3 N          55.5280   20.8250   43.3320 N.am      5 SEP2        0.0000 
      4 N          53.5935   17.2770   48.0370 N.am      2 SEC2        0.0000 
      5 N          54.4480   17.9270   47.3470 N.am      8 SEL2        0.0000 
      6 N          52.7390   16.6270   48.7270 N.am      5 SEP2        0.0000 
      7 N          51.5710   17.7625   46.3570 N.am      2 SEC2        0.0000 
      8 N          52.7000   18.5320   45.6140 N.am      8 SEL2        0.0000 
      9 N          50.4420   16.9930   47.1000 N.am      5 SEP2        0.0000 
     10 N          53.0150   18.3185   48.8655 N.am      2 SEC2        0.0000 
     11 N          53.2910   20.0100   49.0040 N.am      8 SEL2        0.0000 
     12 CA         54.1815   22.7005   45.5055 C.3       3 GLC5        0.0000 
     13 CA         53.4640   23.3550   47.1760 C.3       9 GLL5        0.0000 
     14 CA         54.8990   22.0460   43.8350 C.3       6 GLP5        0.0000 
     15 CA         55.5070   23.3995   47.0905 C.3       3 GLC5        0.0000 
     16 CA         57.5500   23.4440   47.0050 C.3       6 GLP5        0.0000 
     17 CA         54.9835   25.2570   47.5105 C.3       3 GLC5        0.0000 
     18 CA         52.9070   24.5350   47.9620 C.3       9 GLL5        0.0000 
     19 CA         57.0600   25.9790   47.0590 C.3       6 GLP5        0.0000 
     20 CA         50.1170   27.3095   46.6405 C.3       3 GLC5        0.0000 
     21 CA         50.9840   25.6780   47.2050 C.3       9 GLL5        0.0000 
     22 CA         49.2500   28.9410   46.0760 C.3       6 GLP5        0.0000 
     23 CA         52.1390   26.4860   45.7160 C.3       3 GLC5        0.0000 
     24 CA         53.2940   27.2940   44.2270 C.3       6 GLP5        0.0000 
     25 CA         45.1450   23.4360   45.0045 C.3       3 GLC5        0.0000 
     26 CA         47.2080   24.0210   44.3970 C.3       9 GLL5        0.0000 
     27 CA         43.0820   22.8510   45.6120 C.3       6 GLP5        0.0000 
     28 CA         45.6735   25.3245   43.5960 C.3       3 GLC5        0.0000 
     29 CA         44.1390   26.6280   42.7950 C.3       6 GLP5        0.0000 
     30 O          45.8335   23.6990   42.2960 O.2       1 ALC1        0.0000 
     31 O          46.8590   23.3490   43.2820 O.2       7 ALL1        0.0000 
     32 O          44.8080   24.0490   41.3100 O.2       4 ALP1        0.0000 
     33 O          48.0875   22.4840   42.4920 O.2       1 ALC1        0.0000 
     34 O          49.3160   21.6190   41.7020 O.2       4 ALP1        0.0000 
     35 N          44.9235   24.5030   44.5500 N.am      2 SEC2        0.0000 
     36 N          46.2710   24.5350   45.2270 N.am      8 SEL2        0.0000 
     37 N          43.5760   24.4710   43.8730 N.am      5 SEP2        0.0000 
     38 CA         44.8440   24.0290   45.9800 C.3       3 GLC5        0.0000 
     39 CA         46.6060   25.2070   46.3480 C.3       9 GLL5        0.0000 
     40 CA         45.2020   26.2915   45.2120 C.3       3 GLC5        0.0000 
     41 CA         43.7980   27.3760   44.0760 C.3       6 GLP5        0.0000 
     42 CA         47.4975   23.6315   47.5950 C.3       3 GLC5        0.0000 
     43 CA         48.3890   22.0560   48.8420 C.3       6 GLP5        0.0000 
     44 CA         46.9865   26.4410   45.1910 C.3       3 GLC5        0.0000 
     45 CA         47.3670   27.6750   44.0340 C.3       6 GLP5        0.0000 
     46 CA         48.6530   23.5065   47.4145 C.3       3 GLC5        0.0000 
     47 CA         48.9170   24.9570   45.9870 C.3       9 GLL5        0.0000 
     48 CA         49.7935   23.3380   48.7865 C.3       3 GLC5        0.0000 
     49 CA         50.6250   25.0830   48.5560 C.3       9 GLL5        0.0000 
     50 CA         48.5570   22.2525   44.3910 C.3       3 GLC5        0.0000 
     51 CA         48.6320   24.2150   44.7530 C.3       9 GLL5        0.0000 
     52 CA         49.1940   20.3870   44.2070 C.3       6 GLP5        0.0000 
     53 CA         47.8927   26.1063   44.6575 C.3       3 GLC5        0.0000 
@<TRIPOS>BOND
@<TRIPOS>SUBSTRUCTURE
     1 ALC1       30 GROUP        1 X    ALC  0     ROOT ALC X 1
     2 SEC2        1 GROUP        1 X    SEC  0     **** SEC X 2
     3 GLC5       12 GROUP        1 X    GLC  0     **** GLC X 6
     4 ALP1       32 GROUP        1 Y    ALP  0     ROOT ALP Y 8
     5 SEP2        3 GROUP        1 Y    SEP  0     **** SEP Y 9
     6 GLP5       14 GROUP        1 Y    GLP  0     **** GLP Y 13
     7 ALL1       31 GROUP        1 Z    ALL  0     ROOT ALL Z 15
     8 SEL2        2 GROUP        1 Z    SEL  0     **** SEL Z 16
     9 GLL5       13 GROUP        1 Z    GLL  0     **** GLL Z 20
@<TRIPOS>SET

