#    Name: 4lj5_ADP_1_ligand
#    Modification time : Tue Apr  8 00:02:00 2014

@<TRIPOS>MOLECULE
4lj5_ADP_1_ligand
   39    41     1     0     0
SMALL
NO_CHARGES


@<TRIPOS>ATOM
      1 PB         54.1090   18.7210   46.1100 P.3       1 ADP901      0.0000 
      2 O1B        55.1640   18.6820   45.0340 O.co2     1 ADP901      0.0000 
      3 O2B        54.4480   17.9270   47.3470 O.co2     1 ADP901      0.0000 
      4 O3B        52.7000   18.5320   45.6140 O.co2     1 ADP901      0.0000 
      5 PA         53.0980   20.7840   47.7260 P.3       1 ADP901      0.0000 
      6 O1A        51.7280   20.8790   47.0900 O.co2     1 ADP901      0.0000 
      7 O2A        53.2910   20.0100   49.0040 O.co2     1 ADP901      0.0000 
      8 O3A        54.1270   20.2460   46.6130 O.3       1 ADP901      0.0000 
      9 O5'        53.6800   22.2500   48.0460 O.3       1 ADP901      0.0000 
     10 C5'        53.4640   23.3550   47.1760 C.3       1 ADP901      0.0000 
     11 C4'        52.9070   24.5350   47.9620 C.3       1 ADP901      0.0000 
     12 O4'        52.3910   25.4990   47.0410 O.3       1 ADP901      0.0000 
     13 C3'        51.7710   24.1570   48.9060 C.3       1 ADP901      0.0000 
     14 O3'        52.1550   24.3130   50.2750 O.3       1 ADP901      0.0000 
     15 C2'        50.6250   25.0830   48.5560 C.3       1 ADP901      0.0000 
     16 O2'        50.4790   26.1220   49.5290 O.3       1 ADP901      0.0000 
     17 C1'        50.9840   25.6780   47.2050 C.3       1 ADP901      0.0000 
     18 N9         50.2430   25.0090   46.1010 N.pl3     1 ADP901      0.0000 
     19 C8         50.7810   24.3670   45.0450 C.2       1 ADP901      0.0000 
     20 N7         49.8170   23.8810   44.2250 N.2       1 ADP901      0.0000 
     21 C5         48.6320   24.2150   44.7530 C.ar      1 ADP901      0.0000 
     22 C6         47.2080   24.0210   44.3970 C.ar      1 ADP901      0.0000 
     23 N6         46.8590   23.3490   43.2820 N.pl3     1 ADP901      0.0000 
     24 N1         46.2710   24.5350   45.2270 N.ar      1 ADP901      0.0000 
     25 C2         46.6060   25.2070   46.3480 C.ar      1 ADP901      0.0000 
     26 N3         47.8800   25.4180   46.7250 N.ar      1 ADP901      0.0000 
     27 C4         48.9170   24.9570   45.9870 C.ar      1 ADP901      0.0000 
     28 H          52.7463   23.1137   46.3806 H         1 ADP901      0.0000 
     29 H          54.3948   23.6829   46.6943 H         1 ADP901      0.0000 
     30 H          53.7047   24.9715   48.5470 H         1 ADP901      0.0000 
     31 H          51.4705   23.1529   48.6748 H         1 ADP901      0.0000 
     32 H          49.7394   24.4996   48.4377 H         1 ADP901      0.0000 
     33 H          50.7371   26.7270   47.2292 H         1 ADP901      0.0000 
     34 H          51.7448   24.2626   44.8864 H         1 ADP901      0.0000 
     35 H          46.0107   23.6406   42.8399 H         1 ADP901      0.0000 
     36 H          47.4794   22.6187   42.9961 H         1 ADP901      0.0000 
     37 H          45.8245   25.5873   46.9616 H         1 ADP901      0.0000 
     38 H          51.5202   24.9908   50.6461 H         1 ADP901      0.0000 
     39 H          51.0320   26.8799   49.1830 H         1 ADP901      0.0000 
@<TRIPOS>BOND
     1    2    1 ar   
     2    3    1 ar   
     3    4    1 ar   
     4    8    1 1    
     5    6    5 ar   
     6    7    5 ar   
     7    8    5 1    
     8    9    5 1    
     9   10    9 1    
    10   11   10 1    
    11   28   10 1    
    12   29   10 1    
    13   12   11 1    
    14   13   11 1    
    15   30   11 1    
    16   17   12 1    
    17   14   13 1    
    18   15   13 1    
    19   31   13 1    
    20   38   14 1    
    21   16   15 1    
    22   17   15 1    
    23   32   15 1    
    24   39   16 1    
    25   18   17 1    
    26   33   17 1    
    27   19   18 1    
    28   27   18 1    
    29   20   19 2    
    30   34   19 1    
    31   21   20 1    
    32   22   21 ar   
    33   27   21 ar   
    34   23   22 1    
    35   24   22 ar   
    36   35   23 1    
    37   36   23 1    
    38   25   24 ar   
    39   26   25 ar   
    40   37   25 1    
    41   27   26 ar   
@<TRIPOS>SUBSTRUCTURE
     1 ADP901      1 GROUP   
@<TRIPOS>SET

