#    Name: 2ztm_NAD_1_INTS_M
#    Modification time : Mon Apr  7 18:49:36 2014

@<TRIPOS>MOLECULE
2ztm_NAD_1_INTS_M
  103     0     9     0     0
SMALL
NO_CHARGES


@<TRIPOS>ATOM
      1 N          -3.3975  -20.0715  -27.2625 N.am      2 SEC2        0.0000 
      2 N          -3.6390  -18.9020  -26.5590 N.am      8 SEL2        0.0000 
      3 N          -3.1560  -21.2410  -27.9660 N.am      5 SEP2        0.0000 
      4 CA         -3.4600  -19.8935  -30.3850 C.3       3 GLC5        0.0000 
      5 CA         -3.3610  -18.3210  -31.4610 C.3       9 GLL5        0.0000 
      6 CA         -3.5590  -21.4660  -29.3090 C.3       6 GLP5        0.0000 
      7 O          -3.7150  -20.6820  -32.7920 O.2       1 ALC1        0.0000 
      8 O          -4.0590  -19.5100  -31.9400 O.2       7 ALL1        0.0000 
      9 O          -3.3710  -21.8540  -33.6440 O.2       4 ALP1        0.0000 
     10 N          -1.7470  -19.1745  -34.5555 N.am      2 SEC2        0.0000 
     11 N          -1.8990  -18.4840  -33.4710 N.am      8 SEL2        0.0000 
     12 N          -1.5950  -19.8650  -35.6400 N.am      5 SEP2        0.0000 
     13 CA         -5.2030  -17.1915  -33.5295 C.3       3 GLC5        0.0000 
     14 CA         -3.5490  -16.6520  -33.1090 C.3       9 GLL5        0.0000 
     15 CA         -6.8570  -17.7310  -33.9500 C.3       6 GLP5        0.0000 
     16 CA         -5.1565  -15.2645  -33.7125 C.3       3 GLC5        0.0000 
     17 CA         -6.7640  -13.8770  -34.3160 C.3       6 GLP5        0.0000 
     18 CA         -2.6010  -12.4420  -34.5185 C.3       3 GLC5        0.0000 
     19 CA         -2.0910  -14.1110  -35.3220 C.3       9 GLL5        0.0000 
     20 CA         -3.1110  -10.7730  -33.7150 C.3       6 GLP5        0.0000 
     21 CA         -1.9295  -13.6820  -38.9110 C.3       3 GLC5        0.0000 
     22 CA         -2.0650  -13.5380  -36.6750 C.3       9 GLL5        0.0000 
     23 CA         -1.7940  -13.8260  -41.1470 C.3       6 GLP5        0.0000 
     24 CA         -3.8490  -12.7835  -37.7475 C.3       3 GLC5        0.0000 
     25 CA         -5.6330  -12.0290  -38.8200 C.3       6 GLP5        0.0000 
     26 CA         -3.3690  -12.0775  -36.1740 C.3       3 GLC5        0.0000 
     27 CA         -4.6730  -10.6170  -35.6730 C.3       6 GLP5        0.0000 
     28 O          -0.8995  -12.1435  -38.4080 O.2       1 ALC1        0.0000 
     29 O          -1.2780  -12.5360  -37.0030 O.2       7 ALL1        0.0000 
     30 O          -0.5210  -11.7510  -39.8130 O.2       4 ALP1        0.0000 
     31 N          -3.2780  -13.3880  -38.8205 N.am      2 SEC2        0.0000 
     32 N          -2.9380  -14.1420  -37.5820 N.am      8 SEL2        0.0000 
     33 N          -3.6180  -12.6340  -40.0590 N.am      5 SEP2        0.0000 
     34 CA         -3.8060  -17.3075  -36.8340 C.3       3 GLC5        0.0000 
     35 CA         -3.7660  -15.1690  -37.3070 C.3       9 GLL5        0.0000 
     36 CA         -3.8460  -19.4460  -36.3610 C.3       6 GLP5        0.0000 
     37 CA         -4.9915  -14.2895  -38.2135 C.3       3 GLC5        0.0000 
     38 CA         -6.2170  -13.4100  -39.1200 C.3       6 GLP5        0.0000 
     39 CA         -5.2650  -14.5230  -35.8115 C.3       3 GLC5        0.0000 
     40 CA         -4.8675  -14.5345  -34.6940 C.3       3 GLC5        0.0000 
     41 CA         -2.9710  -15.1920  -35.0720 C.3       9 GLL5        0.0000 
     42 N          -5.2250  -16.7275  -23.7925 N.am      2 SEC2        0.0000 
     43 N          -6.0220  -16.0510  -24.6000 N.am      8 SEL2        0.0000 
     44 N          -4.4280  -17.4040  -22.9850 N.am      5 SEP2        0.0000 
     45 N          -7.6160  -18.8585  -26.3145 N.am      2 SEC2        0.0000 
     46 N          -6.6630  -17.7910  -26.3840 N.am      8 SEL2        0.0000 
     47 N          -8.5690  -19.9260  -26.2450 N.am      5 SEP2        0.0000 
     48 CA         -8.9740  -16.7185  -26.9130 C.3       3 GLC5        0.0000 
     49 CA         -7.7420  -15.3590  -27.6530 C.3       9 GLL5        0.0000 
     50 CA        -10.2060  -18.0780  -26.1730 C.3       6 GLP5        0.0000 
     51 CA         -9.2735  -15.1740  -25.9695 C.3       3 GLC5        0.0000 
     52 CA         -8.4770  -14.0730  -27.5750 C.3       9 GLL5        0.0000 
     53 CA        -10.0700  -16.2750  -24.3640 C.3       6 GLP5        0.0000 
     54 CA        -10.4815  -13.7770  -27.3855 C.3       3 GLC5        0.0000 
     55 CA        -12.4860  -13.4810  -27.1960 C.3       6 GLP5        0.0000 
     56 CA         -6.4850  -12.1060  -29.2420 C.3       3 GLC5        0.0000 
     57 CA         -7.6040  -12.7860  -27.8520 C.3       9 GLL5        0.0000 
     58 CA         -5.3660  -11.4260  -30.6320 C.3       6 GLP5        0.0000 
     59 N          -8.9300  -10.5675  -28.2580 N.am      2 SEC2        0.0000 
     60 N          -8.3070  -11.8560  -28.7040 N.am      8 SEL2        0.0000 
     61 N          -9.5530   -9.2790  -27.8120 N.am      5 SEP2        0.0000 
     62 O          -8.6060  -12.6795  -29.7010 O.2       1 ALC1        0.0000 
     63 O          -8.3070  -11.8560  -28.7040 O.2       7 ALL1        0.0000 
     64 O          -8.9050  -13.5030  -30.6980 O.2       4 ALP1        0.0000 
     65 CA         -5.3990  -12.4735  -25.9415 C.3       3 GLC5        0.0000 
     66 CA         -7.3810  -12.2010  -26.4520 C.3       9 GLL5        0.0000 
     67 CA         -3.4170  -12.7460  -25.4310 C.3       6 GLP5        0.0000 
     68 N          -8.2925  -10.0640  -27.1390 N.am      2 SEC2        0.0000 
     69 N          -7.0320  -10.8490  -26.4660 N.am      8 SEL2        0.0000 
     70 O          -7.1605  -10.1690  -25.2995 O.2       1 ALC1        0.0000 
     71 O          -7.0320  -10.8490  -26.4660 O.2       7 ALL1        0.0000 
     72 O          -7.2890   -9.4890  -24.1330 O.2       4 ALP1        0.0000 
     73 CA         -9.4155  -14.4005  -25.0700 C.3       3 GLC5        0.0000 
     74 CA         -8.7610  -12.5260  -25.7760 C.3       9 GLL5        0.0000 
     75 CA        -10.6235  -13.0035  -26.4860 C.3       3 GLC5        0.0000 
     76 CA         -8.4560  -15.5005  -21.3290 C.3       3 GLC5        0.0000 
     77 CA         -8.0620  -13.6150  -22.2690 C.3       9 GLL5        0.0000 
     78 CA         -8.8500  -17.3860  -20.3890 C.3       6 GLP5        0.0000 
     79 N          -7.5325  -15.0770  -19.3285 N.am      2 SEC2        0.0000 
     80 N          -6.9010  -14.1080  -20.2560 N.am      8 SEL2        0.0000 
     81 N          -8.1640  -16.0460  -18.4010 N.am      5 SEP2        0.0000 
     82 O          -6.1895  -16.3055  -20.8500 O.2       1 ALC1        0.0000 
     83 O          -6.3550  -15.4030  -22.0220 O.2       7 ALL1        0.0000 
     84 O          -6.0240  -17.2080  -19.6780 O.2       4 ALP1        0.0000 
     85 CA         -9.8350  -15.0785  -20.9985 C.3       3 GLC5        0.0000 
     86 CA         -9.4050  -13.3220  -21.6040 C.3       9 GLL5        0.0000 
     87 CA        -10.2650  -16.8350  -20.3930 C.3       6 GLP5        0.0000 
     88 CA         -9.9945  -14.0835  -23.9860 C.3       3 GLC5        0.0000 
     89 CA         -9.9190  -11.8920  -23.6080 C.3       9 GLL5        0.0000 
     90 CA        -11.8745  -12.0950  -23.3780 C.3       3 GLC5        0.0000 
     91 CA        -13.8300  -12.2980  -23.1480 C.3       6 GLP5        0.0000 
     92 CA         -5.3768  -17.7593  -32.6040 C.3       3 GLC5        0.0000 
     93 CA         -4.4320  -17.2540  -31.0550 C.3       9 GLL5        0.0000 
     94 CA         -3.4465  -18.3060  -34.5947 C.3       3 GLC5        0.0000 
     95 CA         -8.5135  -10.2808  -26.5340 C.3       3 GLC5        0.0000 
     96 CA         -8.9560   -8.1980  -26.9540 C.3       6 GLP5        0.0000 
     97 CA         -9.3689  -14.8181  -23.3055 C.3       3 GLC5        0.0000 
     98 CA         -7.7990  -13.1860  -23.5110 C.3       9 GLL5        0.0000 
     99 CA        -11.3532  -13.2810  -21.7745 C.3       3 GLC5        0.0000 
    100 CA        -12.9620  -13.8460  -21.6400 C.3       6 GLP5        0.0000 
    101 CA        -10.4158  -10.2140  -23.0530 C.3       3 GLC5        0.0000 
    102 CA        -10.0840  -12.1100  -22.2140 C.3       9 GLL5        0.0000 
    103 CA        -10.8300   -8.4270  -23.1950 C.3       6 GLP5        0.0000 
@<TRIPOS>BOND
@<TRIPOS>SUBSTRUCTURE
     1 ALC1        7 GROUP        1 X    ALC  0     ROOT ALC X 1
     2 SEC2        1 GROUP        1 X    SEC  0     **** SEC X 2
     3 GLC5        4 GROUP        1 X    GLC  0     **** GLC X 6
     4 ALP1        9 GROUP        1 Y    ALP  0     ROOT ALP Y 8
     5 SEP2        3 GROUP        1 Y    SEP  0     **** SEP Y 9
     6 GLP5        6 GROUP        1 Y    GLP  0     **** GLP Y 13
     7 ALL1        8 GROUP        1 Z    ALL  0     ROOT ALL Z 15
     8 SEL2        2 GROUP        1 Z    SEL  0     **** SEL Z 16
     9 GLL5        5 GROUP        1 Z    GLL  0     **** GLL Z 20
@<TRIPOS>SET

