#    Name: 2ztm_NAD_1_ligand
#    Modification time : Mon Apr  7 18:49:36 2014

@<TRIPOS>MOLECULE
2ztm_NAD_1_ligand
   70    74     1     0     0
SMALL
NO_CHARGES


@<TRIPOS>ATOM
      1 PA         -3.5550  -17.6010  -27.2970 P.3       1 NAD300      0.0000 
      2 O1A        -2.2170  -17.0210  -27.5930 O.co2     1 NAD300      0.0000 
      3 O2A        -3.6390  -18.9020  -26.5590 O.co2     1 NAD300      0.0000 
      4 O5B        -4.3430  -17.6840  -28.6770 O.3       1 NAD300      0.0000 
      5 C5B        -4.2090  -16.6370  -29.6930 C.3       1 NAD300      0.0000 
      6 C4B        -4.4320  -17.2540  -31.0550 C.3       1 NAD300      0.0000 
      7 O4B        -4.2300  -16.1180  -31.9820 O.3       1 NAD300      0.0000 
      8 C3B        -3.3610  -18.3210  -31.4610 C.3       1 NAD300      0.0000 
      9 O3B        -4.0590  -19.5100  -31.9400 O.3       1 NAD300      0.0000 
     10 C2B        -2.5450  -17.6800  -32.5480 C.3       1 NAD300      0.0000 
     11 O2B        -1.8990  -18.4840  -33.4710 O.3       1 NAD300      0.0000 
     12 C1B        -3.5490  -16.6520  -33.1090 C.3       1 NAD300      0.0000 
     13 N9A        -2.8140  -15.5650  -33.7330 N.pl3     1 NAD300      0.0000 
     14 C8A        -1.8470  -14.6730  -33.2690 C.2       1 NAD300      0.0000 
     15 N7A        -1.4260  -13.8260  -34.1940 N.2       1 NAD300      0.0000 
     16 C5A        -2.0910  -14.1110  -35.3220 C.ar      1 NAD300      0.0000 
     17 C6A        -2.0650  -13.5380  -36.6750 C.ar      1 NAD300      0.0000 
     18 N6A        -1.2780  -12.5360  -37.0030 N.pl3     1 NAD300      0.0000 
     19 N1A        -2.9380  -14.1420  -37.5820 N.ar      1 NAD300      0.0000 
     20 C2A        -3.7660  -15.1690  -37.3070 C.ar      1 NAD300      0.0000 
     21 N3A        -3.8260  -15.7520  -36.0360 N.ar      1 NAD300      0.0000 
     22 C4A        -2.9710  -15.1920  -35.0720 C.ar      1 NAD300      0.0000 
     23 O3         -4.4220  -16.5600  -26.4570 O.3       1 NAD300      0.0000 
     24 PN         -5.9960  -16.5110  -25.9870 P.3       1 NAD300      0.0000 
     25 O1N        -6.0220  -16.0510  -24.6000 O.co2     1 NAD300      0.0000 
     26 O2N        -6.6630  -17.7910  -26.3840 O.co2     1 NAD300      0.0000 
     27 O5D        -6.4880  -15.2760  -26.9060 O.3       1 NAD300      0.0000 
     28 C5D        -7.7420  -15.3590  -27.6530 C.3       1 NAD300      0.0000 
     29 C4D        -8.4770  -14.0730  -27.5750 C.3       1 NAD300      0.0000 
     30 O4D        -8.9900  -13.8870  -26.1820 O.3       1 NAD300      0.0000 
     31 C3D        -7.6040  -12.7860  -27.8520 C.3       1 NAD300      0.0000 
     32 O3D        -8.3070  -11.8560  -28.7040 O.3       1 NAD300      0.0000 
     33 C2D        -7.3810  -12.2010  -26.4520 C.3       1 NAD300      0.0000 
     34 O2D        -7.0320  -10.8490  -26.4660 O.3       1 NAD300      0.0000 
     35 C1D        -8.7610  -12.5260  -25.7760 C.3       1 NAD300      0.0000 
     36 N1N        -8.7720  -12.4210  -24.2710 N.pl3     1 NAD300      0.0000 
     37 C2N        -7.7990  -13.1860  -23.5110 C.ar      1 NAD300      0.0000 
     38 C3N        -8.0620  -13.6150  -22.2690 C.ar      1 NAD300      0.0000 
     39 C7N        -7.0490  -14.4090  -21.4560 C.2       1 NAD300      0.0000 
     40 O7N        -6.9010  -14.1080  -20.2560 O.2       1 NAD300      0.0000 
     41 N7N        -6.3550  -15.4030  -22.0220 N.am      1 NAD300      0.0000 
     42 C4N        -9.4050  -13.3220  -21.6040 C.ar      1 NAD300      0.0000 
     43 C5N       -10.0840  -12.1100  -22.2140 C.ar      1 NAD300      0.0000 
     44 C6N        -9.9190  -11.8920  -23.6080 C.ar      1 NAD300      0.0000 
     45 H          -3.2135  -16.1973  -29.6647 H         1 NAD300      0.0000 
     46 H          -4.9469  -15.8519  -29.5373 H         1 NAD300      0.0000 
     47 H          -5.3892  -17.6379  -31.1554 H         1 NAD300      0.0000 
     48 H          -2.7640  -18.5104  -30.6141 H         1 NAD300      0.0000 
     49 H          -1.8090  -17.0168  -31.9816 H         1 NAD300      0.0000 
     50 H          -4.1911  -17.1351  -33.7765 H         1 NAD300      0.0000 
     51 H          -1.5293  -14.7015  -32.3264 H         1 NAD300      0.0000 
     52 H          -1.3598  -12.2013  -37.9418 H         1 NAD300      0.0000 
     53 H          -0.6698  -12.2005  -36.2836 H         1 NAD300      0.0000 
     54 H          -4.3921  -15.5585  -38.0513 H         1 NAD300      0.0000 
     55 H          -8.3723  -16.1632  -27.2473 H         1 NAD300      0.0000 
     56 H          -7.5404  -15.5992  -28.7067 H         1 NAD300      0.0000 
     57 H          -9.3089  -14.0471  -28.2477 H         1 NAD300      0.0000 
     58 H          -6.6783  -13.1116  -28.2358 H         1 NAD300      0.0000 
     59 H          -6.6628  -12.8514  -25.9667 H         1 NAD300      0.0000 
     60 H          -9.4892  -11.8838  -26.2180 H         1 NAD300      0.0000 
     61 H          -6.8948  -13.3795  -23.9826 H         1 NAD300      0.0000 
     62 H          -6.5170  -15.5530  -22.9973 H         1 NAD300      0.0000 
     63 H          -5.7365  -15.9068  -21.4190 H         1 NAD300      0.0000 
     64 H          -9.7570  -13.8246  -20.9144 H         1 NAD300      0.0000 
     65 H         -10.6121  -11.5206  -21.6253 H         1 NAD300      0.0000 
     66 H         -10.6097  -11.3648  -24.1301 H         1 NAD300      0.0000 
     67 H          -3.3920  -19.9893  -32.5104 H         1 NAD300      0.0000 
     68 H          -1.5111  -19.2335  -32.9346 H         1 NAD300      0.0000 
     69 H          -8.5660  -12.3884  -29.5099 H         1 NAD300      0.0000 
     70 H          -7.2287  -10.5215  -25.5419 H         1 NAD300      0.0000 
@<TRIPOS>BOND
     1    2    1 ar   
     2    3    1 ar   
     3    4    1 1    
     4   23    1 1    
     5    5    4 1    
     6    6    5 1    
     7   45    5 1    
     8   46    5 1    
     9    7    6 1    
    10    8    6 1    
    11   47    6 1    
    12   12    7 1    
    13    9    8 1    
    14   10    8 1    
    15   48    8 1    
    16   67    9 1    
    17   11   10 1    
    18   12   10 1    
    19   49   10 1    
    20   68   11 1    
    21   13   12 1    
    22   50   12 1    
    23   14   13 1    
    24   22   13 1    
    25   15   14 2    
    26   51   14 1    
    27   16   15 1    
    28   17   16 ar   
    29   22   16 ar   
    30   18   17 1    
    31   19   17 ar   
    32   52   18 1    
    33   53   18 1    
    34   20   19 ar   
    35   21   20 ar   
    36   54   20 1    
    37   22   21 ar   
    38   24   23 1    
    39   25   24 ar   
    40   26   24 ar   
    41   27   24 1    
    42   28   27 1    
    43   29   28 1    
    44   55   28 1    
    45   56   28 1    
    46   30   29 1    
    47   31   29 1    
    48   57   29 1    
    49   35   30 1    
    50   32   31 1    
    51   33   31 1    
    52   58   31 1    
    53   69   32 1    
    54   34   33 1    
    55   35   33 1    
    56   59   33 1    
    57   70   34 1    
    58   36   35 1    
    59   60   35 1    
    60   37   36 ar   
    61   44   36 ar   
    62   38   37 ar   
    63   61   37 1    
    64   39   38 1    
    65   42   38 ar   
    66   40   39 2    
    67   41   39 am   
    68   62   41 1    
    69   63   41 1    
    70   43   42 ar   
    71   64   42 1    
    72   44   43 ar   
    73   65   43 1    
    74   66   44 1    
@<TRIPOS>SUBSTRUCTURE
     1 NAD300      1 GROUP   
@<TRIPOS>SET

