#    Name: 3v5w_8PR_1_INTS_M
#    Modification time : Tue Mar 25 00:05:39 2014

@<TRIPOS>MOLECULE
3v5w_8PR_1_INTS_M
   75     0     9     0     0
SMALL
NO_CHARGES


@<TRIPOS>ATOM
      1 CA         16.3310  -13.9885   46.0785 C.3       3 GLC5        0.0000 
      2 CA         15.2110  -13.5850   47.5370 C.3       9 GLL5        0.0000 
      3 CA         17.4510  -14.3920   44.6200 C.3       6 GLP5        0.0000 
      4 CA         17.9145  -12.3875   48.0065 C.3       3 GLC5        0.0000 
      5 CA         16.5820  -13.0420   49.3970 C.3       9 GLL5        0.0000 
      6 CA         19.2470  -11.7330   46.6160 C.3       6 GLP5        0.0000 
      7 CA         18.6865  -10.0855   52.9035 C.3       3 GLC5        0.0000 
      8 CA         17.0900   -9.0680   53.7710 C.3       9 GLL5        0.0000 
      9 CA         20.2830  -11.1030   52.0360 C.3       6 GLP5        0.0000 
     10 CA         18.5050  -10.1980   54.7365 C.3       3 GLC5        0.0000 
     11 CA         19.9200  -11.3280   55.7020 C.3       6 GLP5        0.0000 
     12 CA         18.5610  -12.1170   51.3975 C.3       3 GLC5        0.0000 
     13 CA         16.8390  -13.1310   50.7590 C.3       9 GLL5        0.0000 
     14 CA         19.0310  -15.6835   54.6040 C.3       3 GLC5        0.0000 
     15 CA         16.8880  -15.4620   54.8690 C.3       9 GLL5        0.0000 
     16 CA         21.1740  -15.9050   54.3390 C.3       6 GLP5        0.0000 
     17 CA         17.8075  -17.1420   54.5110 C.3       3 GLC5        0.0000 
     18 CA         18.7270  -18.8220   54.1530 C.3       6 GLP5        0.0000 
     19 CA         16.9645  -16.1515   51.4560 C.3       3 GLC5        0.0000 
     20 CA         16.4560  -15.3920   53.4130 C.3       9 GLL5        0.0000 
     21 CA         17.4730  -16.9110   49.4990 C.3       6 GLP5        0.0000 
     22 CA         17.1160  -17.2450   53.2070 C.3       3 GLC5        0.0000 
     23 CA         17.7760  -19.0980   53.0010 C.3       6 GLP5        0.0000 
     24 CA         16.2525  -13.1710   57.3715 C.3       3 GLC5        0.0000 
     25 CA         15.4990  -13.4020   55.3570 C.3       9 GLL5        0.0000 
     26 CA         17.0060  -12.9400   59.3860 C.3       6 GLP5        0.0000 
     27 CA         14.7655  -11.8305   56.2945 C.3       3 GLC5        0.0000 
     28 CA         14.0320  -10.2590   57.2320 C.3       6 GLP5        0.0000 
     29 CA         15.7495   -6.4030   51.6025 C.3       3 GLC5        0.0000 
     30 CA         14.2570   -5.6270   53.0750 C.3       9 GLL5        0.0000 
     31 CA         17.2420   -7.1790   50.1300 C.3       6 GLP5        0.0000 
     32 CA         15.0645   -4.5875   51.9380 C.3       3 GLC5        0.0000 
     33 CA         15.8720   -3.5480   50.8010 C.3       6 GLP5        0.0000 
     34 CA         12.5515   -5.4155   53.3600 C.3       3 GLC5        0.0000 
     35 CA         10.8460   -5.2040   53.6450 C.3       6 GLP5        0.0000 
     36 CA         12.9375   -5.9675   51.4190 C.3       3 GLC5        0.0000 
     37 CA         11.6180   -6.3080   49.7630 C.3       6 GLP5        0.0000 
     38 CA         14.3875   -4.9290   55.0010 C.3       3 GLC5        0.0000 
     39 CA         14.5180   -4.2310   56.9270 C.3       6 GLP5        0.0000 
     40 CA         14.3990  -11.0925   55.3870 C.3       3 GLC5        0.0000 
     41 CA         14.7660  -11.9260   53.5420 C.3       9 GLL5        0.0000 
     42 OD1        16.7585  -14.8610   57.0150 O.co2     2 ASC3        0.0000 
     43 OD1        15.9900  -14.7180   55.7310 O.co2     8 ASL3        0.0000 
     44 OD1        17.5270  -15.0040   58.2990 O.co2     5 ASP3        0.0000 
     45 N          16.1615   -4.3785   54.2360 N.am      1 SEC2        0.0000 
     46 N          15.6710   -5.6910   53.2390 N.am      7 SEL2        0.0000 
     47 N          16.6520   -3.0660   55.2330 N.am      4 SEP2        0.0000 
     48 CA         15.8900   -5.2830   52.0870 C.3       3 GLC5        0.0000 
     49 CA         15.9080   -7.0180   53.3730 C.3       9 GLL5        0.0000 
     50 CA         16.4045  -15.2680   48.8485 C.3       3 GLC5        0.0000 
     51 CA         15.4610  -13.6650   48.8590 C.3       9 GLL5        0.0000 
     52 CA         14.2785  -13.4415   46.6270 C.3       3 GLC5        0.0000 
     53 CA         13.2210  -13.2580   45.0560 C.3       6 GLP5        0.0000 
     54 CA         13.5485  -12.7647   48.6707 C.3       3 GLC5        0.0000 
     55 CA         14.5940  -14.3720   49.6790 C.3       9 GLL5        0.0000 
     56 CA         12.1320  -11.5310   48.4030 C.3       6 GLP5        0.0000 
     57 CA         18.4718  -13.7533   50.1250 C.3       3 GLC5        0.0000 
     58 CA         20.2330  -14.4200   50.1720 C.3       6 GLP5        0.0000 
     59 CA         17.9528   -6.1107   52.9225 C.3       3 GLC5        0.0000 
     60 CA         17.0870   -7.6730   53.7010 C.3       9 GLL5        0.0000 
     61 CA         19.4080   -4.8760   52.3080 C.3       6 GLP5        0.0000 
     62 CA         16.2042   -6.0742   55.1615 C.3       3 GLC5        0.0000 
     63 CA         15.9110   -4.8030   56.7860 C.3       6 GLP5        0.0000 
     64 CA         16.2982   -9.4730   51.6846 C.3       3 GLC5        0.0000 
     65 CA         14.7490   -9.1180   53.1910 C.3       9 GLL5        0.0000 
     66 CA         16.9680   -9.6730   49.9510 C.3       6 GLP5        0.0000 
     67 CA         16.5269  -11.5244   49.7097 C.3       3 GLC5        0.0000 
     68 CA         16.4601   -9.2881   55.4885 C.3       3 GLC5        0.0000 
     69 CA         15.9260   -9.7880   53.5200 C.3       9 GLL5        0.0000 
     70 CA         16.4130   -9.4970   57.3490 C.3       6 GLP5        0.0000 
     71 CA         15.1454   -8.3889   55.2621 C.3       3 GLC5        0.0000 
     72 CA         14.9610   -9.0550   57.2580 C.3       6 GLP5        0.0000 
     73 CA         16.4339   -7.3601   51.7313 C.3       3 GLC5        0.0000 
     74 CA         14.7540   -7.7370   53.1280 C.3       9 GLL5        0.0000 
     75 CA         16.7512  -15.2594   50.0115 C.3       3 GLC5        0.0000 
@<TRIPOS>BOND
@<TRIPOS>SUBSTRUCTURE
     1 SEC2       45 GROUP        1 X    SEC  0     ROOT SEC X 2
     2 ASC3       42 GROUP        1 X    ASC  0     **** ASC X 3
     3 GLC5        1 GROUP        1 X    GLC  0     **** GLC X 6
     4 SEP2       47 GROUP        1 Y    SEP  0     ROOT SEP Y 9
     5 ASP3       44 GROUP        1 Y    ASP  0     **** ASP Y 10
     6 GLP5        3 GROUP        1 Y    GLP  0     **** GLP Y 13
     7 SEL2       46 GROUP        1 Z    SEL  0     ROOT SEL Z 16
     8 ASL3       43 GROUP        1 Z    ASL  0     **** ASL Z 17
     9 GLL5        2 GROUP        1 Z    GLL  0     **** GLL Z 20
@<TRIPOS>SET

