#    Name: 3v5w_8PR_1_ligand
#    Modification time : Tue Mar 25 00:05:39 2014

@<TRIPOS>MOLECULE
3v5w_8PR_1_ligand
   43    46     1     0     0
SMALL
NO_CHARGES


@<TRIPOS>ATOM
      1 FAA        15.2110  -13.5850   47.5370 F         1 8PR701      0.0000 
      2 CAB        14.5940  -14.3720   49.6790 C.ar      1 8PR701      0.0000 
      3 CAC        16.5820  -13.0420   49.3970 C.ar      1 8PR701      0.0000 
      4 CAD        17.0900   -9.0680   53.7710 C.ar      1 8PR701      0.0000 
      5 CAE        14.8520  -14.4650   51.0390 C.ar      1 8PR701      0.0000 
      6 CAF        16.8390  -13.1310   50.7590 C.ar      1 8PR701      0.0000 
      7 CAG        17.0870   -7.6730   53.7010 C.ar      1 8PR701      0.0000 
      8 CAH        14.7490   -9.1180   53.1910 C.ar      1 8PR701      0.0000 
      9 CAI        16.8880  -15.4620   54.8690 C.3       1 8PR701      0.0000 
     10 CAJ        16.4560  -15.3920   53.4130 C.3       1 8PR701      0.0000 
     11 CAK        15.4990  -13.4020   55.3570 C.3       1 8PR701      0.0000 
     12 CAL        14.2570   -5.6270   53.0750 C.3       1 8PR701      0.0000 
     13 CAM        14.7660  -11.9260   53.5420 C.3       1 8PR701      0.0000 
     14 NAN        15.9900  -14.7180   55.7310 N.4       1 8PR701      0.0000 
     15 OAO        15.9590  -11.1480   53.5910 O.3       1 8PR701      0.0000 
     16 OAP        15.6710   -5.6910   53.2390 O.3       1 8PR701      0.0000 
     17 OAQ        13.7170   -6.9160   52.8360 O.3       1 8PR701      0.0000 
     18 CAR        15.4610  -13.6650   48.8590 C.ar      1 8PR701      0.0000 
     19 CAS        15.9260   -9.7880   53.5200 C.ar      1 8PR701      0.0000 
     20 CAT        15.9740  -13.8400   51.5810 C.ar      1 8PR701      0.0000 
     21 CAU        15.9080   -7.0180   53.3730 C.ar      1 8PR701      0.0000 
     22 CAV        14.7540   -7.7370   53.1280 C.ar      1 8PR701      0.0000 
     23 CAW        15.1180  -13.3590   53.8810 C.3       1 8PR701      0.0000 
     24 CAX        16.2550  -13.9320   53.0300 C.3       1 8PR701      0.0000 
     25 H          13.7622  -14.8260   49.2801 H         1 8PR701      0.0000 
     26 H          17.2200  -12.5157   48.7857 H         1 8PR701      0.0000 
     27 H          17.9600   -9.5645   54.0100 H         1 8PR701      0.0000 
     28 H          14.2167  -14.9948   51.6503 H         1 8PR701      0.0000 
     29 H          17.6685  -12.6724   51.1573 H         1 8PR701      0.0000 
     30 H          17.9412   -7.1467   53.8889 H         1 8PR701      0.0000 
     31 H          13.8938   -9.6467   52.9992 H         1 8PR701      0.0000 
     32 H          17.9158  -15.0703   54.9403 H         1 8PR701      0.0000 
     33 H          16.9266  -16.5234   55.1639 H         1 8PR701      0.0000 
     34 H          15.5260  -15.9294   53.2851 H         1 8PR701      0.0000 
     35 H          17.2233  -15.8265   52.7864 H         1 8PR701      0.0000 
     36 H          16.2624  -12.6323   55.5351 H         1 8PR701      0.0000 
     37 H          14.6125  -13.1310   55.9465 H         1 8PR701      0.0000 
     38 H          14.0031   -4.9419   52.2355 H         1 8PR701      0.0000 
     39 H          13.7902   -5.1761   53.9790 H         1 8PR701      0.0000 
     40 H          14.3136  -11.9122   52.5482 H         1 8PR701      0.0000 
     41 H          14.0246  -11.5773   54.2641 H         1 8PR701      0.0000 
     42 H          14.2358  -13.9763   53.7536 H         1 8PR701      0.0000 
     43 H          17.1629  -13.3985   53.2706 H         1 8PR701      0.0000 
@<TRIPOS>BOND
     1   18    1 1    
     2    5    2 ar   
     3   18    2 ar   
     4   25    2 1    
     5    6    3 ar   
     6   18    3 ar   
     7   26    3 1    
     8    7    4 ar   
     9   19    4 ar   
    10   27    4 1    
    11   20    5 ar   
    12   28    5 1    
    13   20    6 ar   
    14   29    6 1    
    15   21    7 ar   
    16   30    7 1    
    17   19    8 ar   
    18   22    8 ar   
    19   31    8 1    
    20   10    9 1    
    21   14    9 1    
    22   32    9 1    
    23   33    9 1    
    24   24   10 1    
    25   34   10 1    
    26   35   10 1    
    27   14   11 1    
    28   23   11 1    
    29   36   11 1    
    30   37   11 1    
    31   16   12 1    
    32   17   12 1    
    33   38   12 1    
    34   39   12 1    
    35   15   13 1    
    36   23   13 1    
    37   40   13 1    
    38   41   13 1    
    39   19   15 1    
    40   21   16 1    
    41   22   17 1    
    42   24   20 1    
    43   22   21 ar   
    44   24   23 1    
    45   42   23 1    
    46   43   24 1    
@<TRIPOS>SUBSTRUCTURE
     1 8PR701      1 GROUP   
@<TRIPOS>SET

