#    Name: 1TW2_1_CAVITY_N1_6.mol2
#    Modification time : Tue Mar 11 12:25:06 2014

@<TRIPOS>MOLECULE
1TW2_1_CAVITY_N1_6.mol2
   54     0     5     0     0
SMALL
NO_CHARGES


@<TRIPOS>ATOM
      1 NZ         18.9058   71.4302    7.6007 N.2       3 LYS4        0.0000 
      2 NZ         17.4888   71.4777    8.0905 N.2       3 LYS4        0.0000 
      3 OG         18.5504   70.2987    6.6823 O.2       1 SER1        0.0000 
      4 NZ         17.1334   70.3463    7.1721 N.2       3 LYS4        0.0000 
      5 O          16.7780   69.2148    6.2536 O.2       2 ALA2        0.0000 
      6 N          19.6016   71.5779    9.5992 N.2       2 ALA2        0.0000 
      7 N          18.1846   71.6255   10.0890 N.2       2 ALA2        0.0000 
      8 N          16.7676   71.6731   10.5788 N.2       2 ALA2        0.0000 
      9 OG         19.2461   70.4465    8.6808 O.2       1 SER1        0.0000 
     10 N          17.8292   70.4941    9.1706 N.2       2 ALA2        0.0000 
     11 CA         16.4122   70.5416    9.6604 C.3       5 GLY6        0.0000 
     12 CZ         18.8907   69.3151    7.7624 C.ar      4 PHE5        0.0000 
     13 CZ         17.4737   69.3626    8.2522 C.ar      4 PHE5        0.0000 
     14 CA         16.0567   69.4102    8.7419 C.3       5 GLY6        0.0000 
     15 CZ         17.1183   68.2312    7.3337 C.ar      4 PHE5        0.0000 
     16 NZ         15.7013   68.2787    7.8235 N.2       3 LYS4        0.0000 
     17 CA         14.2843   68.3263    8.3133 C.3       5 GLY6        0.0000 
     18 N          17.4634   71.8208   12.5773 N.2       2 ALA2        0.0000 
     19 N          18.5249   70.6418   11.1691 N.2       2 ALA2        0.0000 
     20 N          17.1079   70.6894   11.6589 N.2       2 ALA2        0.0000 
     21 CA         15.6910   70.7370   12.1487 C.3       5 GLY6        0.0000 
     22 N          14.2740   70.7845   12.6385 N.2       2 ALA2        0.0000 
     23 CZ         12.8570   70.8321   13.1283 C.ar      4 PHE5        0.0000 
     24 CA         19.5865   69.4628    9.7609 C.3       5 GLY6        0.0000 
     25 CA         18.1695   69.5104   10.2507 C.3       5 GLY6        0.0000 
     26 CA         16.7525   69.5580   10.7405 C.3       5 GLY6        0.0000 
     27 CA         15.3355   69.6055   11.2303 C.3       5 GLY6        0.0000 
     28 CA         13.9185   69.6531   11.7200 C.3       5 GLY6        0.0000 
     29 O          12.5016   69.7006   12.2098 O.2       2 ALA2        0.0000 
     30 CZ         19.2310   68.3314    8.8425 C.ar      4 PHE5        0.0000 
     31 CA         17.8141   68.3790    9.3323 C.3       5 GLY6        0.0000 
     32 CA         16.3971   68.4265    9.8220 C.3       5 GLY6        0.0000 
     33 CA         14.9801   68.4741   10.3118 C.3       5 GLY6        0.0000 
     34 O          13.5631   68.5216   10.8016 O.2       2 ALA2        0.0000 
     35 NZ         16.0416   67.2951    8.9036 N.2       3 LYS4        0.0000 
     36 N          14.6247   67.3426    9.3934 N.2       2 ALA2        0.0000 
     37 CA         17.8037   70.8372   13.6574 C.3       5 GLY6        0.0000 
     38 CZ         16.3867   70.8847   14.1472 C.ar      4 PHE5        0.0000 
     39 CA         18.8652   69.6582   12.2492 C.3       5 GLY6        0.0000 
     40 CA         17.4483   69.7057   12.7390 C.3       5 GLY6        0.0000 
     41 N          16.0313   69.7533   13.2288 N.2       2 ALA2        0.0000 
     42 CZ         14.6143   69.8009   13.7186 C.ar      4 PHE5        0.0000 
     43 CZ         13.1973   69.8484   14.2084 C.ar      4 PHE5        0.0000 
     44 CA         17.0928   68.5743   11.8206 C.3       5 GLY6        0.0000 
     45 CA         15.6758   68.6219   12.3103 C.3       5 GLY6        0.0000 
     46 N          14.2589   68.6694   12.8001 N.2       2 ALA2        0.0000 
     47 CA         12.8419   68.7170   13.2899 C.3       5 GLY6        0.0000 
     48 CA         13.9034   67.5380   11.8817 C.3       5 GLY6        0.0000 
     49 CZ         18.1440   69.8535   14.7375 C.ar      4 PHE5        0.0000 
     50 CZ         16.7270   69.9011   15.2273 C.ar      4 PHE5        0.0000 
     51 CA         17.7886   68.7221   13.8191 C.3       5 GLY6        0.0000 
     52 N          16.3716   68.7696   14.3089 N.2       2 ALA2        0.0000 
     53 N          14.9546   68.8172   14.7987 N.2       2 ALA2        0.0000 
     54 N          18.1289   67.7384   14.8992 N.2       2 ALA2        0.0000 
@<TRIPOS>BOND
@<TRIPOS>SUBSTRUCTURE
     1 SER1        3 GROUP   
     2 ALA2        5 GROUP   
     3 LYS4        1 GROUP   
     4 PHE5       12 GROUP   
     5 GLY6       11 GROUP   
@<TRIPOS>SET

