#    Name: 1tw2_SAH_1_INTS_M
#    Modification time : Tue Mar 25 05:44:19 2014

@<TRIPOS>MOLECULE
1tw2_SAH_1_INTS_M
   76     0     9     0     0
SMALL
NO_CHARGES


@<TRIPOS>ATOM
      1 O          16.4890   73.6270   10.3410 O.2       1 ALC1        0.0000 
      2 O          16.4020   73.3670   11.8610 O.2       7 ALL1        0.0000 
      3 O          16.5760   73.8870    8.8210 O.2       4 ALP1        0.0000 
      4 O          17.6935   73.6315   12.1710 O.2       1 ALC1        0.0000 
      5 O          18.9850   73.8960   12.4810 O.2       4 ALP1        0.0000 
      6 O          15.4210   73.9180   12.5240 O.2       1 ALC1        0.0000 
      7 O          14.4400   74.4690   13.1870 O.2       4 ALP1        0.0000 
      8 CA         15.2330   73.3325   10.7025 C.3       3 GLC5        0.0000 
      9 CA         16.4530   71.9170   11.7740 C.3       9 GLL5        0.0000 
     10 CA         14.0130   74.7480    9.6310 C.3       6 GLP5        0.0000 
     11 CA         14.9320   71.4930   10.3455 C.3       3 GLC5        0.0000 
     12 CA         13.4110   71.0690    8.9170 C.3       6 GLP5        0.0000 
     13 CA         19.3775   71.6120   12.3585 C.3       3 GLC5        0.0000 
     14 CA         17.7570   71.5980   11.0580 C.3       9 GLL5        0.0000 
     15 CA         20.9980   71.6260   13.6590 C.3       6 GLP5        0.0000 
     16 CA         15.5120   70.7520    9.5180 C.3       3 GLC5        0.0000 
     17 CA         17.6130   70.4350   10.1190 C.3       9 GLL5        0.0000 
     18 CA         19.1570   68.1380    8.5180 C.3       3 GLC5        0.0000 
     19 CA         19.1390   70.1090    9.5480 C.3       9 GLL5        0.0000 
     20 CA         19.1750   66.1670    7.4880 C.3       6 GLP5        0.0000 
     21 N          17.3765   73.0185   14.7515 N.am      2 SEC2        0.0000 
     22 N          17.1410   71.9490   13.9920 N.am      8 SEL2        0.0000 
     23 N          17.6120   74.0880   15.5110 N.am      5 SEP2        0.0000 
     24 CA         19.9560   73.3495    8.8955 C.3       3 GLC5        0.0000 
     25 CA         19.7640   71.2360    8.4760 C.3       9 GLL5        0.0000 
     26 CA         20.1480   75.4630    9.3150 C.3       6 GLP5        0.0000 
     27 CA         17.7115   73.4940    7.1790 C.3       3 GLC5        0.0000 
     28 CA         18.7660   71.5520    7.3560 C.3       9 GLL5        0.0000 
     29 CA         16.6570   75.4360    7.0020 C.3       6 GLP5        0.0000 
     30 CA         18.7620   68.2645    7.0030 C.3       3 GLC5        0.0000 
     31 CA         18.3490   70.3620    6.5180 C.3       9 GLL5        0.0000 
     32 O          16.3065   71.1655    6.6310 O.2       1 ALC1        0.0000 
     33 O          17.0140   70.0820    6.8180 O.2       7 ALL1        0.0000 
     34 O          15.5990   72.2490    6.4440 O.2       4 ALP1        0.0000 
     35 O          16.1230   70.9250    5.5745 O.2       1 ALC1        0.0000 
     36 O          15.2320   71.7680    4.3310 O.2       4 ALP1        0.0000 
     37 N          17.0795   68.9600    4.2625 N.am      2 SEC2        0.0000 
     38 N          17.2430   70.5750    4.3450 N.am      8 SEL2        0.0000 
     39 N          16.9160   67.3450    4.1800 N.am      5 SEP2        0.0000 
     40 O          16.4210   71.4120    5.3945 O.2       1 ALC1        0.0000 
     41 O          17.2430   70.5750    4.3450 O.2       7 ALL1        0.0000 
     42 O          16.2375   71.1715    4.3380 O.2       1 ALC1        0.0000 
     43 CA         17.7330   73.8465    6.0520 C.3       3 GLC5        0.0000 
     44 CA         18.8090   72.2570    5.1020 C.3       9 GLL5        0.0000 
     45 CA         19.6840   74.2150    5.0235 C.3       3 GLC5        0.0000 
     46 CA         20.5590   76.1730    4.9450 C.3       6 GLP5        0.0000 
     47 CA         19.5370   72.5055    1.4585 C.3       3 GLC5        0.0000 
     48 CA         20.3350   74.0050    2.3000 C.3       9 GLL5        0.0000 
     49 CA         18.7390   71.0060    0.6170 C.3       6 GLP5        0.0000 
     50 CA         18.7190   73.4975    1.2075 C.3       3 GLC5        0.0000 
     51 CA         20.1870   75.1050    1.3240 C.3       9 GLL5        0.0000 
     52 CA         17.2510   71.8900    1.0910 C.3       6 GLP5        0.0000 
     53 CA         19.1850   76.5725    0.1315 C.3       3 GLC5        0.0000 
     54 CA         18.1830   78.0400   -1.0610 C.3       6 GLP5        0.0000 
     55 O          21.0650   76.6845   -0.5265 O.2       1 ALC1        0.0000 
     56 O          21.1470   75.3610    0.4350 O.2       7 ALL1        0.0000 
     57 O          20.9830   78.0080   -1.4880 O.2       4 ALP1        0.0000 
     58 N          19.1175   77.3795    1.1965 N.am      2 SEC2        0.0000 
     59 N          19.0650   75.8130    1.4160 N.am      8 SEL2        0.0000 
     60 N          19.1700   78.9460    0.9770 N.am      5 SEP2        0.0000 
     61 CA         15.8710   74.9740    2.8480 C.3       3 GLC5        0.0000 
     62 CA         17.9610   75.6100    2.3600 C.3       9 GLL5        0.0000 
     63 CA         13.7810   74.3380    3.3360 C.3       6 GLP5        0.0000 
     64 CA         17.6060   73.7500    1.7255 C.3       3 GLC5        0.0000 
     65 CA         18.0720   76.8250    0.6495 C.3       3 GLC5        0.0000 
     66 CA         18.7395   77.5680    2.8775 C.3       3 GLC5        0.0000 
     67 CA         19.5180   79.5260    3.3950 C.3       6 GLP5        0.0000 
     68 CA         18.3070   72.8275    2.1530 C.3       3 GLC5        0.0000 
     69 CA         19.3630   73.7650    3.2150 C.3       9 GLL5        0.0000 
     70 CA         18.7720   68.7190   10.7248 C.3       3 GLC5        0.0000 
     71 CA         19.1680   67.1660   11.6160 C.3       6 GLP5        0.0000 
     72 CA         19.7557   69.3790    5.1620 C.3       3 GLC5        0.0000 
     73 CA         21.1150   68.1850    4.5300 C.3       6 GLP5        0.0000 
     74 CA         18.8334   70.6510    3.8425 C.3       3 GLC5        0.0000 
     75 CA         18.4440   70.7840    5.0700 C.3       9 GLL5        0.0000 
     76 CA         19.0640   69.8870    2.2370 C.3       6 GLP5        0.0000 
@<TRIPOS>BOND
@<TRIPOS>SUBSTRUCTURE
     1 ALC1        1 GROUP        1 X    ALC  0     ROOT ALC X 1
     2 SEC2       21 GROUP        1 X    SEC  0     **** SEC X 2
     3 GLC5        8 GROUP        1 X    GLC  0     **** GLC X 6
     4 ALP1        3 GROUP        1 Y    ALP  0     ROOT ALP Y 8
     5 SEP2       23 GROUP        1 Y    SEP  0     **** SEP Y 9
     6 GLP5       10 GROUP        1 Y    GLP  0     **** GLP Y 13
     7 ALL1        2 GROUP        1 Z    ALL  0     ROOT ALL Z 15
     8 SEL2       22 GROUP        1 Z    SEL  0     **** SEL Z 16
     9 GLL5        9 GROUP        1 Z    GLL  0     **** GLL Z 20
@<TRIPOS>SET

