#    Name: 1tw2_SAH_1_ligand
#    Modification time : Tue Mar 25 05:44:20 2014

@<TRIPOS>MOLECULE
1tw2_SAH_1_ligand
   46    48     1     0     0
SMALL
NO_CHARGES


@<TRIPOS>ATOM
      1 N          16.4020   73.3670   11.8610 N.4       1 SAH635      0.0000 
      2 CA         16.4530   71.9170   11.7740 C.3       1 SAH635      0.0000 
      3 CB         17.7570   71.5980   11.0580 C.3       1 SAH635      0.0000 
      4 CG         17.6130   70.4350   10.1190 C.3       1 SAH635      0.0000 
      5 SD         19.1390   70.1090    9.5480 S.3       1 SAH635      0.0000 
      6 C          16.5200   71.3250   13.1450 C.2       1 SAH635      0.0000 
      7 O          17.1410   71.9490   13.9920 O.co2     1 SAH635      0.0000 
      8 OXT        16.0010   70.2540   13.4230 O.co2     1 SAH635      0.0000 
      9 C5'        19.7640   71.2360    8.4760 C.3       1 SAH635      0.0000 
     10 C4'        18.7660   71.5520    7.3560 C.3       1 SAH635      0.0000 
     11 O4'        19.1540   72.5930    6.4400 O.3       1 SAH635      0.0000 
     12 C3'        18.3490   70.3620    6.5180 C.3       1 SAH635      0.0000 
     13 O3'        17.0140   70.0820    6.8180 O.3       1 SAH635      0.0000 
     14 C2'        18.4440   70.7840    5.0700 C.3       1 SAH635      0.0000 
     15 O2'        17.2430   70.5750    4.3450 O.3       1 SAH635      0.0000 
     16 C1'        18.8090   72.2570    5.1020 C.3       1 SAH635      0.0000 
     17 N9         19.6800   72.7640    4.0160 N.pl3     1 SAH635      0.0000 
     18 C8         20.8900   72.3420    3.5970 C.2       1 SAH635      0.0000 
     19 N7         21.2970   73.0980    2.5460 N.2       1 SAH635      0.0000 
     20 C5         20.3350   74.0050    2.3000 C.ar      1 SAH635      0.0000 
     21 C6         20.1870   75.1050    1.3240 C.ar      1 SAH635      0.0000 
     22 N6         21.1470   75.3610    0.4350 N.pl3     1 SAH635      0.0000 
     23 N1         19.0650   75.8130    1.4160 N.ar      1 SAH635      0.0000 
     24 C2         17.9610   75.6100    2.3600 C.ar      1 SAH635      0.0000 
     25 N3         18.2090   74.5010    3.2820 N.ar      1 SAH635      0.0000 
     26 C4         19.3630   73.7650    3.2150 C.ar      1 SAH635      0.0000 
     27 H          15.6526   71.5258   11.2264 H         1 SAH635      0.0000 
     28 H          18.5276   71.3748   11.8067 H         1 SAH635      0.0000 
     29 H          18.0816   72.4852   10.4997 H         1 SAH635      0.0000 
     30 H          17.0293   70.6744    9.2674 H         1 SAH635      0.0000 
     31 H          17.2940   69.5540   10.6144 H         1 SAH635      0.0000 
     32 H          20.6666   70.7993    8.0864 H         1 SAH635      0.0000 
     33 H          19.9832   72.1091    9.0649 H         1 SAH635      0.0000 
     34 H          17.8104   71.8962    7.8647 H         1 SAH635      0.0000 
     35 H          19.0041   69.5618    6.6988 H         1 SAH635      0.0000 
     36 H          19.2867   70.2602    4.6293 H         1 SAH635      0.0000 
     37 H          17.7630   72.7740    4.9277 H         1 SAH635      0.0000 
     38 H          21.3972   71.6091    3.9848 H         1 SAH635      0.0000 
     39 H          21.9487   74.7642    0.4690 H         1 SAH635      0.0000 
     40 H          20.9790   76.1268   -0.1858 H         1 SAH635      0.0000 
     41 H          17.1736   76.1401    2.3704 H         1 SAH635      0.0000 
     42 H          17.1796   73.7361   12.3700 H         1 SAH635      0.0000 
     43 H          16.4142   73.7940   10.9568 H         1 SAH635      0.0000 
     44 H          15.5731   73.6824   12.3229 H         1 SAH635      0.0000 
     45 H          16.4840   70.7203    6.2597 H         1 SAH635      0.0000 
     46 H          16.5170   70.9120    4.9445 H         1 SAH635      0.0000 
@<TRIPOS>BOND
     1    2    1 1    
     2   42    1 1    
     3   43    1 1    
     4   44    1 1    
     5    3    2 1    
     6    6    2 1    
     7   27    2 1    
     8    4    3 1    
     9   28    3 1    
    10   29    3 1    
    11    5    4 1    
    12   30    4 1    
    13   31    4 1    
    14    9    5 1    
    15    7    6 ar   
    16    8    6 ar   
    17   10    9 1    
    18   32    9 1    
    19   33    9 1    
    20   11   10 1    
    21   12   10 1    
    22   34   10 1    
    23   16   11 1    
    24   13   12 1    
    25   14   12 1    
    26   35   12 1    
    27   45   13 1    
    28   15   14 1    
    29   16   14 1    
    30   36   14 1    
    31   46   15 1    
    32   17   16 1    
    33   37   16 1    
    34   18   17 1    
    35   26   17 1    
    36   19   18 2    
    37   38   18 1    
    38   20   19 1    
    39   21   20 ar   
    40   26   20 ar   
    41   22   21 1    
    42   23   21 ar   
    43   39   22 1    
    44   40   22 1    
    45   24   23 ar   
    46   25   24 ar   
    47   41   24 1    
    48   26   25 ar   
@<TRIPOS>SUBSTRUCTURE
     1 SAH635      1 GROUP   
@<TRIPOS>SET

