#    Name: 2pgt_GPR_1_INTS_M
#    Modification time : Mon Mar 24 18:58:05 2014

@<TRIPOS>MOLECULE
2pgt_GPR_1_INTS_M
   73     0    15     0     0
SMALL
NO_CHARGES


@<TRIPOS>ATOM
      1 OD1        20.3610   -0.3120   11.8810 O.co2     3 ASC3        0.0000 
      2 OD1        19.8370   -1.5660   10.6840 O.co2    13 ASL3        0.0000 
      3 OD1        20.8850    0.9420   13.0780 O.co2     8 ASP3        0.0000 
      4 OD1        20.1860   -0.0675   10.8175 O.co2     3 ASC3        0.0000 
      5 OD1        20.5350    1.4310   10.9510 O.co2     8 ASP3        0.0000 
      6 O          18.6760   -1.0000   10.4025 O.2       1 ALC1        0.0000 
      7 O          19.8370   -1.5660   10.6840 O.2      11 ALL1        0.0000 
      8 O          17.5150   -0.4340   10.1210 O.2       6 ALP1        0.0000 
      9 O          20.1860   -0.0675   10.8175 O.2       1 ALC1        0.0000 
     10 O          20.5350    1.4310   10.9510 O.2       6 ALP1        0.0000 
     11 N          16.8485   -3.9835    8.6455 N.am      2 SEC2        0.0000 
     12 N          18.0560   -3.8210    8.4810 N.am     12 SEL2        0.0000 
     13 N          15.6410   -4.1460    8.8100 N.am      7 SEP2        0.0000 
     14 NZ         19.3150   -4.9885   11.9325 N.4       4 LYC4        0.0000 
     15 NZ         18.3170   -3.9020   10.7180 N.4      14 LYL4        0.0000 
     16 NZ         20.3130   -6.0750   13.1470 N.4       9 LYP4        0.0000 
     17 N          16.9790   -4.0240    9.7640 N.am      2 SEC2        0.0000 
     18 N          18.3170   -3.9020   10.7180 N.am     12 SEL2        0.0000 
     19 N          17.4665   -4.9430   10.8005 N.am      2 SEC2        0.0000 
     20 N          16.6160   -5.9840   10.8830 N.am      7 SEP2        0.0000 
     21 CA         22.2205   -2.7795    6.5390 C.3       5 GLC5        0.0000 
     22 CA         21.5580   -3.9020    8.2200 C.3      15 GLL5        0.0000 
     23 CA         22.8830   -1.6570    4.8580 C.3      10 GLP5        0.0000 
     24 O          22.1340   -5.1745    6.0690 O.2       1 ALC1        0.0000 
     25 O          23.2160   -5.0340    6.8820 O.2      11 ALL1        0.0000 
     26 O          21.0520   -5.3150    5.2560 O.2       6 ALP1        0.0000 
     27 N          22.9920   -4.2730    3.8010 N.am      2 SEC2        0.0000 
     28 N          24.3080   -4.6170    4.4940 N.am     12 SEL2        0.0000 
     29 N          21.6760   -3.9290    3.1080 N.am      7 SEP2        0.0000 
     30 CA         24.5765   -7.4920    4.3915 C.3       5 GLC5        0.0000 
     31 CA         24.4160   -7.2070    6.4160 C.3      15 GLL5        0.0000 
     32 CA         24.7370   -7.7770    2.3670 C.3      10 GLP5        0.0000 
     33 CA         26.2600   -6.0525    2.5835 C.3       5 GLC5        0.0000 
     34 CA         26.9160   -4.6080    3.8360 C.3      15 GLL5        0.0000 
     35 CA         25.6040   -7.4970    1.3310 C.3      10 GLP5        0.0000 
     36 CA         26.2525   -3.8840    2.2300 C.3       5 GLC5        0.0000 
     37 CA         25.5890   -3.1600    0.6240 C.3      10 GLP5        0.0000 
     38 NZ         27.7655   -1.3310    2.5700 N.4       4 LYC4        0.0000 
     39 NZ         28.1800   -2.6620    3.0470 N.4      14 LYL4        0.0000 
     40 NZ         27.3510    0.0000    2.0930 N.4       9 LYP4        0.0000 
     41 N          27.9980   -3.4815    1.8150 N.am      2 SEC2        0.0000 
     42 N          28.1800   -2.6620    3.0470 N.am     12 SEL2        0.0000 
     43 N          27.8160   -4.3010    0.5830 N.am      7 SEP2        0.0000 
     44 N          27.7655   -1.3310    2.5700 N.am      2 SEC2        0.0000 
     45 N          27.3510    0.0000    2.0930 N.am      7 SEP2        0.0000 
     46 NZ         27.1960   -1.2175    3.4895 N.4       4 LYC4        0.0000 
     47 NZ         27.0410   -2.4350    4.8860 N.4      14 LYL4        0.0000 
     48 N          26.2685   -2.1545    6.0625 N.am      2 SEC2        0.0000 
     49 N          27.0410   -2.4350    4.8860 N.am     12 SEL2        0.0000 
     50 N          25.4960   -1.8740    7.2390 N.am      7 SEP2        0.0000 
     51 N          26.7875  -12.4080    8.0690 N.am      2 SEC2        0.0000 
     52 N          26.0350  -10.9820    8.4120 N.am     12 SEL2        0.0000 
     53 N          27.5400  -13.8340    7.7260 N.am      7 SEP2        0.0000 
     54 O          27.2445  -11.0725    8.6110 O.2       1 ALC1        0.0000 
     55 O          26.0350  -10.9820    8.4120 O.2      11 ALL1        0.0000 
     56 O          28.4540  -11.1630    8.8100 O.2       6 ALP1        0.0000 
     57 CA         20.5152   -5.0825    9.8560 C.3       5 GLC5        0.0000 
     58 CA         21.2550   -3.3230    9.5580 C.3      15 GLL5        0.0000 
     59 CA         19.9590   -6.7450   10.8350 C.3      10 GLP5        0.0000 
     60 CA         22.4728   -8.4653    6.0318 C.3       5 GLC5        0.0000 
     61 CA         23.5910   -8.0220    7.7610 C.3      15 GLL5        0.0000 
     62 CA         20.9420   -9.3160    4.9750 C.3      10 GLP5        0.0000 
     63 CA         26.5877   -7.2565   11.7387 C.3       5 GLC5        0.0000 
     64 CA         26.3840   -7.2340    9.6270 C.3      15 GLL5        0.0000 
     65 CA         26.2140   -7.6320   13.7440 C.3      10 GLP5        0.0000 
     66 CA         25.3062  -11.1768    3.3213 C.3       5 GLC5        0.0000 
     67 CA         26.0170  -10.9190    5.2970 C.3      15 GLL5        0.0000 
     68 CA         24.1720  -11.4800    1.9010 C.3      10 GLP5        0.0000 
     69 CA         27.3426  -12.0414    6.0556 C.3       5 GLC5        0.0000 
     70 CA         26.1760  -10.0040    6.3330 C.3      15 GLL5        0.0000 
     71 CA         28.3770  -13.6440    6.5740 C.3      10 GLP5        0.0000 
     72 CA         24.6134  -11.9499    6.2105 C.3       5 GLC5        0.0000 
     73 CA         23.5680  -13.5990    5.7500 C.3      10 GLP5        0.0000 
@<TRIPOS>BOND
@<TRIPOS>SUBSTRUCTURE
     1 ALC1        6 GROUP        1 X    ALC  0     ROOT ALC X 1
     2 SEC2       11 GROUP        1 X    SEC  0     **** SEC X 2
     3 ASC3        1 GROUP        1 X    ASC  0     **** ASC X 3
     4 LYC4       14 GROUP        1 X    LYC  0     **** LYC X 4
     5 GLC5       21 GROUP        1 X    GLC  0     **** GLC X 6
     6 ALP1        8 GROUP        1 Y    ALP  0     ROOT ALP Y 8
     7 SEP2       13 GROUP        1 Y    SEP  0     **** SEP Y 9
     8 ASP3        3 GROUP        1 Y    ASP  0     **** ASP Y 10
     9 LYP4       16 GROUP        1 Y    LYP  0     **** LYP Y 11
    10 GLP5       23 GROUP        1 Y    GLP  0     **** GLP Y 13
    11 ALL1        7 GROUP        1 Z    ALL  0     ROOT ALL Z 15
    12 SEL2       12 GROUP        1 Z    SEL  0     **** SEL Z 16
    13 ASL3        2 GROUP        1 Z    ASL  0     **** ASL Z 17
    14 LYL4       15 GROUP        1 Z    LYL  0     **** LYL Z 18
    15 GLL5       22 GROUP        1 Z    GLL  0     **** GLL Z 20
@<TRIPOS>SET

