#    Name: 2pgt_GPR_1_ligand
#    Modification time : Mon Mar 24 18:58:05 2014

@<TRIPOS>MOLECULE
2pgt_GPR_1_ligand
   61    63     1     0     0
SMALL
NO_CHARGES


@<TRIPOS>ATOM
      1 N1         19.8370   -1.5660   10.6840 N.4       1 GPR211      0.0000 
      2 CA1        19.9150   -2.5530    9.5100 C.3       1 GPR211      0.0000 
      3 C1         18.7480   -3.5220    9.4900 C.2       1 GPR211      0.0000 
      4 O11        18.0560   -3.8210    8.4810 O.co2     1 GPR211      0.0000 
      5 O12        18.3170   -3.9020   10.7180 O.co2     1 GPR211      0.0000 
      6 CB1        21.2550   -3.3230    9.5580 C.3       1 GPR211      0.0000 
      7 CG1        21.5580   -3.9020    8.2200 C.3       1 GPR211      0.0000 
      8 CD1        22.8870   -4.5180    8.0690 C.2       1 GPR211      0.0000 
      9 OE1        23.6260   -4.4720    9.0920 O.2       1 GPR211      0.0000 
     10 N2         23.2160   -5.0340    6.8820 N.am      1 GPR211      0.0000 
     11 CA2        24.5300   -5.6680    6.6220 C.3       1 GPR211      0.0000 
     12 C2         25.1010   -5.0250    5.3110 C.2       1 GPR211      0.0000 
     13 O2         24.3080   -4.6170    4.4940 O.2       1 GPR211      0.0000 
     14 CB2        24.4160   -7.2070    6.4160 C.3       1 GPR211      0.0000 
     15 SG2        23.5910   -8.0220    7.7610 S.3       1 GPR211      0.0000 
     16 N3         26.3730   -4.9800    5.1670 N.am      1 GPR211      0.0000 
     17 CA3        26.9160   -4.6080    3.8360 C.3       1 GPR211      0.0000 
     18 C3         27.4090   -3.2140    3.8630 C.2       1 GPR211      0.0000 
     19 O31        28.1800   -2.6620    3.0470 O.co2     1 GPR211      0.0000 
     20 O32        27.0410   -2.4350    4.8860 O.co2     1 GPR211      0.0000 
     21 CA4        24.9880   -8.8000    8.2340 C.3       1 GPR211      0.0000 
     22 CB4        26.2460   -8.0400    8.4540 C.ar      1 GPR211      0.0000 
     23 CG4        26.3840   -7.2340    9.6270 C.ar      1 GPR211      0.0000 
     24 CD4        27.5390   -6.5280    9.8400 C.ar      1 GPR211      0.0000 
     25 CE4        28.5990   -6.6360    8.9130 C.ar      1 GPR211      0.0000 
     26 CZ4        28.5200   -7.4510    7.7740 C.ar      1 GPR211      0.0000 
     27 CH4        27.3090   -8.1120    7.5070 C.ar      1 GPR211      0.0000 
     28 CH5        27.1480   -9.0270    6.3200 C.ar      1 GPR211      0.0000 
     29 CZ5        27.9850   -8.9000    5.1670 C.ar      1 GPR211      0.0000 
     30 CE5        27.8270   -9.8230    4.1240 C.ar      1 GPR211      0.0000 
     31 CD5        26.8640  -10.8280    4.1860 C.ar      1 GPR211      0.0000 
     32 CG5        26.0170  -10.9190    5.2970 C.ar      1 GPR211      0.0000 
     33 CB5        26.1760  -10.0040    6.3330 C.ar      1 GPR211      0.0000 
     34 CA5        25.2210  -10.1400    7.5270 C.3       1 GPR211      0.0000 
     35 O5         26.0350  -10.9820    8.4120 O.3       1 GPR211      0.0000 
     36 H          19.9079   -1.9763    8.5831 H         1 GPR211      0.0000 
     37 H          21.1699   -4.1096   10.3045 H         1 GPR211      0.0000 
     38 H          22.0365   -2.6292    9.8601 H         1 GPR211      0.0000 
     39 H          21.4310   -3.1007    7.4455 H         1 GPR211      0.0000 
     40 H          20.7685   -4.6584    7.9696 H         1 GPR211      0.0000 
     41 H          22.5650   -5.0205    6.0669 H         1 GPR211      0.0000 
     42 H          25.2194   -5.4667    7.4051 H         1 GPR211      0.0000 
     43 H          25.3749   -7.6840    6.3806 H         1 GPR211      0.0000 
     44 H          23.8192   -7.4592    5.5625 H         1 GPR211      0.0000 
     45 H          27.0727   -5.1771    5.8862 H         1 GPR211      0.0000 
     46 H          26.1321   -4.7104    3.0777 H         1 GPR211      0.0000 
     47 H          27.7339   -5.2865    3.5702 H         1 GPR211      0.0000 
     48 H          24.6659   -9.1651    9.3359 H         1 GPR211      0.0000 
     49 H          25.6045   -7.2019   10.2920 H         1 GPR211      0.0000 
     50 H          27.6512   -5.9224   10.6582 H         1 GPR211      0.0000 
     51 H          29.4670   -6.0905    9.0844 H         1 GPR211      0.0000 
     52 H          29.3162   -7.5612    7.1580 H         1 GPR211      0.0000 
     53 H          28.6682   -8.1599    5.1184 H         1 GPR211      0.0000 
     54 H          28.4399   -9.7535    3.2925 H         1 GPR211      0.0000 
     55 H          26.7731  -11.5034    3.4184 H         1 GPR211      0.0000 
     56 H          25.3016  -11.6403    5.3421 H         1 GPR211      0.0000 
     57 H          24.3558  -10.6050    7.2485 H         1 GPR211      0.0000 
     58 H          20.2656   -0.6902   10.4620 H         1 GPR211      0.0000 
     59 H          18.8910   -1.3718   10.9437 H         1 GPR211      0.0000 
     60 H          20.2977   -1.9198   11.4980 H         1 GPR211      0.0000 
     61 H          26.9774  -10.6858    8.2562 H         1 GPR211      0.0000 
@<TRIPOS>BOND
     1    2    1 1    
     2   58    1 1    
     3   59    1 1    
     4   60    1 1    
     5    3    2 1    
     6    6    2 1    
     7   36    2 1    
     8    4    3 ar   
     9    5    3 ar   
    10    7    6 1    
    11   37    6 1    
    12   38    6 1    
    13    8    7 1    
    14   39    7 1    
    15   40    7 1    
    16    9    8 2    
    17   10    8 am   
    18   11   10 1    
    19   41   10 1    
    20   12   11 1    
    21   14   11 1    
    22   42   11 1    
    23   13   12 2    
    24   16   12 am   
    25   15   14 1    
    26   43   14 1    
    27   44   14 1    
    28   21   15 1    
    29   17   16 1    
    30   45   16 1    
    31   18   17 1    
    32   46   17 1    
    33   47   17 1    
    34   19   18 ar   
    35   20   18 ar   
    36   22   21 1    
    37   34   21 1    
    38   48   21 1    
    39   23   22 ar   
    40   27   22 ar   
    41   24   23 ar   
    42   49   23 1    
    43   25   24 ar   
    44   50   24 1    
    45   26   25 ar   
    46   51   25 1    
    47   27   26 ar   
    48   52   26 1    
    49   28   27 1    
    50   29   28 ar   
    51   33   28 ar   
    52   30   29 ar   
    53   53   29 1    
    54   31   30 ar   
    55   54   30 1    
    56   32   31 ar   
    57   55   31 1    
    58   33   32 ar   
    59   56   32 1    
    60   34   33 1    
    61   35   34 1    
    62   57   34 1    
    63   61   35 1    
@<TRIPOS>SUBSTRUCTURE
     1 GPR211      1 GROUP   
@<TRIPOS>SET

