#    Name: 1j91_TBS_1_INTS_M
#    Modification time : Tue Mar 25 08:39:30 2014

@<TRIPOS>MOLECULE
1j91_TBS_1_INTS_M
   42     0     6     0     0
SMALL
NO_CHARGES


@<TRIPOS>ATOM
      1 N         -11.8275   -0.4010    2.6920 N.am      1 SEC2        0.0000 
      2 N         -11.4910    1.2070    2.8120 N.am      5 SEL2        0.0000 
      3 N         -12.1640   -2.0090    2.5720 N.am      3 SEP2        0.0000 
      4 CA        -12.6775    4.0050    7.1695 C.3       2 GLC5        0.0000 
      5 CA        -10.7940    3.6310    6.8020 C.3       6 GLL5        0.0000 
      6 CA        -14.5610    4.3790    7.5370 C.3       4 GLP5        0.0000 
      7 CA         -9.4945    2.8305    8.2220 C.3       2 GLC5        0.0000 
      8 CA         -8.1950    2.0300    9.6420 C.3       4 GLP5        0.0000 
      9 CA        -11.9725    2.0085    7.7070 C.3       2 GLC5        0.0000 
     10 CA        -13.1510    0.3860    8.6120 C.3       4 GLP5        0.0000 
     11 CA         -8.9130    3.7120    6.5730 C.3       2 GLC5        0.0000 
     12 CA         -7.0320    3.7930    6.3440 C.3       4 GLP5        0.0000 
     13 CA        -12.5025    6.4710    7.4845 C.3       2 GLC5        0.0000 
     14 CA        -11.4000    6.8510    5.8860 C.3       6 GLL5        0.0000 
     15 CA        -13.6050    6.0910    9.0830 C.3       4 GLP5        0.0000 
     16 CA        -10.3140    7.2960    7.5640 C.3       2 GLC5        0.0000 
     17 CA         -9.2280    7.7410    9.2420 C.3       4 GLP5        0.0000 
     18 CA        -13.8715    8.0290    3.1840 C.3       2 GLC5        0.0000 
     19 CA        -12.2990    7.5300    2.6470 C.3       6 GLL5        0.0000 
     20 CA        -15.4440    8.5280    3.7210 C.3       4 GLP5        0.0000 
     21 CA        -13.7970    6.0525    3.4390 C.3       2 GLC5        0.0000 
     22 CA        -15.2950    4.5750    4.2310 C.3       4 GLP5        0.0000 
     23 CA        -13.3240    4.3440   -1.0095 C.3       2 GLC5        0.0000 
     24 CA        -12.5560    4.9120    0.4870 C.3       6 GLL5        0.0000 
     25 CA        -14.0920    3.7760   -2.5060 C.3       4 GLP5        0.0000 
     26 CA        -13.9470    4.0510    1.3200 C.3       2 GLC5        0.0000 
     27 CA        -15.3380    3.1900    2.1530 C.3       4 GLP5        0.0000 
     28 CA        -13.5225    5.0805    4.0765 C.3       2 GLC5        0.0000 
     29 CA        -11.9420    5.7270    3.2360 C.3       6 GLL5        0.0000 
     30 CA        -12.9943    4.5735    6.1747 C.3       2 GLC5        0.0000 
     31 CA        -11.5580    5.4450    4.6080 C.3       6 GLL5        0.0000 
     32 CA         -9.8925    5.2220    3.7195 C.3       2 GLC5        0.0000 
     33 CA         -8.0350    4.8580    3.5170 C.3       4 GLP5        0.0000 
     34 CA        -10.2312    7.4863    2.8527 C.3       2 GLC5        0.0000 
     35 CA         -8.3420    8.3440    2.7640 C.3       4 GLP5        0.0000 
     36 CA        -13.6265    3.5907    2.3345 C.3       2 GLC5        0.0000 
     37 CA        -12.0550    4.6430    2.2960 C.3       6 GLL5        0.0000 
     38 CA         -9.9750    4.4247    3.0165 C.3       2 GLC5        0.0000 
     39 CA        -13.3257    4.0795    4.3805 C.3       2 GLC5        0.0000 
     40 CA        -11.4160    3.0770    4.0430 C.3       6 GLL5        0.0000 
     41 CA         -9.6958    4.2210    4.0235 C.3       2 GLC5        0.0000 
     42 CA        -11.2970    4.0910    5.0170 C.3       6 GLL5        0.0000 
@<TRIPOS>BOND
@<TRIPOS>SUBSTRUCTURE
     1 SEC2        1 GROUP        1 X    SEC  0     ROOT SEC X 2
     2 GLC5        4 GROUP        1 X    GLC  0     **** GLC X 6
     3 SEP2        3 GROUP        1 Y    SEP  0     ROOT SEP Y 9
     4 GLP5        6 GROUP        1 Y    GLP  0     **** GLP Y 13
     5 SEL2        2 GROUP        1 Z    SEL  0     ROOT SEL Z 16
     6 GLL5        5 GROUP        1 Z    GLL  0     **** GLL Z 20
@<TRIPOS>SET

