#    Name: 1j91_TBS_1_ligand
#    Modification time : Tue Mar 25 08:39:30 2014

@<TRIPOS>MOLECULE
1j91_TBS_1_ligand
   14    15     1     0     0
SMALL
NO_CHARGES


@<TRIPOS>ATOM
      1 C1        -11.5580    5.4450    4.6080 C.ar      1 TBS338      0.0000 
      2 C2        -11.9420    5.7270    3.2360 C.ar      1 TBS338      0.0000 
      3 C3        -12.0550    4.6430    2.2960 C.ar      1 TBS338      0.0000 
      4 C4        -11.2970    4.0910    5.0170 C.ar      1 TBS338      0.0000 
      5 N5        -11.2270    1.7100    4.1120 N.pl3     1 TBS338      0.0000 
      6 C6        -11.4160    3.0770    4.0430 C.ar      1 TBS338      0.0000 
      7 C7        -11.7750    3.3400    2.7360 C.ar      1 TBS338      0.0000 
      8 N8        -11.8070    2.1200    2.0310 N.2       1 TBS338      0.0000 
      9 N9        -11.4910    1.2070    2.8120 N.2       1 TBS338      0.0000 
     10 BR10      -10.7940    3.6310    6.8020 Br        1 TBS338      0.0000 
     11 BR11      -11.4000    6.8510    5.8860 Br        1 TBS338      0.0000 
     12 BR12      -12.2990    7.5300    2.6470 Br        1 TBS338      0.0000 
     13 BR13      -12.5560    4.9120    0.4870 Br        1 TBS338      0.0000 
     14 H         -10.9770    1.2010    4.8513 H         1 TBS338      0.0000 
@<TRIPOS>BOND
     1    2    1 ar   
     2    4    1 ar   
     3   11    1 1    
     4    3    2 ar   
     5   12    2 1    
     6    7    3 ar   
     7   13    3 1    
     8    6    4 ar   
     9   10    4 1    
    10    6    5 1    
    11    9    5 1    
    12   14    5 1    
    13    7    6 ar   
    14    8    7 1    
    15    9    8 2    
@<TRIPOS>SUBSTRUCTURE
     1 TBS338      1 GROUP   
@<TRIPOS>SET

