#    Name: 2bfp_NAP_3_INTS_M
#    Modification time : Mon Mar 24 20:53:54 2014

@<TRIPOS>MOLECULE
2bfp_NAP_3_INTS_M
  129     0    12     0     0
SMALL
NO_CHARGES


@<TRIPOS>ATOM
      1 N          26.4705   28.1230   76.8920 N.am      2 SEC2        0.0000 
      2 N          27.7230   27.7520   77.5960 N.am     10 SEL2        0.0000 
      3 N          25.2180   28.4940   76.1880 N.am      6 SEP2        0.0000 
      4 N          27.4700   28.6685   76.7875 N.am      2 SEC2        0.0000 
      5 N          27.2170   29.5850   75.9790 N.am      6 SEP2        0.0000 
      6 NZ         29.9375   28.5725   79.9085 N.4       3 LYC4        0.0000 
      7 NZ         28.8450   27.7180   79.8060 N.4      11 LYL4        0.0000 
      8 NZ         31.6160   30.4800   79.4450 N.4       7 LYP4        0.0000 
      9 N          29.9375   28.5725   79.9085 N.am      2 SEC2        0.0000 
     10 N          28.8450   27.7180   79.8060 N.am     10 SEL2        0.0000 
     11 N          31.0300   29.4270   80.0110 N.am      6 SEP2        0.0000 
     12 CA         24.4000   24.6735   82.5830 C.3       4 GLC5        0.0000 
     13 CA         25.4390   25.0130   80.9340 C.3      12 GLL5        0.0000 
     14 CA         23.3610   24.3340   84.2320 C.3       8 GLP5        0.0000 
     15 CA         23.3675   25.3280   80.9555 C.3       4 GLC5        0.0000 
     16 CA         21.2960   25.6430   80.9770 C.3       8 GLP5        0.0000 
     17 N          23.1895   25.1785   79.4485 N.am      2 SEC2        0.0000 
     18 N          24.3060   24.5790   80.2270 N.am     10 SEL2        0.0000 
     19 N          22.0730   25.7780   78.6700 N.am      6 SEP2        0.0000 
     20 CA         23.8185   23.7530   82.2820 C.3       4 GLC5        0.0000 
     21 CA         24.2760   23.1720   80.3320 C.3      12 GLL5        0.0000 
     22 CA         22.5175   23.7210   80.8355 C.3       4 GLC5        0.0000 
     23 CA         20.7590   24.2700   81.3390 C.3       8 GLP5        0.0000 
     24 CA         22.5560   18.5325   78.9975 C.3       4 GLC5        0.0000 
     25 CA         21.5300   20.0880   77.7880 C.3      12 GLL5        0.0000 
     26 CA         23.5820   16.9770   80.2070 C.3       8 GLP5        0.0000 
     27 CA         19.5365   20.1265   78.6960 C.3       4 GLC5        0.0000 
     28 CA         17.5430   20.1650   79.6040 C.3       8 GLP5        0.0000 
     29 O          21.5395   19.5520   75.2655 O.2       1 ALC1        0.0000 
     30 O          21.3530   19.4780   76.6240 O.2       9 ALL1        0.0000 
     31 O          21.7260   19.6260   73.9070 O.2       5 ALP1        0.0000 
     32 N          19.7320   18.7450   79.0920 N.am      2 SEC2        0.0000 
     33 N          20.9100   19.5520   78.8900 N.am     10 SEL2        0.0000 
     34 N          18.5540   17.9380   79.2940 N.am      6 SEP2        0.0000 
     35 CA         22.4650   19.0235   80.7115 C.3       4 GLC5        0.0000 
     36 CA         21.2000   20.0180   80.1520 C.3      12 GLL5        0.0000 
     37 CA         23.7300   18.0290   81.2710 C.3       8 GLP5        0.0000 
     38 CA         20.4625   17.9615   80.0405 C.3       4 GLC5        0.0000 
     39 CA         19.7250   15.9050   79.9290 C.3       8 GLP5        0.0000 
     40 CA         19.4585   20.1135   80.6390 C.3       4 GLC5        0.0000 
     41 CA         17.7170   20.2090   81.1260 C.3       8 GLP5        0.0000 
     42 CA         20.9795   22.1440   80.7455 C.3       4 GLC5        0.0000 
     43 CA         23.2340   19.7865   80.2560 C.3       4 GLC5        0.0000 
     44 CA         22.7380   21.5440   79.2410 C.3      12 GLL5        0.0000 
     45 CA         21.7485   22.9070   80.2900 C.3       4 GLC5        0.0000 
     46 NZ         29.5625   31.0555   78.7340 N.4       3 LYC4        0.0000 
     47 NZ         28.1320   30.9190   78.9490 N.4      11 LYL4        0.0000 
     48 N          29.5810   30.1730   79.4800 N.am      2 SEC2        0.0000 
     49 N          28.1320   30.9190   78.9490 N.am     10 SEL2        0.0000 
     50 N          29.5625   31.0555   78.7340 N.am      2 SEC2        0.0000 
     51 N          30.9930   31.1920   78.5190 N.am      6 SEP2        0.0000 
     52 N          27.9000   30.7930   82.7915 N.am      2 SEC2        0.0000 
     53 N          27.4700   30.3440   81.3550 N.am     10 SEL2        0.0000 
     54 N          28.3300   31.2420   84.2280 N.am      6 SEP2        0.0000 
     55 CA         25.5380   31.8605   82.0950 C.3       4 GLC5        0.0000 
     56 CA         24.6960   31.1040   80.6530 C.3      12 GLL5        0.0000 
     57 CA         26.3800   32.6170   83.5370 C.3       8 GLP5        0.0000 
     58 CA         24.7565   32.9845   80.8475 C.3       4 GLC5        0.0000 
     59 CA         23.4490   31.5220   79.8880 C.3      12 GLL5        0.0000 
     60 CA         26.0640   34.4470   81.8070 C.3       8 GLP5        0.0000 
     61 N          20.7890   30.6810   77.4320 N.am      2 SEC2        0.0000 
     62 N          21.7520   30.4200   78.5940 N.am     10 SEL2        0.0000 
     63 N          19.8260   30.9420   76.2700 N.am      6 SEP2        0.0000 
     64 O          21.6500   29.3970   79.6060 O.2       1 ALC1        0.0000 
     65 O          21.7520   30.4200   78.5940 O.2       9 ALL1        0.0000 
     66 O          21.5480   28.3740   80.6180 O.2       5 ALP1        0.0000 
     67 CA         21.8005   31.3905   76.1885 C.3       4 GLC5        0.0000 
     68 CA         23.5990   31.4510   77.5210 C.3      12 GLL5        0.0000 
     69 CA         20.0020   31.3300   74.8560 C.3       8 GLP5        0.0000 
     70 CA         24.8225   31.5320   76.0310 C.3       4 GLC5        0.0000 
     71 CA         26.0460   31.6130   74.5410 C.3       8 GLP5        0.0000 
     72 N          21.3560   31.0785   76.3005 N.am      2 SEC2        0.0000 
     73 N          22.8860   31.2150   76.3310 N.am     10 SEL2        0.0000 
     74 O          22.6215   29.6455   76.0925 O.2       1 ALC1        0.0000 
     75 O          22.8860   31.2150   76.3310 O.2       9 ALL1        0.0000 
     76 O          22.3570   28.0760   75.8540 O.2       5 ALP1        0.0000 
     77 CA         21.6405   32.7625   79.4020 C.3       4 GLC5        0.0000 
     78 CA         23.3600   32.8640   78.0060 C.3      12 GLL5        0.0000 
     79 CA         19.9210   32.6610   80.7980 C.3       8 GLP5        0.0000 
     80 CA         23.6250   34.7965   78.7780 C.3       4 GLC5        0.0000 
     81 CA         23.8900   36.7290   79.5500 C.3       8 GLP5        0.0000 
     82 CA         25.8555   34.0300   79.6860 C.3       4 GLC5        0.0000 
     83 CA         25.6470   33.6130   77.5650 C.3      12 GLL5        0.0000 
     84 CA         24.7685   35.1710   78.5575 C.3       4 GLC5        0.0000 
     85 CA         25.8465   32.6130   76.0530 C.3       4 GLC5        0.0000 
     86 N          29.3355   36.4465   77.0770 N.am      2 SEC2        0.0000 
     87 N          28.7250   35.4280   76.3980 N.am     10 SEL2        0.0000 
     88 N          29.9460   37.4650   77.7560 N.am      6 SEP2        0.0000 
     89 N          29.1315   35.3175   75.0775 N.am      2 SEC2        0.0000 
     90 N          29.5380   35.2070   73.7570 N.am      6 SEP2        0.0000 
     91 O          29.7730   34.3100   78.3525 O.2       1 ALC1        0.0000 
     92 O          28.5610   33.6440   77.9490 O.2       9 ALL1        0.0000 
     93 O          30.9850   34.9760   78.7560 O.2       5 ALP1        0.0000 
     94 CA         22.8365   35.5630   74.5470 C.3       4 GLC5        0.0000 
     95 CA         24.6310   35.3750   75.6130 C.3      12 GLL5        0.0000 
     96 CA         21.0420   35.7510   73.4810 C.3       8 GLP5        0.0000 
     97 CA         25.4250   34.4145   74.2875 C.3       4 GLC5        0.0000 
     98 CA         26.2190   33.4540   72.9620 C.3       8 GLP5        0.0000 
     99 CA         22.2685   35.6335   75.4850 C.3       4 GLC5        0.0000 
    100 CA         23.7960   34.5460   76.3390 C.3      12 GLL5        0.0000 
    101 CA         20.7410   36.7210   74.6310 C.3       8 GLP5        0.0000 
    102 CA         23.1905   35.7625   77.6215 C.3       4 GLC5        0.0000 
    103 CA         22.5850   36.9790   78.9040 C.3       8 GLP5        0.0000 
    104 CA         24.9210   33.0795   75.4400 C.3       4 GLC5        0.0000 
    105 N          27.5880   19.0140   83.5360 N.am      2 SEC2        0.0000 
    106 N          26.5990   20.1010   83.2640 N.am     10 SEL2        0.0000 
    107 N          28.5770   17.9270   83.8080 N.am      6 SEP2        0.0000 
    108 N          25.4385   19.3170   83.4475 N.am      2 SEC2        0.0000 
    109 N          24.2780   18.5330   83.6310 N.am      6 SEP2        0.0000 
    110 N          26.5095   18.6340   82.7175 N.am      2 SEC2        0.0000 
    111 N          26.4200   17.1670   82.1710 N.am      6 SEP2        0.0000 
    112 N          26.5825   18.3800   81.5355 N.am      2 SEC2        0.0000 
    113 N          26.7450   19.5930   80.9000 N.am     10 SEL2        0.0000 
    114 N          29.2425   20.8170   82.6700 N.am      2 SEC2        0.0000 
    115 N          28.2870   21.3310   81.9220 N.am     10 SEL2        0.0000 
    116 N          30.1980   20.3030   83.4180 N.am      6 SEP2        0.0000 
    117 CA         20.7230   21.8580   77.0865 C.3       4 GLC5        0.0000 
    118 CA         22.4720   21.1020   77.9560 C.3      12 GLL5        0.0000 
    119 CA         19.4450   23.1210   76.3010 C.3       8 GLP5        0.0000 
    120 CA         21.6078   31.8650   80.0463 C.3       4 GLC5        0.0000 
    121 CA         23.1400   30.6160   78.7010 C.3      12 GLL5        0.0000 
    122 CA         22.6187   29.3167   77.6015 C.3       4 GLC5        0.0000 
    123 CA         21.8680   27.6000   77.0920 C.3       8 GLP5        0.0000 
    124 CA         26.8942   34.3535   74.9898 C.3       4 GLC5        0.0000 
    125 CA         25.9900   35.3010   75.8880 C.3      12 GLL5        0.0000 
    126 CA         27.5390   33.8410   73.6120 C.3       8 GLP5        0.0000 
    127 CA         25.1626   36.3432   77.3831 C.3       4 GLC5        0.0000 
    128 CA         26.5090   34.4310   76.8470 C.3      12 GLL5        0.0000 
    129 CA         24.8850   37.5660   78.7760 C.3       8 GLP5        0.0000 
@<TRIPOS>BOND
@<TRIPOS>SUBSTRUCTURE
     1 ALC1       29 GROUP        1 X    ALC  0     ROOT ALC X 1
     2 SEC2        1 GROUP        1 X    SEC  0     **** SEC X 2
     3 LYC4        6 GROUP        1 X    LYC  0     **** LYC X 4
     4 GLC5       12 GROUP        1 X    GLC  0     **** GLC X 6
     5 ALP1       31 GROUP        1 Y    ALP  0     ROOT ALP Y 8
     6 SEP2        3 GROUP        1 Y    SEP  0     **** SEP Y 9
     7 LYP4        8 GROUP        1 Y    LYP  0     **** LYP Y 11
     8 GLP5       14 GROUP        1 Y    GLP  0     **** GLP Y 13
     9 ALL1       30 GROUP        1 Z    ALL  0     ROOT ALL Z 15
    10 SEL2        2 GROUP        1 Z    SEL  0     **** SEL Z 16
    11 LYL4        7 GROUP        1 Z    LYL  0     **** LYL Z 18
    12 GLL5       13 GROUP        1 Z    GLL  0     **** GLL Z 20
@<TRIPOS>SET

