#    Name: 2bfp_NAP_3_ligand
#    Modification time : Mon Mar 24 20:53:54 2014

@<TRIPOS>MOLECULE
2bfp_NAP_3_ligand
   73    77     1     0     0
SMALL
NO_CHARGES


@<TRIPOS>ATOM
      1 PA         27.5100   27.7110   79.0530 P.3       1 NAP1289     0.0000 
      2 O1A        27.7230   27.7520   77.5960 O.co2     1 NAP1289     0.0000 
      3 O2A        28.8450   27.7180   79.8060 O.co2     1 NAP1289     0.0000 
      4 O5B        26.6200   26.4350   79.4060 O.3       1 NAP1289     0.0000 
      5 C5B        25.8110   26.4420   80.5480 C.3       1 NAP1289     0.0000 
      6 C4B        25.4390   25.0130   80.9340 C.3       1 NAP1289     0.0000 
      7 O4B        24.3060   24.5790   80.2270 O.3       1 NAP1289     0.0000 
      8 C3B        26.5060   23.9650   80.6520 C.3       1 NAP1289     0.0000 
      9 O3B        27.4180   23.8850   81.7180 O.3       1 NAP1289     0.0000 
     10 C2B        25.7100   22.6790   80.5000 C.3       1 NAP1289     0.0000 
     11 O2B        25.8000   21.8750   81.6540 O.3       1 NAP1289     0.0000 
     12 C1B        24.2760   23.1720   80.3320 C.3       1 NAP1289     0.0000 
     13 N9A        23.6830   22.5230   79.1490 N.pl3     1 NAP1289     0.0000 
     14 C8A        24.0160   22.6580   77.8280 C.2       1 NAP1289     0.0000 
     15 N7A        23.2500   21.8140   77.1030 N.2       1 NAP1289     0.0000 
     16 C5A        22.4720   21.1020   77.9560 C.ar      1 NAP1289     0.0000 
     17 C6A        21.5300   20.0880   77.7880 C.ar      1 NAP1289     0.0000 
     18 N6A        21.3530   19.4780   76.6240 N.pl3     1 NAP1289     0.0000 
     19 N1A        20.9100   19.5520   78.8900 N.ar      1 NAP1289     0.0000 
     20 C2A        21.2000   20.0180   80.1520 C.ar      1 NAP1289     0.0000 
     21 N3A        22.1370   20.9980   80.3210 N.ar      1 NAP1289     0.0000 
     22 C4A        22.7380   21.5440   79.2410 C.ar      1 NAP1289     0.0000 
     23 O3         26.5970   28.9700   79.4610 O.3       1 NAP1289     0.0000 
     24 PN         27.1310   30.4140   79.9140 P.3       1 NAP1289     0.0000 
     25 O1N        28.1320   30.9190   78.9490 O.co2     1 NAP1289     0.0000 
     26 O2N        27.4700   30.3440   81.3550 O.co2     1 NAP1289     0.0000 
     27 O5D        25.8010   31.3170   79.8020 O.3       1 NAP1289     0.0000 
     28 C5D        24.6960   31.1040   80.6530 C.3       1 NAP1289     0.0000 
     29 C4D        23.4490   31.5220   79.8880 C.3       1 NAP1289     0.0000 
     30 O4D        23.6550   32.8240   79.3730 O.3       1 NAP1289     0.0000 
     31 C3D        23.1400   30.6160   78.7010 C.3       1 NAP1289     0.0000 
     32 O3D        21.7520   30.4200   78.5940 O.3       1 NAP1289     0.0000 
     33 C2D        23.5990   31.4510   77.5210 C.3       1 NAP1289     0.0000 
     34 O2D        22.8860   31.2150   76.3310 O.3       1 NAP1289     0.0000 
     35 C1D        23.3600   32.8640   78.0060 C.3       1 NAP1289     0.0000 
     36 N1N        24.3080   33.7250   77.3120 N.pl3     1 NAP1289     0.0000 
     37 C2N        25.6470   33.6130   77.5650 C.ar      1 NAP1289     0.0000 
     38 C3N        26.5090   34.4310   76.8470 C.ar      1 NAP1289     0.0000 
     39 C7N        27.9820   34.4780   77.1020 C.2       1 NAP1289     0.0000 
     40 O7N        28.7250   35.4280   76.3980 O.2       1 NAP1289     0.0000 
     41 N7N        28.5610   33.6440   77.9490 N.am      1 NAP1289     0.0000 
     42 C4N        25.9900   35.3010   75.8880 C.ar      1 NAP1289     0.0000 
     43 C5N        24.6310   35.3750   75.6130 C.ar      1 NAP1289     0.0000 
     44 C6N        23.7960   34.5460   76.3390 C.ar      1 NAP1289     0.0000 
     45 P2B        26.8920   20.7170   81.9470 P.3       1 NAP1289     0.0000 
     46 O1X        26.5990   20.1010   83.2640 O.co2     1 NAP1289     0.0000 
     47 O2X        26.7450   19.5930   80.9000 O.co2     1 NAP1289     0.0000 
     48 O3X        28.2870   21.3310   81.9220 O.co2     1 NAP1289     0.0000 
     49 H          24.8711   26.9945   80.3932 H         1 NAP1289     0.0000 
     50 H          26.3145   26.8951   81.4163 H         1 NAP1289     0.0000 
     51 H          25.2343   24.9844   82.0090 H         1 NAP1289     0.0000 
     52 H          26.9498   24.1940   79.7131 H         1 NAP1289     0.0000 
     53 H          26.0008   22.2009   79.6064 H         1 NAP1289     0.0000 
     54 H          23.7351   22.8573   81.2231 H         1 NAP1289     0.0000 
     55 H          24.6859   23.2574   77.4838 H         1 NAP1289     0.0000 
     56 H          20.6876   18.7316   76.6151 H         1 NAP1289     0.0000 
     57 H          21.9009   19.8196   75.8604 H         1 NAP1289     0.0000 
     58 H          20.7055   19.6229   80.9710 H         1 NAP1289     0.0000 
     59 H          24.7490   31.7053   81.5595 H         1 NAP1289     0.0000 
     60 H          24.5824   30.0571   80.9305 H         1 NAP1289     0.0000 
     61 H          22.6059   31.5068   80.5577 H         1 NAP1289     0.0000 
     62 H          23.7141   29.7559   78.7604 H         1 NAP1289     0.0000 
     63 H          24.6611   31.3279   77.4234 H         1 NAP1289     0.0000 
     64 H          22.3664   33.1259   77.8014 H         1 NAP1289     0.0000 
     65 H          26.0085   32.9573   78.2523 H         1 NAP1289     0.0000 
     66 H          29.5481   33.7520   78.0675 H         1 NAP1289     0.0000 
     67 H          27.9593   32.9809   78.3943 H         1 NAP1289     0.0000 
     68 H          26.6479   35.9162   75.3607 H         1 NAP1289     0.0000 
     69 H          24.2711   36.0074   74.9130 H         1 NAP1289     0.0000 
     70 H          22.7792   34.5481   76.1439 H         1 NAP1289     0.0000 
     71 H          27.7319   22.9355   81.7192 H         1 NAP1289     0.0000 
     72 H          21.5333   29.7342   79.2882 H         1 NAP1289     0.0000 
     73 H          22.7896   30.2210   76.2800 H         1 NAP1289     0.0000 
@<TRIPOS>BOND
     1    2    1 ar   
     2    3    1 ar   
     3    4    1 1    
     4   23    1 1    
     5    5    4 1    
     6    6    5 1    
     7   49    5 1    
     8   50    5 1    
     9    7    6 1    
    10    8    6 1    
    11   51    6 1    
    12   12    7 1    
    13    9    8 1    
    14   10    8 1    
    15   52    8 1    
    16   71    9 1    
    17   11   10 1    
    18   12   10 1    
    19   53   10 1    
    20   45   11 1    
    21   13   12 1    
    22   54   12 1    
    23   14   13 1    
    24   22   13 1    
    25   15   14 2    
    26   55   14 1    
    27   16   15 1    
    28   17   16 ar   
    29   22   16 ar   
    30   18   17 1    
    31   19   17 ar   
    32   56   18 1    
    33   57   18 1    
    34   20   19 ar   
    35   21   20 ar   
    36   58   20 1    
    37   22   21 ar   
    38   24   23 1    
    39   25   24 ar   
    40   26   24 ar   
    41   27   24 1    
    42   28   27 1    
    43   29   28 1    
    44   59   28 1    
    45   60   28 1    
    46   30   29 1    
    47   31   29 1    
    48   61   29 1    
    49   35   30 1    
    50   32   31 1    
    51   33   31 1    
    52   62   31 1    
    53   72   32 1    
    54   34   33 1    
    55   35   33 1    
    56   63   33 1    
    57   73   34 1    
    58   36   35 1    
    59   64   35 1    
    60   37   36 ar   
    61   44   36 ar   
    62   38   37 ar   
    63   65   37 1    
    64   39   38 1    
    65   42   38 ar   
    66   40   39 2    
    67   41   39 am   
    68   66   41 1    
    69   67   41 1    
    70   43   42 ar   
    71   68   42 1    
    72   44   43 ar   
    73   69   43 1    
    74   70   44 1    
    75   46   45 ar   
    76   47   45 ar   
    77   48   45 ar   
@<TRIPOS>SUBSTRUCTURE
     1 NAP1289     1 GROUP   
@<TRIPOS>SET

