#    Name: 1zth_ADP_3_INTS_M
#    Modification time : Mon Mar 24 17:50:50 2014

@<TRIPOS>MOLECULE
1zth_ADP_3_INTS_M
   58     0    15     0     0
SMALL
NO_CHARGES


@<TRIPOS>ATOM
      1 Zn         15.3995    3.9245   -7.8995 Zn        4 ZIC7        0.0000 
      2 Zn         16.1020    4.6030   -7.8220 Zn       14 ZIL7        0.0000 
      3 Zn         14.6970    3.2460   -7.9770 Zn        9 ZIP7        0.0000 
      4 NZ         15.5755    3.6920   -3.2545 N.4       3 LYC4        0.0000 
      5 NZ         15.8230    2.6110   -3.9930 N.4      13 LYL4        0.0000 
      6 NZ         15.3280    4.7730   -2.5160 N.4       8 LYP4        0.0000 
      7 N          15.5755    3.6920   -3.2545 N.am      2 SEC2        0.0000 
      8 N          15.8230    2.6110   -3.9930 N.am     12 SEL2        0.0000 
      9 N          15.3280    4.7730   -2.5160 N.am      7 SEP2        0.0000 
     10 Zn         15.2275    2.6765   -7.2660 Zn        4 ZIC7        0.0000 
     11 Zn         15.7580    2.1070   -6.5550 Zn       14 ZIL7        0.0000 
     12 CA         19.7770    2.2145   -4.5205 C.3       5 GLC5        0.0000 
     13 CA         18.7610    1.6240   -6.2880 C.3      15 GLL5        0.0000 
     14 CA         20.7930    2.8050   -2.7530 C.3      10 GLP5        0.0000 
     15 CA         20.4915   -3.8430   -5.4175 C.3       5 GLC5        0.0000 
     16 CA         19.2420   -2.0790   -5.8890 C.3      15 GLL5        0.0000 
     17 CA         21.7410   -5.6070   -4.9460 C.3      10 GLP5        0.0000 
     18 CA         18.0750   -3.6885   -5.1965 C.3       5 GLC5        0.0000 
     19 CA         16.9080   -5.2980   -4.5040 C.3      10 GLP5        0.0000 
     20 O          20.0815   -3.5355   -7.4785 O.2       1 ALC1        0.0000 
     21 O          20.1830   -2.4650   -6.8740 O.2      11 ALL1        0.0000 
     22 O          19.9800   -4.6060   -8.0830 O.2       6 ALP1        0.0000 
     23 CA         21.7575   -1.6840   -4.5200 C.3       5 GLC5        0.0000 
     24 CA         20.0100   -1.3800   -4.7780 C.3      15 GLL5        0.0000 
     25 CA         23.5050   -1.9880   -4.2620 C.3      10 GLP5        0.0000 
     26 CA         20.8325   -0.2560   -3.1580 C.3       5 GLC5        0.0000 
     27 CA         21.6550    0.8680   -1.5380 C.3      10 GLP5        0.0000 
     28 CA         17.0390   -5.1160   -0.3785 C.3       5 GLC5        0.0000 
     29 CA         18.1070   -3.3190   -0.6890 C.3      15 GLL5        0.0000 
     30 CA         15.9710   -6.9130   -0.0680 C.3      10 GLP5        0.0000 
     31 O          17.3470   -3.9825    1.5560 O.2       1 ALC1        0.0000 
     32 O          17.2110   -3.2070    0.3080 O.2      11 ALL1        0.0000 
     33 O          17.4830   -4.7580    2.8040 O.2       6 ALP1        0.0000 
     34 N          18.8385   -5.7215   -0.1520 N.am      2 SEC2        0.0000 
     35 N          18.9490   -4.3560   -0.7490 N.am     12 SEL2        0.0000 
     36 N          18.7280   -7.0870    0.4450 N.am      7 SEP2        0.0000 
     37 CA         20.0390   -3.1625   -0.1125 C.3       5 GLC5        0.0000 
     38 CA         19.8430   -4.5240   -1.7600 C.3      15 GLL5        0.0000 
     39 CA         20.2350   -1.8010    1.5350 C.3      10 GLP5        0.0000 
     40 CA         19.8100   -5.3220    0.3280 C.3       5 GLC5        0.0000 
     41 CA         19.7770   -6.1200    2.4160 C.3      10 GLP5        0.0000 
     42 CA         18.9925   -6.3410   -1.0475 C.3       5 GLC5        0.0000 
     43 CA         18.1420   -8.1580   -0.3350 C.3      10 GLP5        0.0000 
     44 CA         20.7920   -5.0655   -3.3530 C.3       5 GLC5        0.0000 
     45 CA         18.3755   -4.9110   -3.1320 C.3       5 GLC5        0.0000 
     46 CA         20.4395   -0.8310   -2.1530 C.3       5 GLC5        0.0000 
     47 CA         19.2240   -2.5300   -2.7680 C.3      15 GLL5        0.0000 
     48 CA         18.0660   -3.9140   -3.6360 C.3       5 GLC5        0.0000 
     49 CA         20.8830    1.5882   -6.3792 C.3       5 GLC5        0.0000 
     50 CA         19.3850    0.2390   -6.3210 C.3      15 GLL5        0.0000 
     51 CA         22.6930    2.2450   -6.4540 C.3      10 GLP5        0.0000 
     52 CA         16.9620   -1.5183   -5.6995 C.3       5 GLC5        0.0000 
     53 CA         18.4220   -0.9300   -6.4310 C.3      15 GLL5        0.0000 
     54 CA         15.0920   -1.5320   -5.2390 C.3      10 GLP5        0.0000 
     55 CA         16.8580   -4.0475   -2.1785 C.3       5 GLC5        0.0000 
     56 CA         15.5460   -5.2920   -3.1460 C.3      10 GLP5        0.0000 
     57 CA         19.4660   -2.2337   -0.2273 C.3       5 GLC5        0.0000 
     58 CA         18.2330   -2.2870   -1.7330 C.3      15 GLL5        0.0000 
@<TRIPOS>BOND
@<TRIPOS>SUBSTRUCTURE
     1 ALC1       20 GROUP        1 X    ALC  0     ROOT ALC X 1
     2 SEC2        7 GROUP        1 X    SEC  0     **** SEC X 2
     3 LYC4        4 GROUP        1 X    LYC  0     **** LYC X 4
     4 ZIC7        1 GROUP        1 X    ZIC  0     **** ZIC X 5
     5 GLC5       12 GROUP        1 X    GLC  0     **** GLC X 6
     6 ALP1       22 GROUP        1 Y    ALP  0     ROOT ALP Y 8
     7 SEP2        9 GROUP        1 Y    SEP  0     **** SEP Y 9
     8 LYP4        6 GROUP        1 Y    LYP  0     **** LYP Y 11
     9 ZIP7        3 GROUP        1 Y    ZIP  0     **** ZIP Y 12
    10 GLP5       14 GROUP        1 Y    GLP  0     **** GLP Y 13
    11 ALL1       21 GROUP        1 Z    ALL  0     ROOT ALL Z 15
    12 SEL2        8 GROUP        1 Z    SEL  0     **** SEL Z 16
    13 LYL4        5 GROUP        1 Z    LYL  0     **** LYL Z 18
    14 ZIL7        2 GROUP        1 Z    ZIL  0     **** ZIL Z 19
    15 GLL5       13 GROUP        1 Z    GLL  0     **** GLL Z 20
@<TRIPOS>SET

