#    Name: 1zth_ADP_3_ligand
#    Modification time : Mon Mar 24 17:50:50 2014

@<TRIPOS>MOLECULE
1zth_ADP_3_ligand
   39    41     1     0     0
SMALL
NO_CHARGES


@<TRIPOS>ATOM
      1 PB         17.2280    5.0180   -6.9350 P.3       1 ADP905      0.0000 
      2 O1B        16.1020    4.6030   -7.8220 O.co2     1 ADP905      0.0000 
      3 O2B        18.5820    4.7840   -7.5390 O.co2     1 ADP905      0.0000 
      4 O3B        17.0960    6.3800   -6.3240 O.co2     1 ADP905      0.0000 
      5 PA         16.5310    2.6030   -5.3300 P.3       1 ADP905      0.0000 
      6 O1A        15.8230    2.6110   -3.9930 O.co2     1 ADP905      0.0000 
      7 O2A        15.7580    2.1070   -6.5550 O.co2     1 ADP905      0.0000 
      8 O3A        17.1320    4.0590   -5.6620 O.3       1 ADP905      0.0000 
      9 O5'        17.8400    1.6890   -5.1830 O.3       1 ADP905      0.0000 
     10 C5'        18.7610    1.6240   -6.2880 C.3       1 ADP905      0.0000 
     11 C4'        19.3850    0.2390   -6.3210 C.3       1 ADP905      0.0000 
     12 O4'        20.0940   -0.0080   -5.1150 O.3       1 ADP905      0.0000 
     13 C3'        18.4220   -0.9300   -6.4310 C.3       1 ADP905      0.0000 
     14 O3'        18.1170   -1.2600   -7.7710 O.3       1 ADP905      0.0000 
     15 C2'        19.2420   -2.0790   -5.8890 C.3       1 ADP905      0.0000 
     16 O2'        20.1830   -2.4650   -6.8740 O.3       1 ADP905      0.0000 
     17 C1'        20.0100   -1.3800   -4.7780 C.3       1 ADP905      0.0000 
     18 N9         19.1220   -1.5000   -3.5790 N.pl3     1 ADP905      0.0000 
     19 C8         18.1680   -0.6470   -3.1560 C.2       1 ADP905      0.0000 
     20 N7         17.6110   -1.1050   -2.0320 N.2       1 ADP905      0.0000 
     21 C5         18.2330   -2.2870   -1.7330 C.ar      1 ADP905      0.0000 
     22 C6         18.1070   -3.3190   -0.6890 C.ar      1 ADP905      0.0000 
     23 N6         17.2110   -3.2070    0.3080 N.pl3     1 ADP905      0.0000 
     24 N1         18.9490   -4.3560   -0.7490 N.ar      1 ADP905      0.0000 
     25 C2         19.8430   -4.5240   -1.7600 C.ar      1 ADP905      0.0000 
     26 N3         19.9990   -3.6410   -2.7650 N.ar      1 ADP905      0.0000 
     27 C4         19.2240   -2.5300   -2.7680 C.ar      1 ADP905      0.0000 
     28 H          19.5621    2.3574   -6.1840 H         1 ADP905      0.0000 
     29 H          18.2554    1.7939   -7.2399 H         1 ADP905      0.0000 
     30 H          20.0778    0.1770   -7.1598 H         1 ADP905      0.0000 
     31 H          17.6023   -0.7815   -5.8113 H         1 ADP905      0.0000 
     32 H          18.6487   -2.8055   -5.5089 H         1 ADP905      0.0000 
     33 H          20.9120   -1.8471   -4.6198 H         1 ADP905      0.0000 
     34 H          17.9243    0.1847   -3.6111 H         1 ADP905      0.0000 
     35 H          16.6830   -2.3581    0.3317 H         1 ADP905      0.0000 
     36 H          17.1528   -3.9826    0.9365 H         1 ADP905      0.0000 
     37 H          20.4474   -5.3993   -1.7517 H         1 ADP905      0.0000 
     38 H          17.1879   -0.9197   -7.9162 H         1 ADP905      0.0000 
     39 H          20.1870   -3.4647   -6.8502 H         1 ADP905      0.0000 
@<TRIPOS>BOND
     1    2    1 ar   
     2    3    1 ar   
     3    4    1 ar   
     4    8    1 1    
     5    6    5 ar   
     6    7    5 ar   
     7    8    5 1    
     8    9    5 1    
     9   10    9 1    
    10   11   10 1    
    11   28   10 1    
    12   29   10 1    
    13   12   11 1    
    14   13   11 1    
    15   30   11 1    
    16   17   12 1    
    17   14   13 1    
    18   15   13 1    
    19   31   13 1    
    20   38   14 1    
    21   16   15 1    
    22   17   15 1    
    23   32   15 1    
    24   39   16 1    
    25   18   17 1    
    26   33   17 1    
    27   19   18 1    
    28   27   18 1    
    29   20   19 2    
    30   34   19 1    
    31   21   20 1    
    32   22   21 ar   
    33   27   21 ar   
    34   23   22 1    
    35   24   22 ar   
    36   35   23 1    
    37   36   23 1    
    38   25   24 ar   
    39   26   25 ar   
    40   37   25 1    
    41   27   26 ar   
@<TRIPOS>SUBSTRUCTURE
     1 ADP905      1 GROUP   
@<TRIPOS>SET

