#    Name: 1djl_NAP_1_INTS_M
#    Modification time : Mon Mar 24 22:01:41 2014

@<TRIPOS>MOLECULE
1djl_NAP_1_INTS_M
  126     0    12     0     0
SMALL
NO_CHARGES


@<TRIPOS>ATOM
      1 N          40.2700   26.7825   22.9495 N.am      2 SEC2        0.0000 
      2 N          41.3730   27.2390   23.7180 N.am     10 SEL2        0.0000 
      3 N          39.1670   26.3260   22.1810 N.am      6 SEP2        0.0000 
      4 NZ         43.1715   28.8435   26.8445 N.4       3 LYC4        0.0000 
      5 NZ         42.9960   28.3320   25.4620 N.4      11 LYL4        0.0000 
      6 NZ         44.5770   29.3550   28.7260 N.4       7 LYP4        0.0000 
      7 N          43.1715   28.8435   26.8445 N.am      2 SEC2        0.0000 
      8 N          42.9960   28.3320   25.4620 N.am     10 SEL2        0.0000 
      9 N          43.3470   29.3550   28.2270 N.am      6 SEP2        0.0000 
     10 N          43.3200   26.7665   25.6440 N.am      2 SEC2        0.0000 
     11 N          43.6440   25.2010   25.8260 N.am      6 SEP2        0.0000 
     12 CA         45.0030   30.5805   24.3675 C.3       4 GLC5        0.0000 
     13 CA         44.0840   29.5800   23.0740 C.3      12 GLL5        0.0000 
     14 CA         45.9220   31.5810   25.6610 C.3       8 GLP5        0.0000 
     15 CA         44.0820   27.3415   23.2505 C.3       4 GLC5        0.0000 
     16 CA         44.0800   25.1030   23.4270 C.3       8 GLP5        0.0000 
     17 CA         43.8370   31.5180   20.5775 C.3       4 GLC5        0.0000 
     18 CA         44.4330   29.7020   21.6290 C.3      12 GLL5        0.0000 
     19 CA         43.2410   33.3340   19.5260 C.3       8 GLP5        0.0000 
     20 CA         44.7210   26.7960   22.4270 C.3       4 GLC5        0.0000 
     21 CA         45.3620   28.4890   21.4270 C.3      12 GLL5        0.0000 
     22 N          43.9860   26.2920   20.1650 N.am      2 SEC2        0.0000 
     23 N          44.9450   27.3060   20.7690 N.am     10 SEL2        0.0000 
     24 N          43.0270   25.2780   19.5610 N.am      6 SEP2        0.0000 
     25 N          46.3030   27.7055   18.3695 N.am      2 SEC2        0.0000 
     26 N          46.9490   28.4870   19.5540 N.am     10 SEL2        0.0000 
     27 N          45.6570   26.9240   17.1850 N.am      6 SEP2        0.0000 
     28 CA         45.8155   32.3365   21.4600 C.3       4 GLC5        0.0000 
     29 CA         46.3350   30.5690   20.6250 C.3      12 GLL5        0.0000 
     30 CA         45.2960   34.1040   22.2950 C.3       8 GLP5        0.0000 
     31 CA         44.7880   31.9515   20.0755 C.3       4 GLC5        0.0000 
     32 CA         45.9935   30.5485   18.5335 C.3       4 GLC5        0.0000 
     33 CA         45.6520   30.5280   16.4420 C.3       8 GLP5        0.0000 
     34 CA         49.0840   36.3945   20.5520 C.3       4 GLC5        0.0000 
     35 CA         49.2090   34.3690   20.1780 C.3      12 GLL5        0.0000 
     36 CA         48.9590   38.4200   20.9260 C.3       8 GLP5        0.0000 
     37 CA         50.0255   35.1785   18.2895 C.3       4 GLC5        0.0000 
     38 CA         50.8420   35.9880   16.4010 C.3       8 GLP5        0.0000 
     39 CA         47.9000   35.8970   19.2150 C.3       4 GLC5        0.0000 
     40 CA         46.5910   37.4250   18.2520 C.3       8 GLP5        0.0000 
     41 O          51.0475   36.0240   20.0055 O.2       1 ALC1        0.0000 
     42 O          50.1920   35.0640   20.7410 O.2       9 ALL1        0.0000 
     43 O          51.9030   36.9840   19.2700 O.2       5 ALP1        0.0000 
     44 N          48.7015   35.8380   18.0500 N.am      2 SEC2        0.0000 
     45 N          48.7030   34.7870   18.9320 N.am     10 SEL2        0.0000 
     46 N          48.7000   36.8890   17.1680 N.am      6 SEP2        0.0000 
     47 CA         47.0180   32.9295   17.0565 C.3       4 GLC5        0.0000 
     48 CA         47.6990   34.1080   18.3040 C.3      12 GLL5        0.0000 
     49 CA         46.3370   31.7510   15.8090 C.3       8 GLP5        0.0000 
     50 CA         49.3905   33.1005   17.7770 C.3       4 GLC5        0.0000 
     51 CA         51.0820   32.0930   17.2500 C.3       8 GLP5        0.0000 
     52 CA         49.2705   35.0480   17.3525 C.3       4 GLC5        0.0000 
     53 CA         47.1450   35.7665   18.2780 C.3       4 GLC5        0.0000 
     54 N          39.5500   29.2625   21.9950 N.am      2 SEC2        0.0000 
     55 N          39.1470   29.6960   23.3200 N.am     10 SEL2        0.0000 
     56 N          39.9530   28.8290   20.6700 N.am      6 SEP2        0.0000 
     57 N          37.9335   28.5825   23.1365 N.am      2 SEC2        0.0000 
     58 N          36.7200   27.4690   22.9530 N.am      6 SEP2        0.0000 
     59 N          37.8820   29.9645   22.9835 N.am      2 SEC2        0.0000 
     60 N          36.6170   30.2330   22.6470 N.am      6 SEP2        0.0000 
     61 N          40.9150   32.3525   24.7430 N.am      2 SEC2        0.0000 
     62 N          40.0480   31.3370   24.8840 N.am     10 SEL2        0.0000 
     63 N          41.7820   33.3680   24.6020 N.am      6 SEP2        0.0000 
     64 N          39.6850   32.2065   26.1185 N.am      2 SEC2        0.0000 
     65 N          39.3220   33.0760   27.3530 N.am      6 SEP2        0.0000 
     66 CA         38.2835   31.0020   27.0175 C.3       4 GLC5        0.0000 
     67 CA         39.6390   29.2530   27.0900 C.3      12 GLL5        0.0000 
     68 CA         36.9280   32.7510   26.9450 C.3       8 GLP5        0.0000 
     69 CA         40.0485   31.4035   27.6065 C.3       4 GLC5        0.0000 
     70 CA         40.4580   33.5540   28.1230 C.3       8 GLP5        0.0000 
     71 CA         37.7440   29.4655   25.9895 C.3       4 GLC5        0.0000 
     72 CA         35.8490   29.6780   24.8890 C.3       8 GLP5        0.0000 
     73 O          39.7940   25.1310   26.7220 O.2       1 ALC1        0.0000 
     74 O          39.0610   25.5990   27.7360 O.2       9 ALL1        0.0000 
     75 O          40.5270   24.6630   25.7080 O.2       5 ALP1        0.0000 
     76 CA         40.8920   25.9245   30.1150 C.3       4 GLC5        0.0000 
     77 CA         39.6560   27.4040   30.0030 C.3      12 GLL5        0.0000 
     78 CA         42.1280   24.4450   30.2270 C.3       8 GLP5        0.0000 
     79 O          37.2870   31.3650   29.9915 O.2       1 ALC1        0.0000 
     80 O          37.5820   32.0370   31.2160 O.2       9 ALL1        0.0000 
     81 O          36.9920   30.6930   28.7670 O.2       5 ALP1        0.0000 
     82 NZ         49.9165   30.5265   19.0400 N.4       3 LYC4        0.0000 
     83 NZ         48.7150   30.0400   18.6170 N.4      11 LYL4        0.0000 
     84 NZ         51.5620   30.6680   20.6660 N.4       7 LYP4        0.0000 
     85 N          48.6840   30.5090   17.3010 N.am      2 SEC2        0.0000 
     86 N          48.7150   30.0400   18.6170 N.am     10 SEL2        0.0000 
     87 N          48.6530   30.9780   15.9850 N.am      6 SEP2        0.0000 
     88 N          49.9165   30.5265   19.0400 N.am      2 SEC2        0.0000 
     89 N          51.1180   31.0130   19.4630 N.am      6 SEP2        0.0000 
     90 NZ         50.1455   28.7915   20.6055 N.4       3 LYC4        0.0000 
     91 NZ         49.3180   27.9030   19.8730 N.4      11 LYL4        0.0000 
     92 N          50.1455   28.7915   20.6055 N.am      2 SEC2        0.0000 
     93 N          49.3180   27.9030   19.8730 N.am     10 SEL2        0.0000 
     94 N          50.9730   29.6800   21.3380 N.am      6 SEP2        0.0000 
     95 NZ         46.9740   27.3795   17.3770 N.4       3 LYC4        0.0000 
     96 NZ         48.2910   27.8350   17.5690 N.4      11 LYL4        0.0000 
     97 NZ         45.6570   26.9240   17.1850 N.4       7 LYP4        0.0000 
     98 N          46.9740   27.3795   17.3770 N.am      2 SEC2        0.0000 
     99 N          48.2910   27.8350   17.5690 N.am     10 SEL2        0.0000 
    100 N          48.7725   28.1420   16.2670 N.am      2 SEC2        0.0000 
    101 N          49.2540   28.4490   14.9650 N.am      6 SEP2        0.0000 
    102 N          49.1630   26.9610   16.9700 N.am      2 SEC2        0.0000 
    103 N          50.0350   26.0870   16.3710 N.am      6 SEP2        0.0000 
    104 CA         43.1717   28.0012   20.9925 C.3       4 GLC5        0.0000 
    105 CA         41.4460   26.9070   20.4570 C.3       8 GLP5        0.0000 
    106 CA         45.2252   28.3038   19.2190 C.3       4 GLC5        0.0000 
    107 CA         44.4580   27.8270   17.3150 C.3       8 GLP5        0.0000 
    108 CA         46.8017   33.6422   21.3122 C.3       4 GLC5        0.0000 
    109 CA         48.6850   33.2410   20.8060 C.3      12 GLL5        0.0000 
    110 CA         50.0233   32.6022   19.4733 C.3       4 GLC5        0.0000 
    111 CA         47.6680   32.5560   20.1670 C.3      12 GLL5        0.0000 
    112 CA         51.7390   32.0240   18.6170 C.3       8 GLP5        0.0000 
    113 CA         38.9917   26.4285   26.1100 C.3       4 GLC5        0.0000 
    114 CA         39.9350   27.9070   27.7030 C.3      12 GLL5        0.0000 
    115 CA         38.6650   25.4070   24.4120 C.3       8 GLP5        0.0000 
    116 CA         41.1028   26.5345   27.9600 C.3       4 GLC5        0.0000 
    117 CA         38.7020   26.9930   27.9130 C.3      12 GLL5        0.0000 
    118 CA         42.8870   25.6190   28.1120 C.3       8 GLP5        0.0000 
    119 CA         36.8503   27.9047   28.9352 C.3       4 GLC5        0.0000 
    120 CA         35.1970   28.6930   29.2360 C.3       8 GLP5        0.0000 
    121 CA         37.1096   29.6311   32.1367 C.3       4 GLC5        0.0000 
    122 CA         38.8540   29.4430   31.1860 C.3      12 GLL5        0.0000 
    123 CA         35.2790   29.6000   31.5830 C.3       8 GLP5        0.0000 
    124 CA         40.2726   31.1131   32.1633 C.3       4 GLC5        0.0000 
    125 CA         38.6610   30.1480   32.3820 C.3      12 GLL5        0.0000 
    126 CA         41.6050   32.5640   31.6360 C.3       8 GLP5        0.0000 
@<TRIPOS>BOND
@<TRIPOS>SUBSTRUCTURE
     1 ALC1       41 GROUP        1 X    ALC  0     ROOT ALC X 1
     2 SEC2        1 GROUP        1 X    SEC  0     **** SEC X 2
     3 LYC4        4 GROUP        1 X    LYC  0     **** LYC X 4
     4 GLC5       12 GROUP        1 X    GLC  0     **** GLC X 6
     5 ALP1       43 GROUP        1 Y    ALP  0     ROOT ALP Y 8
     6 SEP2        3 GROUP        1 Y    SEP  0     **** SEP Y 9
     7 LYP4        6 GROUP        1 Y    LYP  0     **** LYP Y 11
     8 GLP5       14 GROUP        1 Y    GLP  0     **** GLP Y 13
     9 ALL1       42 GROUP        1 Z    ALL  0     ROOT ALL Z 15
    10 SEL2        2 GROUP        1 Z    SEL  0     **** SEL Z 16
    11 LYL4        5 GROUP        1 Z    LYL  0     **** LYL Z 18
    12 GLL5       13 GROUP        1 Z    GLL  0     **** GLL Z 20
@<TRIPOS>SET

