#    Name: 1djl_NAP_1_ligand
#    Modification time : Mon Mar 24 22:01:41 2014

@<TRIPOS>MOLECULE
1djl_NAP_1_ligand
   73    77     1     0     0
SMALL
NO_CHARGES


@<TRIPOS>ATOM
      1 PA         42.3510   28.0970   24.2210 P.3       1 NAP1136     0.0000 
      2 O1A        41.3730   27.2390   23.7180 O.co2     1 NAP1136     0.0000 
      3 O2A        42.9960   28.3320   25.4620 O.co2     1 NAP1136     0.0000 
      4 O5B        42.8410   28.9610   23.0120 O.3       1 NAP1136     0.0000 
      5 C5B        44.0840   29.5800   23.0740 C.3       1 NAP1136     0.0000 
      6 C4B        44.4330   29.7020   21.6290 C.3       1 NAP1136     0.0000 
      7 O4B        45.1570   30.8620   21.2780 O.3       1 NAP1136     0.0000 
      8 C3B        45.3620   28.4890   21.4270 C.3       1 NAP1136     0.0000 
      9 O3B        44.9450   27.3060   20.7690 O.3       1 NAP1136     0.0000 
     10 C2B        46.6230   29.0720   20.8190 C.3       1 NAP1136     0.0000 
     11 O2B        46.9490   28.4870   19.5540 O.3       1 NAP1136     0.0000 
     12 C1B        46.3350   30.5690   20.6250 C.3       1 NAP1136     0.0000 
     13 N9A        47.3750   31.5370   20.9850 N.pl3     1 NAP1136     0.0000 
     14 C8A        48.1920   31.6110   22.0860 C.2       1 NAP1136     0.0000 
     15 N7A        48.9940   32.6670   21.9600 N.2       1 NAP1136     0.0000 
     16 C5A        48.6850   33.2410   20.8060 C.ar      1 NAP1136     0.0000 
     17 C6A        49.2090   34.3690   20.1780 C.ar      1 NAP1136     0.0000 
     18 N6A        50.1920   35.0640   20.7410 N.pl3     1 NAP1136     0.0000 
     19 N1A        48.7030   34.7870   18.9320 N.ar      1 NAP1136     0.0000 
     20 C2A        47.6990   34.1080   18.3040 C.ar      1 NAP1136     0.0000 
     21 N3A        47.1950   32.9960   18.9350 N.ar      1 NAP1136     0.0000 
     22 C4A        47.6680   32.5560   20.1670 C.ar      1 NAP1136     0.0000 
     23 O3         41.2420   29.1090   24.7560 O.3       1 NAP1136     0.0000 
     24 PN         39.7810   29.9490   24.5860 P.3       1 NAP1136     0.0000 
     25 O1N        39.1470   29.6960   23.3200 O.co2     1 NAP1136     0.0000 
     26 O2N        40.0480   31.3370   24.8840 O.co2     1 NAP1136     0.0000 
     27 O5D        39.1450   29.1060   25.7650 O.3       1 NAP1136     0.0000 
     28 C5D        39.6390   29.2530   27.0900 C.3       1 NAP1136     0.0000 
     29 C4D        39.9350   27.9070   27.7030 C.3       1 NAP1136     0.0000 
     30 O4D        40.4590   28.1020   29.0240 O.3       1 NAP1136     0.0000 
     31 C3D        38.7020   26.9930   27.9130 C.3       1 NAP1136     0.0000 
     32 O3D        39.0610   25.5990   27.7360 O.3       1 NAP1136     0.0000 
     33 C2D        38.3050   27.2400   29.3560 C.3       1 NAP1136     0.0000 
     34 O2D        37.4590   26.2200   29.8760 O.3       1 NAP1136     0.0000 
     35 C1D        39.6560   27.4040   30.0030 C.3       1 NAP1136     0.0000 
     36 N1N        39.4920   28.1480   31.2280 N.pl3     1 NAP1136     0.0000 
     37 C2N        38.8540   29.4430   31.1860 C.ar      1 NAP1136     0.0000 
     38 C3N        38.6610   30.1480   32.3820 C.ar      1 NAP1136     0.0000 
     39 C7N        37.9710   31.5180   32.3840 C.2       1 NAP1136     0.0000 
     40 O7N        37.8050   32.0740   33.4600 O.2       1 NAP1136     0.0000 
     41 N7N        37.5820   32.0370   31.2160 N.am      1 NAP1136     0.0000 
     42 C4N        39.1230   29.5290   33.5970 C.ar      1 NAP1136     0.0000 
     43 C5N        39.7770   28.2370   33.6590 C.ar      1 NAP1136     0.0000 
     44 C6N        39.9610   27.5260   32.4400 C.ar      1 NAP1136     0.0000 
     45 P2B        48.4330   28.5520   18.8760 P.3       1 NAP1136     0.0000 
     46 O1X        48.7150   30.0400   18.6170 O.co2     1 NAP1136     0.0000 
     47 O2X        49.3180   27.9030   19.8730 O.co2     1 NAP1136     0.0000 
     48 O3X        48.2910   27.8350   17.5690 O.co2     1 NAP1136     0.0000 
     49 H          44.8282   28.9769   23.5584 H         1 NAP1136     0.0000 
     50 H          44.0409   30.5634   23.5023 H         1 NAP1136     0.0000 
     51 H          43.5733   29.5225   21.0348 H         1 NAP1136     0.0000 
     52 H          45.7085   28.2290   22.4974 H         1 NAP1136     0.0000 
     53 H          47.4183   28.9908   21.5299 H         1 NAP1136     0.0000 
     54 H          46.1370   30.6826   19.5101 H         1 NAP1136     0.0000 
     55 H          48.1703   30.9842   22.8236 H         1 NAP1136     0.0000 
     56 H          50.2153   35.0627   21.7408 H         1 NAP1136     0.0000 
     57 H          50.8197   35.5255   20.1141 H         1 NAP1136     0.0000 
     58 H          47.3346   34.4101   17.4030 H         1 NAP1136     0.0000 
     59 H          38.9111   29.7701   27.7377 H         1 NAP1136     0.0000 
     60 H          40.5669   29.8491   27.1116 H         1 NAP1136     0.0000 
     61 H          40.6461   27.3696   27.1054 H         1 NAP1136     0.0000 
     62 H          37.9328   27.3160   27.2791 H         1 NAP1136     0.0000 
     63 H          37.8308   28.2279   29.3625 H         1 NAP1136     0.0000 
     64 H          40.0486   26.4243   30.1833 H         1 NAP1136     0.0000 
     65 H          38.5572   29.8197   30.2954 H         1 NAP1136     0.0000 
     66 H          37.7818   31.4900   30.4031 H         1 NAP1136     0.0000 
     67 H          37.1260   32.9259   31.2596 H         1 NAP1136     0.0000 
     68 H          38.9794   30.0408   34.4935 H         1 NAP1136     0.0000 
     69 H          40.0838   27.8686   34.5338 H         1 NAP1136     0.0000 
     70 H          40.3975   26.6299   32.4169 H         1 NAP1136     0.0000 
     71 H          45.5495   27.2239   19.9767 H         1 NAP1136     0.0000 
     72 H          39.5737   25.5709   26.8779 H         1 NAP1136     0.0000 
     73 H          37.4995   25.4820   29.2025 H         1 NAP1136     0.0000 
@<TRIPOS>BOND
     1    2    1 ar   
     2    3    1 ar   
     3    4    1 1    
     4   23    1 1    
     5    5    4 1    
     6    6    5 1    
     7   49    5 1    
     8   50    5 1    
     9    7    6 1    
    10    8    6 1    
    11   51    6 1    
    12   12    7 1    
    13    9    8 1    
    14   10    8 1    
    15   52    8 1    
    16   71    9 1    
    17   11   10 1    
    18   12   10 1    
    19   53   10 1    
    20   45   11 1    
    21   13   12 1    
    22   54   12 1    
    23   14   13 1    
    24   22   13 1    
    25   15   14 2    
    26   55   14 1    
    27   16   15 1    
    28   17   16 ar   
    29   22   16 ar   
    30   18   17 1    
    31   19   17 ar   
    32   56   18 1    
    33   57   18 1    
    34   20   19 ar   
    35   21   20 ar   
    36   58   20 1    
    37   22   21 ar   
    38   24   23 1    
    39   25   24 ar   
    40   26   24 ar   
    41   27   24 1    
    42   28   27 1    
    43   29   28 1    
    44   59   28 1    
    45   60   28 1    
    46   30   29 1    
    47   31   29 1    
    48   61   29 1    
    49   35   30 1    
    50   32   31 1    
    51   33   31 1    
    52   62   31 1    
    53   72   32 1    
    54   34   33 1    
    55   35   33 1    
    56   63   33 1    
    57   73   34 1    
    58   36   35 1    
    59   64   35 1    
    60   37   36 ar   
    61   44   36 ar   
    62   38   37 ar   
    63   65   37 1    
    64   39   38 1    
    65   42   38 ar   
    66   40   39 2    
    67   41   39 am   
    68   66   41 1    
    69   67   41 1    
    70   43   42 ar   
    71   68   42 1    
    72   44   43 ar   
    73   69   43 1    
    74   70   44 1    
    75   46   45 ar   
    76   47   45 ar   
    77   48   45 ar   
@<TRIPOS>SUBSTRUCTURE
     1 NAP1136     1 GROUP   
@<TRIPOS>SET

