#    Name: 2wq6_FAD_1_INTS_M
#    Modification time : Tue Mar 25 04:34:38 2014

@<TRIPOS>MOLECULE
2wq6_FAD_1_INTS_M
  108     0    12     0     0
SMALL
NO_CHARGES


@<TRIPOS>ATOM
      1 N         -14.2060  -27.5585    7.9265 N.am      2 SEC2        0.0000 
      2 N         -14.0280  -27.8600    9.4310 N.am     10 SEL2        0.0000 
      3 N         -14.3840  -27.2570    6.4220 N.am      6 SEP2        0.0000 
      4 N         -15.0415  -28.4535    8.8100 N.am      2 SEC2        0.0000 
      5 N         -16.0550  -29.0470    8.1890 N.am      6 SEP2        0.0000 
      6 NZ        -11.7875  -25.6080   11.6755 N.4       3 LYC4        0.0000 
      7 NZ        -12.3430  -26.4700   10.6700 N.4      11 LYL4        0.0000 
      8 NZ        -11.2320  -24.7460   12.6810 N.4       7 LYP4        0.0000 
      9 N         -11.7875  -25.6080   11.6755 N.am      2 SEC2        0.0000 
     10 N         -12.3430  -26.4700   10.6700 N.am     10 SEL2        0.0000 
     11 N         -11.2320  -24.7460   12.6810 N.am      6 SEP2        0.0000 
     12 CA        -15.5060  -31.1285   11.5175 C.3       4 GLC5        0.0000 
     13 CA        -14.8090  -29.0560   12.0060 C.3      12 GLL5        0.0000 
     14 CA        -16.2030  -33.2010   11.0290 C.3       8 GLP5        0.0000 
     15 CA        -13.2750  -30.0085   11.0860 C.3       4 GLC5        0.0000 
     16 CA        -11.7410  -30.9610   10.1660 C.3       8 GLP5        0.0000 
     17 CA        -16.1050  -30.8270   14.2400 C.3       4 GLC5        0.0000 
     18 CA        -15.7700  -28.9240   13.2310 C.3      12 GLL5        0.0000 
     19 CA        -16.4400  -32.7300   15.2490 C.3       8 GLP5        0.0000 
     20 CA        -13.5520  -28.5415   14.8770 C.3       4 GLC5        0.0000 
     21 CA        -15.5880  -27.9320   15.3430 C.3      12 GLL5        0.0000 
     22 CA        -11.5160  -29.1510   14.4110 C.3       8 GLP5        0.0000 
     23 CA        -16.1660  -28.7040   17.2600 C.3       4 GLC5        0.0000 
     24 CA        -16.7440  -29.4760   19.1770 C.3       8 GLP5        0.0000 
     25 O         -12.5900  -22.2345   18.6700 O.2       1 ALC1        0.0000 
     26 O         -12.4970  -23.3800   17.6080 O.2       9 ALL1        0.0000 
     27 O         -12.6830  -21.0890   19.7320 O.2       5 ALP1        0.0000 
     28 N         -14.4890  -23.0145   19.3160 N.am      2 SEC2        0.0000 
     29 N         -14.1070  -24.4770   18.7860 N.am     10 SEL2        0.0000 
     30 N         -14.8710  -21.5520   19.8460 N.am      6 SEP2        0.0000 
     31 CA        -13.3390  -26.5365   19.2430 C.3       4 GLC5        0.0000 
     32 CA        -15.0350  -25.4380   18.8740 C.3      12 GLL5        0.0000 
     33 CA        -11.6430  -27.6350   19.6120 C.3       8 GLP5        0.0000 
     34 CA        -15.4975  -27.1280   19.5950 C.3       4 GLC5        0.0000 
     35 CA        -15.9600  -28.8180   20.3160 C.3       8 GLP5        0.0000 
     36 CA        -16.7875  -25.1420   19.3775 C.3       4 GLC5        0.0000 
     37 CA        -18.5400  -24.8460   19.8810 C.3       8 GLP5        0.0000 
     38 O         -21.8005  -22.2150   16.4495 O.2       1 ALC1        0.0000 
     39 O         -20.5720  -22.0510   16.8840 O.2       9 ALL1        0.0000 
     40 O         -23.0290  -22.3790   16.0150 O.2       5 ALP1        0.0000 
     41 N         -22.3515  -20.6525   18.2035 N.am      2 SEC2        0.0000 
     42 N         -21.0460  -19.9920   17.7200 N.am     10 SEL2        0.0000 
     43 N         -23.6570  -21.3130   18.6870 N.am      6 SEP2        0.0000 
     44 CA        -14.0825  -13.8805   18.2275 C.3       4 GLC5        0.0000 
     45 CA        -15.0530  -15.5820   18.3970 C.3      12 GLL5        0.0000 
     46 CA        -13.1120  -12.1790   18.0580 C.3       8 GLP5        0.0000 
     47 CA        -16.3045  -14.9670   17.0695 C.3       4 GLC5        0.0000 
     48 CA        -17.5560  -14.3520   15.7420 C.3       8 GLP5        0.0000 
     49 CA        -16.2225  -14.2885   19.0315 C.3       4 GLC5        0.0000 
     50 CA        -17.3920  -12.9950   19.6660 C.3       8 GLP5        0.0000 
     51 CA        -11.3565  -17.3490   16.6880 C.3       4 GLC5        0.0000 
     52 CA        -13.0560  -17.4100   17.2970 C.3      12 GLL5        0.0000 
     53 CA         -9.6570  -17.2880   16.0790 C.3       8 GLP5        0.0000 
     54 CA        -11.6300  -16.8260   18.2025 C.3       4 GLC5        0.0000 
     55 CA        -10.2040  -16.2420   19.1080 C.3       8 GLP5        0.0000 
     56 CA        -13.1575  -21.4080   14.3995 C.3       4 GLC5        0.0000 
     57 CA        -15.0710  -22.0060   14.8270 C.3      12 GLL5        0.0000 
     58 CA        -11.2440  -20.8100   13.9720 C.3       8 GLP5        0.0000 
     59 CA        -15.5225  -19.8740   14.2765 C.3       4 GLC5        0.0000 
     60 CA        -15.9740  -17.7420   13.7260 C.3       8 GLP5        0.0000 
     61 O         -13.3810  -20.7810   14.6760 O.2       1 ALC1        0.0000 
     62 O         -14.6920  -20.7520   14.2730 O.2       9 ALL1        0.0000 
     63 O         -12.0700  -20.8100   15.0790 O.2       5 ALP1        0.0000 
     64 CA        -13.6750  -21.9085   12.5785 C.3       4 GLC5        0.0000 
     65 CA        -15.5800  -22.9940   12.5800 C.3      12 GLL5        0.0000 
     66 CA        -11.7700  -20.8230   12.5770 C.3       8 GLP5        0.0000 
     67 CA        -18.1375  -24.4205   11.9675 C.3       4 GLC5        0.0000 
     68 CA        -16.6460  -23.7120   11.7140 C.3      12 GLL5        0.0000 
     69 CA        -19.6290  -25.1290   12.2210 C.3       8 GLP5        0.0000 
     70 CA        -17.0500  -22.5700    9.8730 C.3       4 GLC5        0.0000 
     71 CA        -17.4540  -21.4280    8.0320 C.3       8 GLP5        0.0000 
     72 N         -17.1955  -22.9050    9.7170 N.am      2 SEC2        0.0000 
     73 N         -16.1400  -23.9300   10.3940 N.am     10 SEL2        0.0000 
     74 N         -18.2510  -21.8800    9.0400 N.am      6 SEP2        0.0000 
     75 N         -18.0630  -26.9500    9.2410 N.am      2 SEC2        0.0000 
     76 N         -17.0890  -26.2390   10.1980 N.am     10 SEL2        0.0000 
     77 N         -19.0370  -27.6610    8.2840 N.am      6 SEP2        0.0000 
     78 N         -18.5640  -26.5850   10.4010 N.am      2 SEC2        0.0000 
     79 N         -20.0390  -26.9310   10.6040 N.am      6 SEP2        0.0000 
     80 N         -14.4070  -24.7355    8.0395 N.am      2 SEC2        0.0000 
     81 N         -15.3760  -25.3370    8.5640 N.am     10 SEL2        0.0000 
     82 N         -13.4380  -24.1340    7.5150 N.am      6 SEP2        0.0000 
     83 N         -16.2185  -25.8565    7.6555 N.am      2 SEC2        0.0000 
     84 N         -17.0610  -26.3760    6.7470 N.am      6 SEP2        0.0000 
     85 CA        -13.4028  -29.0705   13.5147 C.3       4 GLC5        0.0000 
     86 CA        -18.1650  -26.3278   13.0802 C.3       4 GLC5        0.0000 
     87 CA        -16.5230  -27.6070   13.2060 C.3      12 GLL5        0.0000 
     88 CA        -17.9939  -29.2569   13.5664 C.3       4 GLC5        0.0000 
     89 CA        -16.8790  -27.4460   14.6730 C.3      12 GLL5        0.0000 
     90 CA        -19.4750  -30.6580   13.1870 C.3       8 GLP5        0.0000 
     91 CA        -12.8649  -26.5425   18.2734 C.3       4 GLC5        0.0000 
     92 CA        -13.6640  -25.1740   16.5950 C.3      12 GLL5        0.0000 
     93 CA        -16.4725  -17.8970   15.7577 C.3       4 GLC5        0.0000 
     94 CA        -17.1530  -18.6940   17.5830 C.3      12 GLL5        0.0000 
     95 CA        -18.1895  -18.5515   19.3558 C.3       4 GLC5        0.0000 
     96 CA        -19.4080  -19.0510   20.9220 C.3       8 GLP5        0.0000 
     97 CA        -15.5905  -18.6550   18.9952 C.3       4 GLC5        0.0000 
     98 CA        -14.2100  -19.2580   20.2010 C.3       8 GLP5        0.0000 
     99 CA        -14.7675  -16.1013   16.1250 C.3       4 GLC5        0.0000 
    100 CA        -15.4770  -16.9830   17.9230 C.3      12 GLL5        0.0000 
    101 CA        -14.2700  -15.9200   14.0900 C.3       8 GLP5        0.0000 
    102 CA        -14.7375  -17.7703   19.1805 C.3       4 GLC5        0.0000 
    103 CA        -14.0310  -16.7717   15.7195 C.3       4 GLC5        0.0000 
    104 CA        -14.5280  -17.8370   17.4010 C.3      12 GLL5        0.0000 
    105 CA        -14.0010  -18.4408   18.7750 C.3       4 GLC5        0.0000 
    106 CA        -15.7568  -18.5388   15.3833 C.3       4 GLC5        0.0000 
    107 CA        -14.8910  -19.1080   17.0110 C.3      12 GLL5        0.0000 
    108 CA        -14.8747  -19.2967   18.6208 C.3       4 GLC5        0.0000 
@<TRIPOS>BOND
@<TRIPOS>SUBSTRUCTURE
     1 ALC1       25 GROUP        1 X    ALC  0     ROOT ALC X 1
     2 SEC2        1 GROUP        1 X    SEC  0     **** SEC X 2
     3 LYC4        6 GROUP        1 X    LYC  0     **** LYC X 4
     4 GLC5       12 GROUP        1 X    GLC  0     **** GLC X 6
     5 ALP1       27 GROUP        1 Y    ALP  0     ROOT ALP Y 8
     6 SEP2        3 GROUP        1 Y    SEP  0     **** SEP Y 9
     7 LYP4        8 GROUP        1 Y    LYP  0     **** LYP Y 11
     8 GLP5       14 GROUP        1 Y    GLP  0     **** GLP Y 13
     9 ALL1       26 GROUP        1 Z    ALL  0     ROOT ALL Z 15
    10 SEL2        2 GROUP        1 Z    SEL  0     **** SEL Z 16
    11 LYL4        7 GROUP        1 Z    LYL  0     **** LYL Z 18
    12 GLL5       13 GROUP        1 Z    GLL  0     **** GLL Z 20
@<TRIPOS>SET

