#    Name: 2wq6_FAD_1_ligand
#    Modification time : Tue Mar 25 04:34:38 2014

@<TRIPOS>MOLECULE
2wq6_FAD_1_ligand
   84    89     1     0     0
SMALL
NO_CHARGES


@<TRIPOS>ATOM
      1 PA        -13.6750  -27.0870   10.6040 P.3       1 FAD1510     0.0000 
      2 O1A       -14.0280  -27.8600    9.4310 O.co2     1 FAD1510     0.0000 
      3 O2A       -12.3430  -26.4700   10.6700 O.co2     1 FAD1510     0.0000 
      4 O5B       -13.8680  -28.0220   11.9130 O.3       1 FAD1510     0.0000 
      5 C5B       -14.8090  -29.0560   12.0060 C.3       1 FAD1510     0.0000 
      6 C4B       -15.7700  -28.9240   13.2310 C.3       1 FAD1510     0.0000 
      7 O4B       -14.9720  -28.8620   14.4240 O.3       1 FAD1510     0.0000 
      8 C3B       -16.5230  -27.6070   13.2060 C.3       1 FAD1510     0.0000 
      9 O3B       -17.7020  -27.7520   12.4170 O.3       1 FAD1510     0.0000 
     10 C2B       -16.8790  -27.4460   14.6730 C.3       1 FAD1510     0.0000 
     11 O2B       -18.0110  -28.2990   15.0610 O.3       1 FAD1510     0.0000 
     12 C1B       -15.5880  -27.9320   15.3430 C.3       1 FAD1510     0.0000 
     13 N9A       -14.6880  -26.8290   15.5940 N.pl3     1 FAD1510     0.0000 
     14 C8A       -13.7760  -26.2910   14.7540 C.2       1 FAD1510     0.0000 
     15 N7A       -13.1740  -25.2770   15.3620 N.2       1 FAD1510     0.0000 
     16 C5A       -13.6640  -25.1740   16.5950 C.ar      1 FAD1510     0.0000 
     17 C6A       -13.4090  -24.3320   17.6720 C.ar      1 FAD1510     0.0000 
     18 N6A       -12.4970  -23.3800   17.6080 N.pl3     1 FAD1510     0.0000 
     19 N1A       -14.1070  -24.4770   18.7860 N.ar      1 FAD1510     0.0000 
     20 C2A       -15.0350  -25.4380   18.8740 C.ar      1 FAD1510     0.0000 
     21 N3A       -15.3110  -26.2550   17.8880 N.ar      1 FAD1510     0.0000 
     22 C4A       -14.6370  -26.1470   16.7360 C.ar      1 FAD1510     0.0000 
     23 N1        -18.3080  -22.5380   16.3150 N.2       1 FAD1510     0.0000 
     24 C2        -19.6160  -22.9280   16.3450 C.2       1 FAD1510     0.0000 
     25 O2        -19.9230  -24.0540   15.9700 O.2       1 FAD1510     0.0000 
     26 N3        -20.5720  -22.0510   16.8840 N.am      1 FAD1510     0.0000 
     27 C4        -20.1960  -20.7750   17.2820 C.2       1 FAD1510     0.0000 
     28 O4        -21.0460  -19.9920   17.7200 O.2       1 FAD1510     0.0000 
     29 C4X       -18.8570  -20.3910   17.2020 C.2       1 FAD1510     0.0000 
     30 N5        -18.4840  -19.1010   17.6290 N.2       1 FAD1510     0.0000 
     31 C5X       -17.1530  -18.6940   17.5830 C.ar      1 FAD1510     0.0000 
     32 C6        -16.7890  -17.4100   17.9960 C.ar      1 FAD1510     0.0000 
     33 C7        -15.4770  -16.9830   17.9230 C.ar      1 FAD1510     0.0000 
     34 C7M       -15.0530  -15.5820   18.3970 C.3       1 FAD1510     0.0000 
     35 C8        -14.5280  -17.8370   17.4010 C.ar      1 FAD1510     0.0000 
     36 C8M       -13.0560  -17.4100   17.2970 C.3       1 FAD1510     0.0000 
     37 C9        -14.8910  -19.1080   17.0110 C.ar      1 FAD1510     0.0000 
     38 C9A       -16.1880  -19.5630   17.0700 C.ar      1 FAD1510     0.0000 
     39 N10       -16.5580  -20.8450   16.6450 N.pl3     1 FAD1510     0.0000 
     40 C10       -17.9040  -21.2550   16.7120 C.2       1 FAD1510     0.0000 
     41 C1'       -15.4780  -21.8520   16.2610 C.3       1 FAD1510     0.0000 
     42 C2'       -15.0710  -22.0060   14.8270 C.3       1 FAD1510     0.0000 
     43 O2'       -14.6920  -20.7520   14.2730 O.3       1 FAD1510     0.0000 
     44 C3'       -16.1640  -22.6650   13.9920 C.3       1 FAD1510     0.0000 
     45 O3'       -16.5600  -23.8920   14.6170 O.3       1 FAD1510     0.0000 
     46 C4'       -15.5800  -22.9940   12.5800 C.3       1 FAD1510     0.0000 
     47 O4'       -15.2050  -21.7640   11.9470 O.3       1 FAD1510     0.0000 
     48 C5'       -16.6460  -23.7120   11.7140 C.3       1 FAD1510     0.0000 
     49 O5'       -16.1400  -23.9300   10.3940 O.3       1 FAD1510     0.0000 
     50 P         -15.9120  -25.4430    9.9300 P.3       1 FAD1510     0.0000 
     51 O1P       -17.0890  -26.2390   10.1980 O.co2     1 FAD1510     0.0000 
     52 O2P       -15.3760  -25.3370    8.5640 O.co2     1 FAD1510     0.0000 
     53 O3P       -14.7360  -25.9170   10.9260 O.3       1 FAD1510     0.0000 
     54 H         -14.3320  -30.0582   12.0953 H         1 FAD1510     0.0000 
     55 H         -15.4629  -29.1179   11.1068 H         1 FAD1510     0.0000 
     56 H         -16.4401  -29.7266   13.2453 H         1 FAD1510     0.0000 
     57 H         -15.8808  -26.8486   12.9169 H         1 FAD1510     0.0000 
     58 H         -17.0097  -26.4350   14.8927 H         1 FAD1510     0.0000 
     59 H         -15.8588  -28.4323   16.2506 H         1 FAD1510     0.0000 
     60 H         -13.5998  -26.6072   13.8504 H         1 FAD1510     0.0000 
     61 H         -12.3743  -22.8318   18.4353 H         1 FAD1510     0.0000 
     62 H         -12.0116  -23.2934   16.7380 H         1 FAD1510     0.0000 
     63 H         -15.5689  -25.5331   19.7969 H         1 FAD1510     0.0000 
     64 H         -21.5456  -22.3600   16.9805 H         1 FAD1510     0.0000 
     65 H         -17.5195  -16.7728   18.3619 H         1 FAD1510     0.0000 
     66 H         -14.1441  -19.7569   16.6532 H         1 FAD1510     0.0000 
     67 H         -15.7956  -22.8650   16.6591 H         1 FAD1510     0.0000 
     68 H         -14.5555  -21.6181   16.8772 H         1 FAD1510     0.0000 
     69 H         -14.2002  -22.6940   14.8051 H         1 FAD1510     0.0000 
     70 H         -16.9695  -21.9915   13.8671 H         1 FAD1510     0.0000 
     71 H         -14.7482  -23.6471   12.7102 H         1 FAD1510     0.0000 
     72 H         -17.5410  -23.0810   11.7119 H         1 FAD1510     0.0000 
     73 H         -16.8951  -24.6513   12.2188 H         1 FAD1510     0.0000 
     74 H         -14.0724  -15.4293   18.2740 H         1 FAD1510     0.0000 
     75 H         -15.5275  -14.8601   17.8933 H         1 FAD1510     0.0000 
     76 H         -15.2520  -15.4421   19.3670 H         1 FAD1510     0.0000 
     77 H         -12.6683  -17.1921   18.1927 H         1 FAD1510     0.0000 
     78 H         -12.4877  -18.1301   16.8989 H         1 FAD1510     0.0000 
     79 H         -12.9444  -16.5981   16.7240 H         1 FAD1510     0.0000 
     80 H         -17.5261  -27.2199   11.5888 H         1 FAD1510     0.0000 
     81 H         -18.6673  -28.2147   14.3112 H         1 FAD1510     0.0000 
     82 H         -13.7534  -20.6044   14.5850 H         1 FAD1510     0.0000 
     83 H         -17.2539  -23.6287   15.2873 H         1 FAD1510     0.0000 
     84 H         -14.8568  -21.1881   12.6866 H         1 FAD1510     0.0000 
@<TRIPOS>BOND
     1    2    1 ar   
     2    3    1 ar   
     3    4    1 1    
     4   53    1 1    
     5    5    4 1    
     6    6    5 1    
     7   54    5 1    
     8   55    5 1    
     9    7    6 1    
    10    8    6 1    
    11   56    6 1    
    12   12    7 1    
    13    9    8 1    
    14   10    8 1    
    15   57    8 1    
    16   80    9 1    
    17   11   10 1    
    18   12   10 1    
    19   58   10 1    
    20   81   11 1    
    21   13   12 1    
    22   59   12 1    
    23   14   13 1    
    24   22   13 1    
    25   15   14 2    
    26   60   14 1    
    27   16   15 1    
    28   17   16 ar   
    29   22   16 ar   
    30   18   17 1    
    31   19   17 ar   
    32   61   18 1    
    33   62   18 1    
    34   20   19 ar   
    35   21   20 ar   
    36   63   20 1    
    37   22   21 ar   
    38   24   23 1    
    39   40   23 2    
    40   25   24 2    
    41   26   24 am   
    42   27   26 am   
    43   64   26 1    
    44   28   27 2    
    45   29   27 1    
    46   30   29 2    
    47   40   29 1    
    48   31   30 1    
    49   32   31 ar   
    50   38   31 ar   
    51   33   32 ar   
    52   65   32 1    
    53   34   33 1    
    54   35   33 ar   
    55   74   34 1    
    56   75   34 1    
    57   76   34 1    
    58   36   35 1    
    59   37   35 ar   
    60   77   36 1    
    61   78   36 1    
    62   79   36 1    
    63   38   37 ar   
    64   66   37 1    
    65   39   38 1    
    66   40   39 1    
    67   41   39 1    
    68   42   41 1    
    69   67   41 1    
    70   68   41 1    
    71   43   42 1    
    72   44   42 1    
    73   69   42 1    
    74   82   43 1    
    75   45   44 1    
    76   46   44 1    
    77   70   44 1    
    78   83   45 1    
    79   47   46 1    
    80   48   46 1    
    81   71   46 1    
    82   84   47 1    
    83   49   48 1    
    84   72   48 1    
    85   73   48 1    
    86   50   49 1    
    87   51   50 ar   
    88   52   50 ar   
    89   53   50 1    
@<TRIPOS>SUBSTRUCTURE
     1 FAD1510     1 GROUP   
@<TRIPOS>SET

