#    Name: 2j3k_NAP_2_INTS_M
#    Modification time : Tue Mar 25 19:10:06 2014

@<TRIPOS>MOLECULE
2j3k_NAP_2_INTS_M
   73     0    12     0     0
SMALL
NO_CHARGES


@<TRIPOS>ATOM
      1 N          18.4225   11.4390   44.1110 N.am      2 SEC2        0.0000 
      2 N          16.8350   11.5910   44.6050 N.am     10 SEL2        0.0000 
      3 N          20.0100   11.2870   43.6170 N.am      6 SEP2        0.0000 
      4 CA         17.2985    7.5480   48.6455 C.3       4 GLC5        0.0000 
      5 CA         15.5470    7.9160   47.5120 C.3      12 GLL5        0.0000 
      6 CA         19.0500    7.1800   49.7790 C.3       8 GLP5        0.0000 
      7 CA         16.8815    6.8465   49.4080 C.3       4 GLC5        0.0000 
      8 CA         14.7130    6.5130   49.0370 C.3      12 GLL5        0.0000 
      9 CA         15.5090    7.2495   50.7475 C.3       4 GLC5        0.0000 
     10 CA         16.3050    7.9860   52.4580 C.3       8 GLP5        0.0000 
     11 CA         12.8000    5.7595   54.9130 C.3       4 GLC5        0.0000 
     12 CA         12.6210    4.5950   53.0960 C.3      12 GLL5        0.0000 
     13 CA         12.9790    6.9240   56.7300 C.3       8 GLP5        0.0000 
     14 CA         16.2030    4.2940   54.4340 C.3       4 GLC5        0.0000 
     15 CA         14.9190    4.0770   53.0010 C.3      12 GLL5        0.0000 
     16 CA         17.4870    4.5110   55.8670 C.3       8 GLP5        0.0000 
     17 CA         15.6120    6.0315   52.7295 C.3       4 GLC5        0.0000 
     18 N          20.8045   12.2430   46.1070 N.am      2 SEC2        0.0000 
     19 N          19.5970   11.6740   46.8410 N.am     10 SEL2        0.0000 
     20 N          22.0120   12.8120   45.3730 N.am      6 SEP2        0.0000 
     21 CA         16.0255   12.7440   49.5290 C.3       4 GLC5        0.0000 
     22 CA         18.1270   12.1960   49.8310 C.3      12 GLL5        0.0000 
     23 CA         13.9240   13.2920   49.2270 C.3       8 GLP5        0.0000 
     24 CA         19.5130   11.0240   51.7985 C.3       4 GLC5        0.0000 
     25 CA         18.1580   12.5790   51.3340 C.3      12 GLL5        0.0000 
     26 CA         20.8680    9.4690   52.2630 C.3       8 GLP5        0.0000 
     27 CA         17.9960   13.2835   53.8210 C.3       4 GLC5        0.0000 
     28 CA         16.8810   13.1180   51.9540 C.3      12 GLL5        0.0000 
     29 CA         19.1110   13.4490   55.6880 C.3       8 GLP5        0.0000 
     30 O          16.2740   13.8635   54.3400 O.2       1 ALC1        0.0000 
     31 O          16.6700   12.6400   53.2870 O.2       9 ALL1        0.0000 
     32 O          15.8780   15.0870   55.3930 O.2       5 ALP1        0.0000 
     33 N          15.9830   15.2235   54.0255 N.am      2 SEC2        0.0000 
     34 N          16.0880   15.3600   52.6580 N.am     10 SEL2        0.0000 
     35 N          15.8780   15.0870   55.3930 N.am      6 SEP2        0.0000 
     36 CA         20.5395   14.6780   52.2675 C.3       4 GLC5        0.0000 
     37 CA         18.4410   14.8670   52.0520 C.3      12 GLL5        0.0000 
     38 CA         22.6380   14.4890   52.4830 C.3       8 GLP5        0.0000 
     39 CA         18.7760   14.1580   53.8700 C.3       4 GLC5        0.0000 
     40 CA         21.1900   20.1380   50.6665 C.3       4 GLC5        0.0000 
     41 CA         19.9450   18.6050   50.8160 C.3      12 GLL5        0.0000 
     42 CA         22.4350   21.6710   50.5170 C.3       8 GLP5        0.0000 
     43 NZ         14.4100    3.3240   44.9080 N.4       3 LYC4        0.0000 
     44 NZ         14.4550    2.7070   46.3640 N.4      11 LYL4        0.0000 
     45 NZ         14.3650    3.9410   43.4520 N.4       7 LYP4        0.0000 
     46 N          14.4100    3.3240   44.9080 N.am      2 SEC2        0.0000 
     47 N          14.4550    2.7070   46.3640 N.am     10 SEL2        0.0000 
     48 N          14.3650    3.9410   43.4520 N.am      6 SEP2        0.0000 
     49 N          15.0455    1.9860   49.3370 N.am      2 SEC2        0.0000 
     50 N          15.9010    2.2540   48.2490 N.am     10 SEL2        0.0000 
     51 N          14.1900    1.7180   50.4250 N.am      6 SEP2        0.0000 
     52 CA         13.0438    5.8605   46.3615 C.3       4 GLC5        0.0000 
     53 CA         14.6270    5.7420   47.7040 C.3      12 GLL5        0.0000 
     54 CA         11.1560    5.4970   45.5340 C.3       8 GLP5        0.0000 
     55 CA         14.8460    6.6495   52.0065 C.3       4 GLC5        0.0000 
     56 CA         14.0010    5.3460   51.2320 C.3      12 GLL5        0.0000 
     57 CA         16.6543   11.1068   52.1580 C.3       4 GLC5        0.0000 
     58 CA         15.7890    9.3650   52.6720 C.3       8 GLP5        0.0000 
     59 CA         15.1288   13.8742   51.1797 C.3       4 GLC5        0.0000 
     60 CA         13.3310   13.8770   50.4750 C.3       8 GLP5        0.0000 
     61 CA         15.3432   13.9868   53.2692 C.3       4 GLC5        0.0000 
     62 CA         13.7600   14.1020   54.6540 C.3       8 GLP5        0.0000 
     63 CA         21.7390   17.4178   51.4255 C.3       4 GLC5        0.0000 
     64 CA         19.6040   16.8960   52.4400 C.3      12 GLL5        0.0000 
     65 CA         23.6160   17.3160   50.5560 C.3       8 GLP5        0.0000 
     66 CA         21.2500   16.0043   52.3890 C.3       4 GLC5        0.0000 
     67 CA         20.1200   18.1430   52.1500 C.3      12 GLL5        0.0000 
     68 CA         19.6322   19.5895   49.1270 C.3       4 GLC5        0.0000 
     69 CA         19.6420   20.9540   47.9460 C.3       8 GLP5        0.0000 
     70 CA         21.6193   17.7705   50.4320 C.3       4 GLC5        0.0000 
     71 CA         19.3000   17.8450   49.8000 C.3      12 GLL5        0.0000 
     72 CA         20.4050   16.0363   48.8383 C.3       4 GLC5        0.0000 
     73 CA         21.7720   14.8610   47.7170 C.3       8 GLP5        0.0000 
@<TRIPOS>BOND
@<TRIPOS>SUBSTRUCTURE
     1 ALC1       30 GROUP        1 X    ALC  0     ROOT ALC X 1
     2 SEC2        1 GROUP        1 X    SEC  0     **** SEC X 2
     3 LYC4       43 GROUP        1 X    LYC  0     **** LYC X 4
     4 GLC5        4 GROUP        1 X    GLC  0     **** GLC X 6
     5 ALP1       32 GROUP        1 Y    ALP  0     ROOT ALP Y 8
     6 SEP2        3 GROUP        1 Y    SEP  0     **** SEP Y 9
     7 LYP4       45 GROUP        1 Y    LYP  0     **** LYP Y 11
     8 GLP5        6 GROUP        1 Y    GLP  0     **** GLP Y 13
     9 ALL1       31 GROUP        1 Z    ALL  0     ROOT ALL Z 15
    10 SEL2        2 GROUP        1 Z    SEL  0     **** SEL Z 16
    11 LYL4       44 GROUP        1 Z    LYL  0     **** LYL Z 18
    12 GLL5        5 GROUP        1 Z    GLL  0     **** GLL Z 20
@<TRIPOS>SET

