#    Name: 2j3k_NAP_2_ligand
#    Modification time : Tue Mar 25 19:10:06 2014

@<TRIPOS>MOLECULE
2j3k_NAP_2_ligand
   73    77     1     0     0
SMALL
NO_CHARGES


@<TRIPOS>ATOM
      1 PA         16.3360   11.4580   45.9950 P.3       1 NAP2346     0.0000 
      2 O1A        14.9430   11.9020   46.2380 O.co2     1 NAP2346     0.0000 
      3 O2A        16.8350   11.5910   44.6050 O.co2     1 NAP2346     0.0000 
      4 O5B        16.5710    9.9200   46.5270 O.3       1 NAP2346     0.0000 
      5 C5B        15.3610    9.1900   46.7530 C.3       1 NAP2346     0.0000 
      6 C4B        15.5470    7.9160   47.5120 C.3       1 NAP2346     0.0000 
      7 O4B        14.5850    7.8920   48.5840 O.3       1 NAP2346     0.0000 
      8 C3B        15.2360    6.7060   46.6740 C.3       1 NAP2346     0.0000 
      9 O3B        16.3850    6.1900   45.9870 O.3       1 NAP2346     0.0000 
     10 C2B        14.6270    5.7420   47.7040 C.3       1 NAP2346     0.0000 
     11 O2B        15.2870    4.4380   47.7550 O.3       1 NAP2346     0.0000 
     12 C1B        14.7130    6.5130   49.0370 C.3       1 NAP2346     0.0000 
     13 N9A        13.7700    6.0660   50.1280 N.pl3     1 NAP2346     0.0000 
     14 C8A        12.4750    6.3830   50.1720 C.2       1 NAP2346     0.0000 
     15 N7A        11.8210    5.9120   51.2330 N.2       1 NAP2346     0.0000 
     16 C5A        12.7730    5.2800   51.8780 C.ar      1 NAP2346     0.0000 
     17 C6A        12.6210    4.5950   53.0960 C.ar      1 NAP2346     0.0000 
     18 N6A        11.4550    4.4850   53.7280 N.pl3     1 NAP2346     0.0000 
     19 N1A        13.7280    4.0060   53.6160 N.ar      1 NAP2346     0.0000 
     20 C2A        14.9190    4.0770   53.0010 C.ar      1 NAP2346     0.0000 
     21 N3A        15.0540    4.7270   51.8260 N.ar      1 NAP2346     0.0000 
     22 C4A        14.0010    5.3460   51.2320 C.ar      1 NAP2346     0.0000 
     23 O3         17.1810   12.4390   46.9880 O.3       1 NAP2346     0.0000 
     24 PN         18.7350   12.8210   47.2290 P.3       1 NAP2346     0.0000 
     25 O1N        19.5970   11.6740   46.8410 O.co2     1 NAP2346     0.0000 
     26 O2N        18.9210   14.1610   46.6250 O.co2     1 NAP2346     0.0000 
     27 O5D        18.9010   12.9500   48.8350 O.3       1 NAP2346     0.0000 
     28 C5D        18.1270   12.1960   49.8310 C.3       1 NAP2346     0.0000 
     29 C4D        18.1580   12.5790   51.3340 C.3       1 NAP2346     0.0000 
     30 O4D        19.0780   13.6110   51.7560 O.3       1 NAP2346     0.0000 
     31 C3D        16.8810   13.1180   51.9540 C.3       1 NAP2346     0.0000 
     32 O3D        16.6700   12.6400   53.2870 O.3       1 NAP2346     0.0000 
     33 C2D        16.9720   14.6250   51.8150 C.3       1 NAP2346     0.0000 
     34 O2D        16.0880   15.3600   52.6580 O.3       1 NAP2346     0.0000 
     35 C1D        18.4410   14.8670   52.0520 C.3       1 NAP2346     0.0000 
     36 N1N        18.9350   16.1310   51.4700 N.pl3     1 NAP2346     0.0000 
     37 C2N        19.6040   16.8960   52.4400 C.ar      1 NAP2346     0.0000 
     38 C3N        20.1200   18.1430   52.1500 C.ar      1 NAP2346     0.0000 
     39 C7N        20.8920   18.9420   53.2010 C.2       1 NAP2346     0.0000 
     40 O7N        21.4510   18.3820   54.1410 O.2       1 NAP2346     0.0000 
     41 N7N        20.9100   20.2600   53.0460 N.am      1 NAP2346     0.0000 
     42 C4N        19.9450   18.6050   50.8160 C.ar      1 NAP2346     0.0000 
     43 C5N        19.3000   17.8450   49.8000 C.ar      1 NAP2346     0.0000 
     44 C6N        18.7760   16.5780   50.1190 C.ar      1 NAP2346     0.0000 
     45 P2B        14.7110    2.9850   47.7960 P.3       1 NAP2346     0.0000 
     46 O1X        14.4550    2.7070   46.3640 O.co2     1 NAP2346     0.0000 
     47 O2X        15.9010    2.2540   48.2490 O.co2     1 NAP2346     0.0000 
     48 O3X        13.5100    2.5910   48.5850 O.co2     1 NAP2346     0.0000 
     49 H          14.8620    8.9461   45.7829 H         1 NAP2346     0.0000 
     50 H          14.6203    9.8184   47.3063 H         1 NAP2346     0.0000 
     51 H          16.5329    7.8443   47.8919 H         1 NAP2346     0.0000 
     52 H          14.4324    6.9836   45.9997 H         1 NAP2346     0.0000 
     53 H          13.5706    5.6516   47.4665 H         1 NAP2346     0.0000 
     54 H          15.7652    6.3756   49.3741 H         1 NAP2346     0.0000 
     55 H          12.0249    6.9383   49.4547 H         1 NAP2346     0.0000 
     56 H          10.6821    4.9640   53.3119 H         1 NAP2346     0.0000 
     57 H          11.4569    3.9332   54.5620 H         1 NAP2346     0.0000 
     58 H          15.7580    3.6223   53.4368 H         1 NAP2346     0.0000 
     59 H          18.4061   11.0917   49.7741 H         1 NAP2346     0.0000 
     60 H          17.0283   12.1780   49.5257 H         1 NAP2346     0.0000 
     61 H          18.4014   11.6642   51.9313 H         1 NAP2346     0.0000 
     62 H          16.0626   12.7925   51.2824 H         1 NAP2346     0.0000 
     63 H          16.7990   14.8350   50.7461 H         1 NAP2346     0.0000 
     64 H          18.4909   14.9823   53.2029 H         1 NAP2346     0.0000 
     65 H          19.7076   16.5039   53.3970 H         1 NAP2346     0.0000 
     66 H          20.4028   20.6178   52.2620 H         1 NAP2346     0.0000 
     67 H          21.4292   20.7761   53.7272 H         1 NAP2346     0.0000 
     68 H          20.3084   19.5506   50.5690 H         1 NAP2346     0.0000 
     69 H          19.2225   18.2178   48.8601 H         1 NAP2346     0.0000 
     70 H          18.3134   16.0091   49.4434 H         1 NAP2346     0.0000 
     71 H          16.4576    5.2377   46.2834 H         1 NAP2346     0.0000 
     72 H          16.4812   13.4591   53.8287 H         1 NAP2346     0.0000 
     73 H          16.5927   16.1879   52.9029 H         1 NAP2346     0.0000 
@<TRIPOS>BOND
     1    2    1 ar   
     2    3    1 ar   
     3    4    1 1    
     4   23    1 1    
     5    5    4 1    
     6    6    5 1    
     7   49    5 1    
     8   50    5 1    
     9    7    6 1    
    10    8    6 1    
    11   51    6 1    
    12   12    7 1    
    13    9    8 1    
    14   10    8 1    
    15   52    8 1    
    16   71    9 1    
    17   11   10 1    
    18   12   10 1    
    19   53   10 1    
    20   45   11 1    
    21   13   12 1    
    22   54   12 1    
    23   14   13 1    
    24   22   13 1    
    25   15   14 2    
    26   55   14 1    
    27   16   15 1    
    28   17   16 ar   
    29   22   16 ar   
    30   18   17 1    
    31   19   17 ar   
    32   56   18 1    
    33   57   18 1    
    34   20   19 ar   
    35   21   20 ar   
    36   58   20 1    
    37   22   21 ar   
    38   24   23 1    
    39   25   24 ar   
    40   26   24 ar   
    41   27   24 1    
    42   28   27 1    
    43   29   28 1    
    44   59   28 1    
    45   60   28 1    
    46   30   29 1    
    47   31   29 1    
    48   61   29 1    
    49   35   30 1    
    50   32   31 1    
    51   33   31 1    
    52   62   31 1    
    53   72   32 1    
    54   34   33 1    
    55   35   33 1    
    56   63   33 1    
    57   73   34 1    
    58   36   35 1    
    59   64   35 1    
    60   37   36 ar   
    61   44   36 ar   
    62   38   37 ar   
    63   65   37 1    
    64   39   38 1    
    65   42   38 ar   
    66   40   39 2    
    67   41   39 am   
    68   66   41 1    
    69   67   41 1    
    70   43   42 ar   
    71   68   42 1    
    72   44   43 ar   
    73   69   43 1    
    74   70   44 1    
    75   46   45 ar   
    76   47   45 ar   
    77   48   45 ar   
@<TRIPOS>SUBSTRUCTURE
     1 NAP2346     1 GROUP   
@<TRIPOS>SET

