#    Name: 1kr2_TAD_6_INTS_M
#    Modification time : Tue Mar 25 10:31:47 2014

@<TRIPOS>MOLECULE
1kr2_TAD_6_INTS_M
   78     0     9     0     0
SMALL
NO_CHARGES


@<TRIPOS>ATOM
      1 N          58.8950   13.9090   15.4860 N.am      1 SEC2        0.0000 
      2 N          57.9750   14.9880   15.5370 N.am      7 SEL2        0.0000 
      3 N          59.8150   12.8300   15.4350 N.am      4 SEP2        0.0000 
      4 N          59.0565   14.7500   14.3305 N.am      1 SEC2        0.0000 
      5 N          60.1380   14.5120   13.1240 N.am      4 SEP2        0.0000 
      6 CA         59.3520   15.4185   17.5560 C.3       3 GLC5        0.0000 
      7 CA         58.2600   17.1910   17.4800 C.3       9 GLL5        0.0000 
      8 CA         60.4440   13.6460   17.6320 C.3       6 GLP5        0.0000 
      9 CA         60.3900   17.3665   16.8705 C.3       3 GLC5        0.0000 
     10 CA         62.5200   17.5420   16.2610 C.3       6 GLP5        0.0000 
     11 CA         58.2590   20.4265   18.7860 C.3       3 GLC5        0.0000 
     12 CA         57.9830   18.2600   18.5160 C.3       9 GLL5        0.0000 
     13 CA         58.5350   22.5930   19.0560 C.3       6 GLP5        0.0000 
     14 CA         57.7575   18.9325   21.3905 C.3       3 GLC5        0.0000 
     15 CA         57.1260   17.7070   19.6520 C.3       9 GLL5        0.0000 
     16 CA         58.3890   20.1580   23.1290 C.3       6 GLP5        0.0000 
     17 CA         57.1845   16.4270   20.9720 C.3       3 GLC5        0.0000 
     18 CA         57.2430   15.1470   22.2920 C.3       6 GLP5        0.0000 
     19 N          56.8500   19.1850   21.7155 N.am      1 SEC2        0.0000 
     20 N          57.6570   17.9790   20.9340 N.am      7 SEL2        0.0000 
     21 N          56.0430   20.3910   22.4970 N.am      4 SEP2        0.0000 
     22 N          55.5030   19.2845   21.5480 N.am      1 SEC2        0.0000 
     23 N          54.9630   18.1780   20.5990 N.am      7 SEL2        0.0000 
     24 CA         57.3160   21.1285   18.9955 C.3       3 GLC5        0.0000 
     25 CA         56.0970   19.6640   18.9350 C.3       9 GLL5        0.0000 
     26 CA         54.9945   23.5190   17.1725 C.3       3 GLC5        0.0000 
     27 CA         54.1000   23.9110   19.0440 C.3       9 GLL5        0.0000 
     28 CA         55.8890   23.1270   15.3010 C.3       6 GLP5        0.0000 
     29 CA         55.7760   24.3785   18.8745 C.3       3 GLC5        0.0000 
     30 CA         57.4520   24.8460   18.7050 C.3       6 GLP5        0.0000 
     31 CA         54.4360   22.4935   20.7095 C.3       3 GLC5        0.0000 
     32 CA         54.7720   21.0760   22.3750 C.3       6 GLP5        0.0000 
     33 CA         54.9995   25.3880   20.2730 C.3       3 GLC5        0.0000 
     34 CA         55.8990   26.8650   21.5020 C.3       6 GLP5        0.0000 
     35 CA         56.5760   22.1445   18.6905 C.3       3 GLC5        0.0000 
     36 CA         54.6170   21.6960   18.3250 C.3       9 GLL5        0.0000 
     37 CA         54.6945   21.3860   20.3500 C.3       3 GLC5        0.0000 
     38 NZ         55.2490   11.7380   14.9405 N.4       2 LYC4        0.0000 
     39 NZ         56.3050   12.2120   15.7910 N.4       8 LYL4        0.0000 
     40 NZ         54.1930   11.2640   14.0900 N.4       5 LYP4        0.0000 
     41 N          57.2435   11.5010   15.1465 N.am      1 SEC2        0.0000 
     42 N          56.3050   12.2120   15.7910 N.am      7 SEL2        0.0000 
     43 N          58.1820   10.7900   14.5020 N.am      4 SEP2        0.0000 
     44 N          55.2490   11.7380   14.9405 N.am      1 SEC2        0.0000 
     45 N          54.1930   11.2640   14.0900 N.am      4 SEP2        0.0000 
     46 NZ         54.4760   11.6765   15.9075 N.4       2 LYC4        0.0000 
     47 NZ         54.7590   12.0890   17.7250 N.4       8 LYL4        0.0000 
     48 CA         57.0150    9.6550   19.0090 C.3       3 GLC5        0.0000 
     49 CA         56.9650   11.8320   19.5000 C.3       9 GLL5        0.0000 
     50 CA         57.0650    7.4780   18.5180 C.3       6 GLP5        0.0000 
     51 CA         60.8475    9.9725   18.2075 C.3       3 GLC5        0.0000 
     52 CA         59.2860   10.7670   19.6160 C.3       9 GLL5        0.0000 
     53 CA         62.4090    9.1780   16.7990 C.3       6 GLP5        0.0000 
     54 CA         60.8380    8.8155   19.1760 C.3       3 GLC5        0.0000 
     55 CA         59.3410    9.6170   20.5910 C.3       9 GLL5        0.0000 
     56 CA         62.3350    8.0140   17.7610 C.3       6 GLP5        0.0000 
     57 N          60.9775    7.4030   20.5165 N.am      1 SEC2        0.0000 
     58 N          60.5870    8.9290   20.5730 N.am      7 SEL2        0.0000 
     59 N          61.3680    5.8770   20.4600 N.am      4 SEP2        0.0000 
     60 N          60.0595    9.8315   24.2615 N.am      1 SEC2        0.0000 
     61 N          59.0110    8.8740   23.9610 N.am      7 SEL2        0.0000 
     62 N          61.1080   10.7890   24.5620 N.am      4 SEP2        0.0000 
     63 CA         57.0280    6.6900   22.4205 C.3       3 GLC5        0.0000 
     64 CA         56.7590    8.8770   22.7130 C.3       9 GLL5        0.0000 
     65 CA         57.2970    4.5030   22.1280 C.3       6 GLP5        0.0000 
     66 CA         58.5027   18.7048   16.3640 C.3       3 GLC5        0.0000 
     67 CA         58.8840   19.6840   14.7300 C.3       6 GLP5        0.0000 
     68 CA         55.3365   20.0310   20.7718 C.3       3 GLC5        0.0000 
     69 CA         54.9439   22.6069   16.5219 C.3       3 GLC5        0.0000 
     70 CA         53.7290   21.8790   17.2600 C.3       9 GLL5        0.0000 
     71 CA         57.4375   13.4670   21.0843 C.3       3 GLC5        0.0000 
     72 CA         58.2990   11.7420   20.2530 C.3       9 GLL5        0.0000 
     73 CA         59.4515   12.4615   18.6891 C.3       3 GLC5        0.0000 
     74 CA         58.1893    8.8350   19.3107 C.3       3 GLC5        0.0000 
     75 CA         57.4202    6.2622   23.2662 C.3       3 GLC5        0.0000 
     76 CA         56.9210    7.9580   24.1540 C.3       9 GLL5        0.0000 
     77 CA         55.2140    7.4387   23.3847 C.3       3 GLC5        0.0000 
     78 CA         53.5880    6.4600   23.3360 C.3       6 GLP5        0.0000 
@<TRIPOS>BOND
@<TRIPOS>SUBSTRUCTURE
     1 SEC2        1 GROUP        1 X    SEC  0     ROOT SEC X 2
     2 LYC4       38 GROUP        1 X    LYC  0     **** LYC X 4
     3 GLC5        6 GROUP        1 X    GLC  0     **** GLC X 6
     4 SEP2        3 GROUP        1 Y    SEP  0     ROOT SEP Y 9
     5 LYP4       40 GROUP        1 Y    LYP  0     **** LYP Y 11
     6 GLP5        8 GROUP        1 Y    GLP  0     **** GLP Y 13
     7 SEL2        2 GROUP        1 Z    SEL  0     ROOT SEL Z 16
     8 LYL4       39 GROUP        1 Z    LYL  0     **** LYL Z 18
     9 GLL5        7 GROUP        1 Z    GLL  0     **** GLL Z 20
@<TRIPOS>SET

