#    Name: 1kr2_TAD_6_ligand
#    Modification time : Tue Mar 25 10:31:47 2014

@<TRIPOS>MOLECULE
1kr2_TAD_6_ligand
   68    72     1     0     0
SMALL
NO_CHARGES


@<TRIPOS>ATOM
      1 PA         56.6900   15.5110   15.9780 P.3       1 TAD814      0.0000 
      2 O1A        57.9750   14.9880   15.5370 O.co2     1 TAD814      0.0000 
      3 O2A        55.6360   15.8420   14.9070 O.co2     1 TAD814      0.0000 
      4 O5B        56.9840   16.7120   17.0270 O.3       1 TAD814      0.0000 
      5 C5B        58.2600   17.1910   17.4800 C.3       1 TAD814      0.0000 
      6 C4B        57.9830   18.2600   18.5160 C.3       1 TAD814      0.0000 
      7 O4B        57.2950   19.4260   18.1000 O.3       1 TAD814      0.0000 
      8 C3B        57.1260   17.7070   19.6520 C.3       1 TAD814      0.0000 
      9 O3B        57.6570   17.9790   20.9340 O.3       1 TAD814      0.0000 
     10 C2B        55.7050   18.3080   19.4020 C.3       1 TAD814      0.0000 
     11 O2B        54.9630   18.1780   20.5990 O.3       1 TAD814      0.0000 
     12 C1B        56.0970   19.6640   18.9350 C.3       1 TAD814      0.0000 
     13 N9A        55.0740   20.4450   18.1290 N.pl3     1 TAD814      0.0000 
     14 C8A        54.4810   19.9490   17.0250 C.2       1 TAD814      0.0000 
     15 N7A        53.6460   20.8170   16.4590 N.2       1 TAD814      0.0000 
     16 C5A        53.7290   21.8790   17.2600 C.ar      1 TAD814      0.0000 
     17 C6A        53.0320   23.0760   17.0610 C.ar      1 TAD814      0.0000 
     18 N6A        52.2080   23.2100   16.0130 N.pl3     1 TAD814      0.0000 
     19 N1A        53.2490   24.0780   17.9970 N.ar      1 TAD814      0.0000 
     20 C2A        54.1000   23.9110   19.0440 C.ar      1 TAD814      0.0000 
     21 N3A        54.7640   22.7430   19.2000 N.ar      1 TAD814      0.0000 
     22 C4A        54.6170   21.6960   18.3250 C.ar      1 TAD814      0.0000 
     23 C3         55.8730   14.4460   17.1920 C.3       1 TAD814      0.0000 
     24 PN         56.0000   12.6630   17.1410 P.3       1 TAD814      0.0000 
     25 O1N        56.3050   12.2120   15.7910 O.co2     1 TAD814      0.0000 
     26 O2N        54.7590   12.0890   17.7250 O.co2     1 TAD814      0.0000 
     27 O5D        57.1990   12.3990   18.1470 O.3       1 TAD814      0.0000 
     28 C5D        56.9650   11.8320   19.5000 C.3       1 TAD814      0.0000 
     29 C4D        58.2990   11.7420   20.2530 C.3       1 TAD814      0.0000 
     30 O4D        58.1730   11.3680   21.6550 O.3       1 TAD814      0.0000 
     31 C3D        59.2860   10.7670   19.6160 C.3       1 TAD814      0.0000 
     32 O3D        60.5740   11.3340   19.3610 O.3       1 TAD814      0.0000 
     33 C2D        59.3410    9.6170   20.5910 C.3       1 TAD814      0.0000 
     34 O2D        60.5870    8.9290   20.5730 O.3       1 TAD814      0.0000 
     35 C1D        59.0430   10.2450   21.9250 C.3       1 TAD814      0.0000 
     36 C2N        58.3870    9.3540   22.9080 C.2       1 TAD814      0.0000 
     37 N3N        59.0110    8.8740   23.9610 N.2       1 TAD814      0.0000 
     38 C4N        58.1660    8.0850   24.6550 C.2       1 TAD814      0.0000 
     39 C5N        56.9210    7.9580   24.1540 C.2       1 TAD814      0.0000 
     40 S1N        56.7590    8.8770   22.7130 S.3       1 TAD814      0.0000 
     41 C6N        58.6830    7.4200   25.8900 C.2       1 TAD814      0.0000 
     42 O6N        58.0080    6.6800   26.6120 O.2       1 TAD814      0.0000 
     43 N6N        59.9670    7.7170   26.1220 N.am      1 TAD814      0.0000 
     44 H          58.8312   17.6347   16.6720 H         1 TAD814      0.0000 
     45 H          58.8414   16.4029   17.9458 H         1 TAD814      0.0000 
     46 H          58.9401   18.5414   18.9960 H         1 TAD814      0.0000 
     47 H          57.0240   16.6297   19.4602 H         1 TAD814      0.0000 
     48 H          55.3204   17.7450   18.5750 H         1 TAD814      0.0000 
     49 H          56.4142   20.2570   19.7904 H         1 TAD814      0.0000 
     50 H          54.6549   19.0313   16.6778 H         1 TAD814      0.0000 
     51 H          51.7395   24.0897   15.9313 H         1 TAD814      0.0000 
     52 H          52.1352   22.4183   15.4064 H         1 TAD814      0.0000 
     53 H          54.2387   24.6855   19.7253 H         1 TAD814      0.0000 
     54 H          54.8125   14.6855   17.1321 H         1 TAD814      0.0000 
     55 H          56.2510   14.7584   18.1642 H         1 TAD814      0.0000 
     56 H          56.5410   10.8338   19.4269 H         1 TAD814      0.0000 
     57 H          56.2895   12.4667   20.0677 H         1 TAD814      0.0000 
     58 H          58.7814   12.7419   20.2016 H         1 TAD814      0.0000 
     59 H          58.8139   10.3917   18.7090 H         1 TAD814      0.0000 
     60 H          58.5055    8.9582   20.3542 H         1 TAD814      0.0000 
     61 H          59.9765   10.6253   22.3384 H         1 TAD814      0.0000 
     62 H          56.1505    7.5063   24.3925 H         1 TAD814      0.0000 
     63 H          60.3808    7.2847   26.9232 H         1 TAD814      0.0000 
     64 H          60.3976    8.3446   25.4734 H         1 TAD814      0.0000 
     65 H          56.8915   18.3540   21.4568 H         1 TAD814      0.0000 
     66 H          54.1105   18.6727   20.4300 H         1 TAD814      0.0000 
     67 H          61.2264   10.6627   19.7128 H         1 TAD814      0.0000 
     68 H          61.0030    9.1240   21.4612 H         1 TAD814      0.0000 
@<TRIPOS>BOND
     1    2    1 ar   
     2    3    1 ar   
     3    4    1 1    
     4   23    1 1    
     5    5    4 1    
     6    6    5 1    
     7   44    5 1    
     8   45    5 1    
     9    7    6 1    
    10    8    6 1    
    11   46    6 1    
    12   12    7 1    
    13    9    8 1    
    14   10    8 1    
    15   47    8 1    
    16   65    9 1    
    17   11   10 1    
    18   12   10 1    
    19   48   10 1    
    20   66   11 1    
    21   13   12 1    
    22   49   12 1    
    23   14   13 1    
    24   22   13 1    
    25   15   14 2    
    26   50   14 1    
    27   16   15 1    
    28   17   16 ar   
    29   22   16 ar   
    30   18   17 1    
    31   19   17 ar   
    32   51   18 1    
    33   52   18 1    
    34   20   19 ar   
    35   21   20 ar   
    36   53   20 1    
    37   22   21 ar   
    38   24   23 1    
    39   54   23 1    
    40   55   23 1    
    41   25   24 ar   
    42   26   24 ar   
    43   27   24 1    
    44   28   27 1    
    45   29   28 1    
    46   56   28 1    
    47   57   28 1    
    48   30   29 1    
    49   31   29 1    
    50   58   29 1    
    51   35   30 1    
    52   32   31 1    
    53   33   31 1    
    54   59   31 1    
    55   67   32 1    
    56   34   33 1    
    57   35   33 1    
    58   60   33 1    
    59   68   34 1    
    60   36   35 1    
    61   61   35 1    
    62   37   36 2    
    63   40   36 1    
    64   38   37 1    
    65   39   38 2    
    66   41   38 1    
    67   40   39 1    
    68   62   39 1    
    69   42   41 2    
    70   43   41 am   
    71   63   43 1    
    72   64   43 1    
@<TRIPOS>SUBSTRUCTURE
     1 TAD814      1 GROUP   
@<TRIPOS>SET

