#    Name: 4hl5_15W_1_INTS_M
#    Modification time : Tue Mar 25 01:09:06 2014

@<TRIPOS>MOLECULE
4hl5_15W_1_INTS_M
   52     0     9     0     0
SMALL
NO_CHARGES


@<TRIPOS>ATOM
      1 CA         -0.1365  -10.5350  -24.4140 C.3       3 GLC5        0.0000 
      2 CA         -1.3560  -10.2720  -23.3710 C.3       9 GLL5        0.0000 
      3 CA          1.0830  -10.7980  -25.4570 C.3       6 GLP5        0.0000 
      4 CA         -0.7150   -8.2915  -22.9480 C.3       3 GLC5        0.0000 
      5 CA         -0.0740   -6.3110  -22.5250 C.3       6 GLP5        0.0000 
      6 CA         -4.5860  -13.0815  -22.0215 C.3       3 GLC5        0.0000 
      7 CA         -3.7930  -11.5130  -21.0460 C.3       9 GLL5        0.0000 
      8 CA         -5.3790  -14.6500  -22.9970 C.3       6 GLP5        0.0000 
      9 CA         -4.1440  -10.4755  -16.4750 C.3       3 GLC5        0.0000 
     10 CA         -2.9890  -11.9440  -17.4710 C.3       9 GLL5        0.0000 
     11 CA         -5.2990   -9.0070  -15.4790 C.3       6 GLP5        0.0000 
     12 CA         -3.1010  -13.7045  -17.5200 C.3       3 GLC5        0.0000 
     13 CA         -3.2130  -15.4650  -17.5690 C.3       6 GLP5        0.0000 
     14 CA         -6.8070  -14.5265  -13.3525 C.3       3 GLC5        0.0000 
     15 CA         -6.2590  -12.4840  -14.0220 C.3       9 GLL5        0.0000 
     16 CA         -7.3550  -16.5690  -12.6830 C.3       6 GLP5        0.0000 
     17 O          -8.2015  -12.7155  -12.6000 O.2       1 ALC1        0.0000 
     18 O          -7.5720  -12.4930  -13.6520 O.2       7 ALL1        0.0000 
     19 O          -8.8310  -12.9380  -11.5480 O.2       4 ALP1        0.0000 
     20 CA         -6.3940  -12.5185  -11.3570 C.3       3 GLC5        0.0000 
     21 CA         -5.2500  -12.6960  -13.0830 C.3       9 GLL5        0.0000 
     22 CA         -7.5380  -12.3410   -9.6310 C.3       6 GLP5        0.0000 
     23 CA         -3.2900  -10.7420  -12.6055 C.3       3 GLC5        0.0000 
     24 CA         -3.9160  -12.6540  -13.4730 C.3       9 GLL5        0.0000 
     25 CA         -2.6640   -8.8300  -11.7380 C.3       6 GLP5        0.0000 
     26 CA         -2.4165  -14.1390  -13.1740 C.3       3 GLC5        0.0000 
     27 CA         -0.9170  -15.6240  -12.8750 C.3       6 GLP5        0.0000 
     28 N           0.1665  -12.7490  -14.7260 N.am      2 SEC2        0.0000 
     29 N          -1.2650  -12.5430  -14.4250 N.am      8 SEL2        0.0000 
     30 N           1.5980  -12.9550  -15.0270 N.am      5 SEP2        0.0000 
     31 N          -0.8830  -13.0255  -13.0940 N.am      2 SEC2        0.0000 
     32 N          -0.5010  -13.5080  -11.7630 N.am      5 SEP2        0.0000 
     33 CA         -0.2725  -10.7840  -16.0065 C.3       3 GLC5        0.0000 
     34 CA         -1.9480  -12.1250  -16.5550 C.3       9 GLL5        0.0000 
     35 CA          1.4030   -9.4430  -15.4580 C.3       6 GLP5        0.0000 
     36 CA         -1.8520  -13.8090  -17.1855 C.3       3 GLC5        0.0000 
     37 CA         -1.7560  -15.4930  -17.8160 C.3       6 GLP5        0.0000 
     38 CA          0.5532  -11.4525  -19.9680 C.3       3 GLC5        0.0000 
     39 CA         -1.5660  -11.3770  -19.4140 C.3       9 GLL5        0.0000 
     40 CA          2.6100  -11.6500  -19.8350 C.3       6 GLP5        0.0000 
     41 CA         -1.9728  -13.5147  -18.4723 C.3       3 GLC5        0.0000 
     42 CA         -5.1892  -10.4087  -20.3133 C.3       3 GLC5        0.0000 
     43 CA         -3.9160  -11.7560  -19.6890 C.3       9 GLL5        0.0000 
     44 CA         -6.5240   -9.1830  -20.2590 C.3       6 GLP5        0.0000 
     45 CA         -5.2780  -10.6182  -15.5140 C.3       3 GLC5        0.0000 
     46 CA         -4.5920  -12.2110  -15.7420 C.3       9 GLL5        0.0000 
     47 CA         -5.5267  -10.7985  -14.5157 C.3       3 GLC5        0.0000 
     48 CA         -4.0385  -12.7450  -11.4585 C.3       3 GLC5        0.0000 
     49 CA         -3.4940  -12.8150   -9.6390 C.3       6 GLP5        0.0000 
     50 CA         -5.0415  -14.2450  -12.2265 C.3       3 GLC5        0.0000 
     51 CA         -5.5000  -15.8150  -11.1750 C.3       6 GLP5        0.0000 
     52 CA         -4.5187  -10.7692  -14.8090 C.3       3 GLC5        0.0000 
@<TRIPOS>BOND
@<TRIPOS>SUBSTRUCTURE
     1 ALC1       17 GROUP        1 X    ALC  0     ROOT ALC X 1
     2 SEC2       28 GROUP        1 X    SEC  0     **** SEC X 2
     3 GLC5        1 GROUP        1 X    GLC  0     **** GLC X 6
     4 ALP1       19 GROUP        1 Y    ALP  0     ROOT ALP Y 8
     5 SEP2       30 GROUP        1 Y    SEP  0     **** SEP Y 9
     6 GLP5        3 GROUP        1 Y    GLP  0     **** GLP Y 13
     7 ALL1       18 GROUP        1 Z    ALL  0     ROOT ALL Z 15
     8 SEL2       29 GROUP        1 Z    SEL  0     **** SEL Z 16
     9 GLL5        2 GROUP        1 Z    GLL  0     **** GLL Z 20
@<TRIPOS>SET

