#    Name: 4hl5_15W_1_ligand
#    Modification time : Tue Mar 25 01:09:06 2014

@<TRIPOS>MOLECULE
4hl5_15W_1_ligand
   32    34     1     0     0
SMALL
NO_CHARGES


@<TRIPOS>ATOM
      1 CAS        -1.3560  -10.2720  -23.3710 C.3       1 15W1204     0.0000 
      2 OAR        -2.5270  -10.9710  -22.9720 O.3       1 15W1204     0.0000 
      3 CAP        -2.5690  -11.1920  -21.6200 C.ar      1 15W1204     0.0000 
      4 CAO        -1.4410  -11.1330  -20.7880 C.ar      1 15W1204     0.0000 
      5 CAN        -1.5660  -11.3770  -19.4140 C.ar      1 15W1204     0.0000 
      6 CAL        -3.7930  -11.5130  -21.0460 C.ar      1 15W1204     0.0000 
      7 CAM        -3.9160  -11.7560  -19.6890 C.ar      1 15W1204     0.0000 
      8 CAK        -2.8130  -11.6960  -18.8430 C.ar      1 15W1204     0.0000 
      9 CAI        -2.9890  -11.9440  -17.4710 C.2       1 15W1204     0.0000 
     10 OAJ        -4.2830  -11.9770  -17.0510 O.3       1 15W1204     0.0000 
     11 CAF        -4.5920  -12.2110  -15.7420 C.ar      1 15W1204     0.0000 
     12 CAA        -5.9220  -12.2480  -15.3560 C.ar      1 15W1204     0.0000 
     13 CAB        -6.2590  -12.4840  -14.0220 C.ar      1 15W1204     0.0000 
     14 OAT        -7.5720  -12.4930  -13.6520 O.3       1 15W1204     0.0000 
     15 CAC        -5.2500  -12.6960  -13.0830 C.ar      1 15W1204     0.0000 
     16 CAD        -3.9160  -12.6540  -13.4730 C.ar      1 15W1204     0.0000 
     17 CAE        -3.5610  -12.4090  -14.8050 C.ar      1 15W1204     0.0000 
     18 CAG        -2.2140  -12.3830  -15.2130 C.2       1 15W1204     0.0000 
     19 OAQ        -1.2650  -12.5430  -14.4250 O.2       1 15W1204     0.0000 
     20 CAH        -1.9480  -12.1250  -16.5550 C.2       1 15W1204     0.0000 
     21 H          -0.5228  -10.9106  -21.1873 H         1 15W1204     0.0000 
     22 H          -0.7331  -11.3228  -18.8084 H         1 15W1204     0.0000 
     23 H          -4.6363  -11.5715  -21.6531 H         1 15W1204     0.0000 
     24 H          -4.8465  -11.9874  -19.2922 H         1 15W1204     0.0000 
     25 H          -6.6671  -12.1017  -16.0510 H         1 15W1204     0.0000 
     26 H          -5.4945  -12.8833  -12.1023 H         1 15W1204     0.0000 
     27 H          -3.1716  -12.8055  -12.7717 H         1 15W1204     0.0000 
     28 H          -0.9697  -12.0660  -16.8810 H         1 15W1204     0.0000 
     29 H          -0.5247  -10.7757  -23.1361 H         1 15W1204     0.0000 
     30 H          -1.3350  -10.1159  -24.3585 H         1 15W1204     0.0000 
     31 H          -1.2902   -9.3763  -22.9313 H         1 15W1204     0.0000 
     32 H          -7.5685  -12.7748  -12.6925 H         1 15W1204     0.0000 
@<TRIPOS>BOND
     1    2    1 1    
     2   29    1 1    
     3   30    1 1    
     4   31    1 1    
     5    3    2 1    
     6    4    3 ar   
     7    6    3 ar   
     8    5    4 ar   
     9   21    4 1    
    10    8    5 ar   
    11   22    5 1    
    12    7    6 ar   
    13   23    6 1    
    14    8    7 ar   
    15   24    7 1    
    16    9    8 1    
    17   10    9 1    
    18   20    9 2    
    19   11   10 1    
    20   12   11 ar   
    21   17   11 ar   
    22   13   12 ar   
    23   25   12 1    
    24   14   13 1    
    25   15   13 ar   
    26   32   14 1    
    27   16   15 ar   
    28   26   15 1    
    29   17   16 ar   
    30   27   16 1    
    31   18   17 1    
    32   19   18 2    
    33   20   18 1    
    34   28   20 1    
@<TRIPOS>SUBSTRUCTURE
     1 15W1204     1 GROUP   
@<TRIPOS>SET

