#    Name: 2rgj_FAD_1_INTS_M
#    Modification time : Mon Mar 24 23:55:01 2014

@<TRIPOS>MOLECULE
2rgj_FAD_1_INTS_M
  104     0    12     0     0
SMALL
NO_CHARGES


@<TRIPOS>ATOM
      1 NZ         24.9265   10.9085   70.0290 N.4       3 LYC4        0.0000 
      2 NZ         23.8470   11.8890   70.2160 N.4      11 LYL4        0.0000 
      3 NZ         26.8880    9.9090   68.8330 N.4       7 LYP4        0.0000 
      4 N          24.9265   10.9085   70.0290 N.am      2 SEC2        0.0000 
      5 N          23.8470   11.8890   70.2160 N.am     10 SEL2        0.0000 
      6 N          26.0060    9.9280   69.8420 N.am      6 SEP2        0.0000 
      7 CA         19.4805   11.4275   71.3750 C.3       4 GLC5        0.0000 
      8 CA         20.8570   10.4250   72.0730 C.3      12 GLL5        0.0000 
      9 CA         18.1040   12.4300   70.6770 C.3       8 GLP5        0.0000 
     10 CA         20.8500    9.2450   74.9470 C.3       4 GLC5        0.0000 
     11 CA         21.2140    9.2370   72.9630 C.3      12 GLL5        0.0000 
     12 CA         20.4860    9.2530   76.9310 C.3       8 GLP5        0.0000 
     13 O          22.6640    7.0515   73.9335 O.2       1 ALC1        0.0000 
     14 O          22.7780    7.4660   72.6690 O.2       9 ALL1        0.0000 
     15 O          22.5500    6.6370   75.1980 O.2       5 ALP1        0.0000 
     16 O          21.4805    5.3015   73.0145 O.2       1 ALC1        0.0000 
     17 O          20.8470    5.8110   72.0000 O.2       9 ALL1        0.0000 
     18 O          22.1140    4.7920   74.0290 O.2       5 ALP1        0.0000 
     19 CA         20.1790    8.3395   75.2215 C.3       4 GLC5        0.0000 
     20 CA         19.8720    7.4260   73.5120 C.3      12 GLL5        0.0000 
     21 CA         18.7080    9.2875   73.8935 C.3       4 GLC5        0.0000 
     22 CA         17.5440   11.1490   74.2750 C.3       8 GLP5        0.0000 
     23 CA         15.8495    4.4555   76.8480 C.3       4 GLC5        0.0000 
     24 CA         15.6800    6.2340   75.6990 C.3      12 GLL5        0.0000 
     25 CA         16.0190    2.6770   77.9970 C.3       8 GLP5        0.0000 
     26 CA         14.6545    6.3965   77.6600 C.3       4 GLC5        0.0000 
     27 CA         13.6290    6.5590   79.6210 C.3       8 GLP5        0.0000 
     28 O          13.3595    5.3140   76.4520 O.2       1 ALC1        0.0000 
     29 O          14.4700    5.7030   75.4790 O.2       9 ALL1        0.0000 
     30 O          12.2490    4.9250   77.4250 O.2       5 ALP1        0.0000 
     31 N          15.4380    5.2330   77.9270 N.am      2 SEC2        0.0000 
     32 N          16.2470    6.0440   76.9430 N.am     10 SEL2        0.0000 
     33 N          14.6290    4.4220   78.9110 N.am      6 SEP2        0.0000 
     34 CA         17.0050    8.0085   78.2350 C.3       4 GLC5        0.0000 
     35 CA         17.5970    6.2060   77.1680 C.3      12 GLL5        0.0000 
     36 CA         16.4130    9.8110   79.3020 C.3       8 GLP5        0.0000 
     37 CA         19.0415    7.7295   77.0495 C.3       4 GLC5        0.0000 
     38 CA         19.4360    5.5090   77.5280 C.3       4 GLC5        0.0000 
     39 CA         21.2750    4.8120   77.8880 C.3       8 GLP5        0.0000 
     40 CA         17.7695    4.4855   76.0940 C.3       4 GLC5        0.0000 
     41 CA         17.9420    2.7650   75.0200 C.3       8 GLP5        0.0000 
     42 CA         16.8080    4.4415   77.5825 C.3       4 GLC5        0.0000 
     43 N          19.0800    5.0705   76.2750 N.am      2 SEC2        0.0000 
     44 N          18.3880    6.5790   76.1080 N.am     10 SEL2        0.0000 
     45 N          19.7720    3.5620   76.4420 N.am      6 SEP2        0.0000 
     46 CA         19.1745    8.0210   75.8995 C.3       4 GLC5        0.0000 
     47 CA         17.8630    6.7890   74.8680 C.3      12 GLL5        0.0000 
     48 N          28.7430   10.5835   62.0170 N.am      2 SEC2        0.0000 
     49 N          27.4630   11.2710   61.8680 N.am     10 SEL2        0.0000 
     50 N          30.0230    9.8960   62.1660 N.am      6 SEP2        0.0000 
     51 N          26.7625   10.6415   61.2735 N.am      2 SEC2        0.0000 
     52 N          26.0620   10.0120   60.6790 N.am      6 SEP2        0.0000 
     53 N          26.0940   10.0490   62.3060 N.am      2 SEC2        0.0000 
     54 N          26.1260   10.0860   63.9330 N.am     10 SEL2        0.0000 
     55 CA         26.7745    6.4855   65.7315 C.3       4 GLC5        0.0000 
     56 CA         25.4910    8.2430   65.3370 C.3      12 GLL5        0.0000 
     57 CA         28.0580    4.7280   66.1260 C.3       8 GLP5        0.0000 
     58 CA         26.4310    5.5280   66.4650 C.3       4 GLC5        0.0000 
     59 CA         24.8040    6.3280   66.8040 C.3      12 GLL5        0.0000 
     60 CA         22.3965   12.5650   65.0285 C.3       4 GLC5        0.0000 
     61 CA         23.6740   12.8640   66.1130 C.3      12 GLL5        0.0000 
     62 CA         21.1190   12.2660   63.9440 C.3       8 GLP5        0.0000 
     63 CA         26.1540   12.4170   66.9455 C.3       4 GLC5        0.0000 
     64 CA         24.4630   13.8020   67.0390 C.3      12 GLL5        0.0000 
     65 CA         27.8450   11.0320   66.8520 C.3       8 GLP5        0.0000 
     66 N          26.0410   12.0170   68.0390 N.am      2 SEC2        0.0000 
     67 N          25.1130   13.0780   68.0740 N.am     10 SEL2        0.0000 
     68 N          26.9690   10.9560   68.0040 N.am      6 SEP2        0.0000 
     69 O          21.4885   15.1245   67.0330 O.2       1 ALC1        0.0000 
     70 O          22.7140   15.3590   66.7170 O.2       9 ALL1        0.0000 
     71 O          20.2630   14.8900   67.3490 O.2       5 ALP1        0.0000 
     72 CA         24.0190   17.7225   67.5535 C.3       4 GLC5        0.0000 
     73 CA         24.1900   15.9820   68.4230 C.3      12 GLL5        0.0000 
     74 CA         23.8480   19.4630   66.6840 C.3       8 GLP5        0.0000 
     75 CA         23.5860   17.5365   71.1115 C.3       4 GLC5        0.0000 
     76 CA         23.4620   16.1940   69.7640 C.3      12 GLL5        0.0000 
     77 CA         23.7100   18.8790   72.4590 C.3       8 GLP5        0.0000 
     78 N          23.9240   14.5910   73.3925 N.am      2 SEC2        0.0000 
     79 N          22.9310   13.9970   72.6920 N.am     10 SEL2        0.0000 
     80 N          24.9170   15.1850   74.0930 N.am      6 SEP2        0.0000 
     81 N          20.1560   16.3945   71.1930 N.am      2 SEC2        0.0000 
     82 N          21.1640   15.5010   71.6770 N.am     10 SEL2        0.0000 
     83 N          19.1480   17.2880   70.7090 N.am      6 SEP2        0.0000 
     84 CA         19.2897   10.4900   73.3965 C.3       4 GLC5        0.0000 
     85 CA         23.1056    9.8020   72.9785 C.3       4 GLC5        0.0000 
     86 CA         24.8820   10.6600   73.6480 C.3       8 GLP5        0.0000 
     87 CA         17.4605    4.6871   75.0190 C.3       4 GLC5        0.0000 
     88 CA         16.5100    6.6250   74.6370 C.3      12 GLL5        0.0000 
     89 CA         16.7775    8.3931   75.0080 C.3       4 GLC5        0.0000 
     90 CA         16.5760   10.1770   74.9980 C.3       8 GLP5        0.0000 
     91 CA         27.1822    8.6265   64.3935 C.3       4 GLC5        0.0000 
     92 CA         28.9080    8.3290   63.6050 C.3       8 GLP5        0.0000 
     93 CA         26.6507    9.9780   66.0170 C.3       4 GLC5        0.0000 
     94 CA         23.8837    8.8050   64.4800 C.3       4 GLC5        0.0000 
     95 CA         25.4220    9.6050   65.0270 C.3      12 GLL5        0.0000 
     96 CA         22.3110    8.6860   63.7780 C.3       8 GLP5        0.0000 
     97 CA         23.3370    8.4505   65.3065 C.3       4 GLC5        0.0000 
     98 CA         24.7490    7.7740   66.4410 C.3      12 GLL5        0.0000 
     99 CA         26.0652   10.6415   66.5993 C.3       4 GLC5        0.0000 
    100 CA         23.9280   10.0080   66.8990 C.3      12 GLL5        0.0000 
    101 CA         23.2983    9.4685   65.0623 C.3       4 GLC5        0.0000 
    102 CA         24.6430   10.4940   65.7940 C.3      12 GLL5        0.0000 
    103 CA         25.2060   17.4665   69.1488 C.3       4 GLC5        0.0000 
    104 CA         26.5860   18.8450   69.2040 C.3       8 GLP5        0.0000 
@<TRIPOS>BOND
@<TRIPOS>SUBSTRUCTURE
     1 ALC1       13 GROUP        1 X    ALC  0     ROOT ALC X 1
     2 SEC2        4 GROUP        1 X    SEC  0     **** SEC X 2
     3 LYC4        1 GROUP        1 X    LYC  0     **** LYC X 4
     4 GLC5        7 GROUP        1 X    GLC  0     **** GLC X 6
     5 ALP1       15 GROUP        1 Y    ALP  0     ROOT ALP Y 8
     6 SEP2        6 GROUP        1 Y    SEP  0     **** SEP Y 9
     7 LYP4        3 GROUP        1 Y    LYP  0     **** LYP Y 11
     8 GLP5        9 GROUP        1 Y    GLP  0     **** GLP Y 13
     9 ALL1       14 GROUP        1 Z    ALL  0     ROOT ALL Z 15
    10 SEL2        5 GROUP        1 Z    SEL  0     **** SEL Z 16
    11 LYL4        2 GROUP        1 Z    LYL  0     **** LYL Z 18
    12 GLL5        8 GROUP        1 Z    GLL  0     **** GLL Z 20
@<TRIPOS>SET

