#    Name: 2rgj_FAD_1_ligand
#    Modification time : Mon Mar 24 23:55:01 2014

@<TRIPOS>MOLECULE
2rgj_FAD_1_ligand
   84    89     1     0     0
SMALL
NO_CHARGES


@<TRIPOS>ATOM
      1 PA         22.3550   11.8280   70.4000 P.3       1 FAD403      0.0000 
      2 O1A        21.6640   11.2130   69.2330 O.co2     1 FAD403      0.0000 
      3 O2A        23.8470   11.8890   70.2160 O.co2     1 FAD403      0.0000 
      4 O5B        22.0880   11.0210   71.7550 O.3       1 FAD403      0.0000 
      5 C5B        20.8570   10.4250   72.0730 C.3       1 FAD403      0.0000 
      6 C4B        21.2140    9.2370   72.9630 C.3       1 FAD403      0.0000 
      7 O4B        20.1100    8.8070   73.7410 O.3       1 FAD403      0.0000 
      8 C3B        21.6230    8.0570   72.1000 C.3       1 FAD403      0.0000 
      9 O3B        22.7780    7.4660   72.6690 O.3       1 FAD403      0.0000 
     10 C2B        20.4180    7.1360   72.1270 C.3       1 FAD403      0.0000 
     11 O2B        20.8470    5.8110   72.0000 O.3       1 FAD403      0.0000 
     12 C1B        19.8720    7.4260   73.5120 C.3       1 FAD403      0.0000 
     13 N9A        18.4430    7.1470   73.6870 N.pl3     1 FAD403      0.0000 
     14 C8A        17.4500    7.2180   72.7410 C.2       1 FAD403      0.0000 
     15 N7A        16.2740    6.9170   73.3300 N.2       1 FAD403      0.0000 
     16 C5A        16.5100    6.6250   74.6370 C.ar      1 FAD403      0.0000 
     17 C6A        15.6800    6.2340   75.6990 C.ar      1 FAD403      0.0000 
     18 N6A        14.4700    5.7030   75.4790 N.pl3     1 FAD403      0.0000 
     19 N1A        16.2470    6.0440   76.9430 N.ar      1 FAD403      0.0000 
     20 C2A        17.5970    6.2060   77.1680 C.ar      1 FAD403      0.0000 
     21 N3A        18.3880    6.5790   76.1080 N.ar      1 FAD403      0.0000 
     22 C4A        17.8630    6.7890   74.8680 C.ar      1 FAD403      0.0000 
     23 N1         25.2330   13.6140   64.0940 N.2       1 FAD403      0.0000 
     24 C2         25.9090   14.1450   63.0460 C.2       1 FAD403      0.0000 
     25 O2         25.7710   15.3400   62.8350 O.2       1 FAD403      0.0000 
     26 N3         26.6710   13.3140   62.2570 N.am      1 FAD403      0.0000 
     27 C4         26.7690   11.9900   62.5560 C.2       1 FAD403      0.0000 
     28 O4         27.4630   11.2710   61.8680 O.2       1 FAD403      0.0000 
     29 C4X        26.0720   11.4490   63.6240 C.2       1 FAD403      0.0000 
     30 N5         26.1260   10.0860   63.9330 N.2       1 FAD403      0.0000 
     31 C5X        25.4220    9.6050   65.0270 C.ar      1 FAD403      0.0000 
     32 C6         25.4910    8.2430   65.3370 C.ar      1 FAD403      0.0000 
     33 C7         24.7490    7.7740   66.4410 C.ar      1 FAD403      0.0000 
     34 C7M        24.8040    6.3280   66.8040 C.3       1 FAD403      0.0000 
     35 C8         23.9770    8.6560   67.2290 C.ar      1 FAD403      0.0000 
     36 C8M        23.1690    8.1700   68.3950 C.3       1 FAD403      0.0000 
     37 C9         23.9280   10.0080   66.8990 C.ar      1 FAD403      0.0000 
     38 C9A        24.6430   10.4940   65.7940 C.ar      1 FAD403      0.0000 
     39 N10        24.5790   11.8540   65.4530 N.pl3     1 FAD403      0.0000 
     40 C10        25.3000   12.2950   64.3940 C.2       1 FAD403      0.0000 
     41 C1'        23.6740   12.8640   66.1130 C.3       1 FAD403      0.0000 
     42 C2'        24.4630   13.8020   67.0390 C.3       1 FAD403      0.0000 
     43 O2'        25.1130   13.0780   68.0740 O.3       1 FAD403      0.0000 
     44 C3'        23.5350   14.8060   67.6900 C.3       1 FAD403      0.0000 
     45 O3'        22.7140   15.3590   66.7170 O.3       1 FAD403      0.0000 
     46 C4'        24.1900   15.9820   68.4230 C.3       1 FAD403      0.0000 
     47 O4'        25.5910   15.8230   68.6230 O.3       1 FAD403      0.0000 
     48 C5'        23.4620   16.1940   69.7640 C.3       1 FAD403      0.0000 
     49 O5'        23.3900   14.9490   70.4200 O.3       1 FAD403      0.0000 
     50 P          22.2640   14.4960   71.4670 P.3       1 FAD403      0.0000 
     51 O1P        22.9310   13.9970   72.6920 O.co2     1 FAD403      0.0000 
     52 O2P        21.1640   15.5010   71.6770 O.co2     1 FAD403      0.0000 
     53 O3P        21.6160   13.2190   70.7350 O.3       1 FAD403      0.0000 
     54 H          20.3389   10.0439   71.2052 H         1 FAD403      0.0000 
     55 H          20.2083   11.0781   72.6381 H         1 FAD403      0.0000 
     56 H          22.0545    9.5019   73.5778 H         1 FAD403      0.0000 
     57 H          21.7669    8.4108   71.1104 H         1 FAD403      0.0000 
     58 H          19.7326    7.4674   71.4121 H         1 FAD403      0.0000 
     59 H          20.4565    6.8422   74.2243 H         1 FAD403      0.0000 
     60 H          17.5847    7.4456   71.8162 H         1 FAD403      0.0000 
     61 H          14.2077    5.5876   74.5210 H         1 FAD403      0.0000 
     62 H          13.9374    5.4696   76.2926 H         1 FAD403      0.0000 
     63 H          17.9952    6.0532   78.0939 H         1 FAD403      0.0000 
     64 H          27.1683   13.7036   61.4355 H         1 FAD403      0.0000 
     65 H          26.0549    7.6084   64.7890 H         1 FAD403      0.0000 
     66 H          23.3663   10.6571   67.4651 H         1 FAD403      0.0000 
     67 H          22.9124   12.3489   66.7029 H         1 FAD403      0.0000 
     68 H          23.1721   13.4649   65.3512 H         1 FAD403      0.0000 
     69 H          25.1760   14.3485   66.4374 H         1 FAD403      0.0000 
     70 H          22.9146   14.2725   68.4283 H         1 FAD403      0.0000 
     71 H          23.9819   16.8854   67.8221 H         1 FAD403      0.0000 
     72 H          22.4787   16.6065   69.5375 H         1 FAD403      0.0000 
     73 H          24.0305   16.9334   70.3283 H         1 FAD403      0.0000 
     74 H          25.7352    6.0345   67.0200 H         1 FAD403      0.0000 
     75 H          24.2395    6.1241   67.6038 H         1 FAD403      0.0000 
     76 H          24.4784    5.7455   66.0593 H         1 FAD403      0.0000 
     77 H          23.7422    7.7306   69.0867 H         1 FAD403      0.0000 
     78 H          22.6840    8.9179   68.8483 H         1 FAD403      0.0000 
     79 H          22.4805    7.5004   68.1164 H         1 FAD403      0.0000 
     80 H          22.5014    7.1921   73.5901 H         1 FAD403      0.0000 
     81 H          21.3193    5.6086   72.8579 H         1 FAD403      0.0000 
     82 H          24.3779   12.7832   68.6845 H         1 FAD403      0.0000 
     83 H          21.8914   14.7905   66.7190 H         1 FAD403      0.0000 
     84 H          25.7650   14.8498   68.4726 H         1 FAD403      0.0000 
@<TRIPOS>BOND
     1    2    1 ar   
     2    3    1 ar   
     3    4    1 1    
     4   53    1 1    
     5    5    4 1    
     6    6    5 1    
     7   54    5 1    
     8   55    5 1    
     9    7    6 1    
    10    8    6 1    
    11   56    6 1    
    12   12    7 1    
    13    9    8 1    
    14   10    8 1    
    15   57    8 1    
    16   80    9 1    
    17   11   10 1    
    18   12   10 1    
    19   58   10 1    
    20   81   11 1    
    21   13   12 1    
    22   59   12 1    
    23   14   13 1    
    24   22   13 1    
    25   15   14 2    
    26   60   14 1    
    27   16   15 1    
    28   17   16 ar   
    29   22   16 ar   
    30   18   17 1    
    31   19   17 ar   
    32   61   18 1    
    33   62   18 1    
    34   20   19 ar   
    35   21   20 ar   
    36   63   20 1    
    37   22   21 ar   
    38   24   23 1    
    39   40   23 2    
    40   25   24 2    
    41   26   24 am   
    42   27   26 am   
    43   64   26 1    
    44   28   27 2    
    45   29   27 1    
    46   30   29 2    
    47   40   29 1    
    48   31   30 1    
    49   32   31 ar   
    50   38   31 ar   
    51   33   32 ar   
    52   65   32 1    
    53   34   33 1    
    54   35   33 ar   
    55   74   34 1    
    56   75   34 1    
    57   76   34 1    
    58   36   35 1    
    59   37   35 ar   
    60   77   36 1    
    61   78   36 1    
    62   79   36 1    
    63   38   37 ar   
    64   66   37 1    
    65   39   38 1    
    66   40   39 1    
    67   41   39 1    
    68   42   41 1    
    69   67   41 1    
    70   68   41 1    
    71   43   42 1    
    72   44   42 1    
    73   69   42 1    
    74   82   43 1    
    75   45   44 1    
    76   46   44 1    
    77   70   44 1    
    78   83   45 1    
    79   47   46 1    
    80   48   46 1    
    81   71   46 1    
    82   84   47 1    
    83   49   48 1    
    84   72   48 1    
    85   73   48 1    
    86   50   49 1    
    87   51   50 ar   
    88   52   50 ar   
    89   53   50 1    
@<TRIPOS>SUBSTRUCTURE
     1 FAD403      1 GROUP   
@<TRIPOS>SET

