#    Name: 2vu3_LZE_1_INTS_M
#    Modification time : Tue Mar 25 02:55:40 2014

@<TRIPOS>MOLECULE
2vu3_LZE_1_INTS_M
   64     0     9     0     0
SMALL
NO_CHARGES


@<TRIPOS>ATOM
      1 CA         32.8135   11.0120   63.7545 C.3       3 GLC5        0.0000 
      2 CA         32.2190    9.3900   64.4900 C.3       9 GLL5        0.0000 
      3 CA         33.4080   12.6340   63.0190 C.3       6 GLP5        0.0000 
      4 CA         31.0305    6.7690   63.0595 C.3       3 GLC5        0.0000 
      5 CA         31.4440    8.0720   64.4030 C.3       9 GLL5        0.0000 
      6 CA         30.6170    5.4660   61.7160 C.3       6 GLP5        0.0000 
      7 CA         28.8815    9.3795   65.7265 C.3       3 GLC5        0.0000 
      8 CA         30.4040    7.9980   65.5230 C.3       9 GLL5        0.0000 
      9 CA         27.3590   10.7610   65.9300 C.3       6 GLP5        0.0000 
     10 O          30.6840    5.8470   65.8375 O.2       1 ALC1        0.0000 
     11 O          29.6370    6.7570   65.4530 O.2       7 ALL1        0.0000 
     12 O          31.7310    4.9370   66.2220 O.2       4 ALP1        0.0000 
     13 N          29.3960    3.3875   66.0155 N.am      2 SEC2        0.0000 
     14 N          28.3050    4.2370   65.4030 N.am      8 SEL2        0.0000 
     15 N          30.4870    2.5380   66.6280 N.am      5 SEP2        0.0000 
     16 O          27.3260    2.0430   65.4835 O.2       1 ALC1        0.0000 
     17 O          27.5140    3.2110   64.9970 O.2       7 ALL1        0.0000 
     18 O          27.1380    0.8750   65.9700 O.2       4 ALP1        0.0000 
     19 CA         26.7940    1.8870   63.2865 C.3       3 GLC5        0.0000 
     20 CA         26.6020    3.6280   64.0730 C.3       9 GLL5        0.0000 
     21 CA         26.9860    0.1460   62.5000 C.3       6 GLP5        0.0000 
     22 CA         25.1560    2.3910   64.4600 C.3       3 GLC5        0.0000 
     23 CA         23.7100    1.1540   64.8470 C.3       6 GLP5        0.0000 
     24 CA         20.8855    8.0325   60.5590 C.3       3 GLC5        0.0000 
     25 CA         23.0680    8.1540   60.4980 C.3       9 GLL5        0.0000 
     26 CA         18.7030    7.9110   60.6200 C.3       6 GLP5        0.0000 
     27 CA         29.0745    8.3005   67.4060 C.3       3 GLC5        0.0000 
     28 CA         31.0860    8.1570   66.8880 C.3       9 GLL5        0.0000 
     29 CA         27.0630    8.4440   67.9240 C.3       6 GLP5        0.0000 
     30 CA         30.9890    7.0770   68.3865 C.3       3 GLC5        0.0000 
     31 CA         30.8920    5.9970   69.8850 C.3       6 GLP5        0.0000 
     32 CA         32.6995    6.7020   67.0950 C.3       3 GLC5        0.0000 
     33 CA         34.3130    5.2470   67.3020 C.3       6 GLP5        0.0000 
     34 CA         28.0125    6.9360   58.2510 C.3       3 GLC5        0.0000 
     35 CA         27.3470    6.8660   60.1910 C.3       9 GLL5        0.0000 
     36 CA         28.6780    7.0060   56.3110 C.3       6 GLP5        0.0000 
     37 CA         28.9820    6.1660   60.9535 C.3       3 GLC5        0.0000 
     38 CA         22.4925    7.9000   63.0400 C.3       3 GLC5        0.0000 
     39 CA         22.4610    6.2370   62.2990 C.3       9 GLL5        0.0000 
     40 CA         22.5240    9.5630   63.7810 C.3       6 GLP5        0.0000 
     41 CA         20.6955    6.5760   62.0110 C.3       3 GLC5        0.0000 
     42 CA         18.9300    6.9150   61.7230 C.3       6 GLP5        0.0000 
     43 CA         21.7040    4.5620   62.5950 C.3       3 GLC5        0.0000 
     44 CA         20.9470    2.8870   62.8910 C.3       6 GLP5        0.0000 
     45 CA         33.6063    7.7645   64.2562 C.3       3 GLC5        0.0000 
     46 CA         35.3810    6.7980   64.0660 C.3       6 GLP5        0.0000 
     47 CA         32.3758    8.5365   62.3543 C.3       3 GLC5        0.0000 
     48 CA         32.9200    8.3420   60.2620 C.3       6 GLP5        0.0000 
     49 CA         25.9237    4.4837   65.5180 C.3       3 GLC5        0.0000 
     50 CA         26.8230    4.9710   63.8550 C.3       9 GLL5        0.0000 
     51 CA         25.1350    4.6680   67.0720 C.3       6 GLP5        0.0000 
     52 CA         27.9528    3.8282   62.8415 C.3       3 GLC5        0.0000 
     53 CA         29.1930    3.3570   61.7190 C.3       6 GLP5        0.0000 
     54 CA         23.8983    6.5760   59.0780 C.3       3 GLC5        0.0000 
     55 CA         24.8480    6.6660   61.1660 C.3       9 GLL5        0.0000 
     56 CA         23.6030    6.2810   56.9480 C.3       6 GLP5        0.0000 
     57 CA         23.5510    7.3857   58.5113 C.3       3 GLC5        0.0000 
     58 CA         23.0704    8.8920   62.0217 C.3       3 GLC5        0.0000 
     59 CA         23.9300    8.8270   59.6510 C.3       9 GLL5        0.0000 
     60 CA         24.5412    7.0920   58.4505 C.3       3 GLC5        0.0000 
     61 CA         25.2560    8.4410   59.5750 C.3       9 GLL5        0.0000 
     62 CA         26.6785    5.2178   59.5165 C.3       3 GLC5        0.0000 
     63 CA         25.7030    7.3650   60.3310 C.3       9 GLL5        0.0000 
     64 CA         26.8320    3.3200   58.7720 C.3       6 GLP5        0.0000 
@<TRIPOS>BOND
@<TRIPOS>SUBSTRUCTURE
     1 ALC1       10 GROUP        1 X    ALC  0     ROOT ALC X 1
     2 SEC2       13 GROUP        1 X    SEC  0     **** SEC X 2
     3 GLC5        1 GROUP        1 X    GLC  0     **** GLC X 6
     4 ALP1       12 GROUP        1 Y    ALP  0     ROOT ALP Y 8
     5 SEP2       15 GROUP        1 Y    SEP  0     **** SEP Y 9
     6 GLP5        3 GROUP        1 Y    GLP  0     **** GLP Y 13
     7 ALL1       11 GROUP        1 Z    ALL  0     ROOT ALL Z 15
     8 SEL2       14 GROUP        1 Z    SEL  0     **** SEL Z 16
     9 GLL5        2 GROUP        1 Z    GLL  0     **** GLL Z 20
@<TRIPOS>SET

