#    Name: 2vu3_LZE_1_ligand
#    Modification time : Tue Mar 25 02:55:40 2014

@<TRIPOS>MOLECULE
2vu3_LZE_1_ligand
   41    43     1     0     0
SMALL
NO_CHARGES


@<TRIPOS>ATOM
      1 C26        32.2190    9.3900   64.4900 C.3       1 LZE1299     0.0000 
      2 C25        31.4440    8.0720   64.4030 C.3       1 LZE1299     0.0000 
      3 C5         30.4040    7.9980   65.5230 C.3       1 LZE1299     0.0000 
      4 N6         29.6370    6.7570   65.4530 N.am      1 LZE1299     0.0000 
      5 C7         28.4620    6.6600   64.7770 C.2       1 LZE1299     0.0000 
      6 O8         27.8910    7.6330   64.2550 O.2       1 LZE1299     0.0000 
      7 C9         27.8750    5.3180   64.6820 C.2       1 LZE1299     0.0000 
      8 N10        28.3050    4.2370   65.4030 N.2       1 LZE1299     0.0000 
      9 N11        27.5140    3.2110   64.9970 N.pl3     1 LZE1299     0.0000 
     10 C12        26.6020    3.6280   64.0730 C.2       1 LZE1299     0.0000 
     11 C13        26.8230    4.9710   63.8550 C.2       1 LZE1299     0.0000 
     12 N14        26.1960    5.8710   62.9950 N.am      1 LZE1299     0.0000 
     13 C15        25.3440    5.5340   62.0070 C.2       1 LZE1299     0.0000 
     14 O16        24.9480    4.3810   61.8360 O.2       1 LZE1299     0.0000 
     15 C17        24.8480    6.6660   61.1660 C.ar      1 LZE1299     0.0000 
     16 C18        23.5390    7.0760   61.2500 C.ar      1 LZE1299     0.0000 
     17 C20        23.0680    8.1540   60.4980 C.ar      1 LZE1299     0.0000 
     18 C21        23.9300    8.8270   59.6510 C.ar      1 LZE1299     0.0000 
     19 C22        25.2560    8.4410   59.5750 C.ar      1 LZE1299     0.0000 
     20 C23        25.7030    7.3650   60.3310 C.ar      1 LZE1299     0.0000 
     21 C4         31.0860    8.1570   66.8880 C.3       1 LZE1299     0.0000 
     22 N24        32.8520    9.5430   65.8300 N.4       1 LZE1299     0.0000 
     23 C3         31.8590    9.4730   66.9420 C.3       1 LZE1299     0.0000 
     24 CL1        27.3470    6.8660   60.1910 Cl        1 LZE1299     0.0000 
     25 CL7        22.4610    6.2370   62.2990 Cl        1 LZE1299     0.0000 
     26 H          31.5264   10.2138   64.3030 H         1 LZE1299     0.0000 
     27 H          32.9823    9.3970   63.7085 H         1 LZE1299     0.0000 
     28 H          32.1363    7.2421   64.5003 H         1 LZE1299     0.0000 
     29 H          30.9423    8.0140   63.4426 H         1 LZE1299     0.0000 
     30 H          29.7306    8.8557   65.3972 H         1 LZE1299     0.0000 
     31 H          30.0417    5.9389   65.9543 H         1 LZE1299     0.0000 
     32 H          27.5863    2.2906   65.3231 H         1 LZE1299     0.0000 
     33 H          25.9346    3.0981   63.6524 H         1 LZE1299     0.0000 
     34 H          26.4209    6.9071   63.1462 H         1 LZE1299     0.0000 
     35 H          22.0858    8.4412   60.5774 H         1 LZE1299     0.0000 
     36 H          23.5865    9.6108   59.0804 H         1 LZE1299     0.0000 
     37 H          25.9090    8.9459   58.9633 H         1 LZE1299     0.0000 
     38 H          31.7710    7.3291   67.0426 H         1 LZE1299     0.0000 
     39 H          30.3300    8.1499   67.6670 H         1 LZE1299     0.0000 
     40 H          32.3682    9.5414   67.9051 H         1 LZE1299     0.0000 
     41 H          31.1501   10.2995   66.8652 H         1 LZE1299     0.0000 
@<TRIPOS>BOND
     1    2    1 1    
     2   22    1 1    
     3   26    1 1    
     4   27    1 1    
     5    3    2 1    
     6   28    2 1    
     7   29    2 1    
     8    4    3 1    
     9   21    3 1    
    10   30    3 1    
    11    5    4 am   
    12   31    4 1    
    13    6    5 2    
    14    7    5 1    
    15    8    7 2    
    16   11    7 1    
    17    9    8 1    
    18   10    9 1    
    19   32    9 1    
    20   11   10 2    
    21   33   10 1    
    22   12   11 1    
    23   13   12 am   
    24   34   12 1    
    25   14   13 2    
    26   15   13 1    
    27   16   15 ar   
    28   20   15 ar   
    29   17   16 ar   
    30   25   16 1    
    31   18   17 ar   
    32   35   17 1    
    33   19   18 ar   
    34   36   18 1    
    35   20   19 ar   
    36   37   19 1    
    37   24   20 1    
    38   23   21 1    
    39   38   21 1    
    40   39   21 1    
    41   23   22 1    
    42   40   23 1    
    43   41   23 1    
@<TRIPOS>SUBSTRUCTURE
     1 LZE1299     1 GROUP   
@<TRIPOS>SET

