#    Name: 2cgf_P2N_1_INTS_M
#    Modification time : Mon Mar 24 23:45:37 2014

@<TRIPOS>MOLECULE
2cgf_P2N_1_INTS_M
   53     0     6     0     0
SMALL
NO_CHARGES


@<TRIPOS>ATOM
      1 CA        -16.1985   33.9085   -3.9745 C.3       2 GLC5        0.0000 
      2 CA        -18.1900   33.4980   -4.8780 C.3       6 GLL5        0.0000 
      3 CA        -14.2070   34.3190   -3.0710 C.3       4 GLP5        0.0000 
      4 CA        -15.4640   33.2415   -4.6475 C.3       2 GLC5        0.0000 
      5 CA        -17.2660   32.4460   -4.8280 C.3       6 GLL5        0.0000 
      6 CA        -13.6620   34.0370   -4.4670 C.3       4 GLP5        0.0000 
      7 CA        -17.1430   29.7195   -4.8935 C.3       2 GLC5        0.0000 
      8 CA        -17.2280   31.5870   -3.7330 C.3       6 GLL5        0.0000 
      9 CA        -17.0580   27.8520   -6.0540 C.3       4 GLP5        0.0000 
     10 CA        -15.7175   32.9530   -3.4020 C.3       2 GLC5        0.0000 
     11 CA        -19.2755   36.4030   -4.1140 C.3       2 GLC5        0.0000 
     12 CA        -20.1050   34.8210   -3.8800 C.3       6 GLL5        0.0000 
     13 CA        -18.4460   37.9850   -4.3480 C.3       4 GLP5        0.0000 
     14 CA        -20.3255   35.8305   -2.1170 C.3       2 GLC5        0.0000 
     15 CA        -20.5460   36.8400   -0.3540 C.3       4 GLP5        0.0000 
     16 CA        -21.2170   31.1230   -4.1125 C.3       2 GLC5        0.0000 
     17 CA        -21.9440   32.9920   -4.7090 C.3       6 GLL5        0.0000 
     18 CA        -20.4900   29.2540   -3.5160 C.3       4 GLP5        0.0000 
     19 CA        -19.7790   32.3250   -9.1985 C.3       2 GLC5        0.0000 
     20 CA        -21.1360   33.5520   -8.5580 C.3       6 GLL5        0.0000 
     21 CA        -18.4220   31.0980   -9.8390 C.3       4 GLP5        0.0000 
     22 CA        -18.9585   33.1825   -8.7880 C.3       2 GLC5        0.0000 
     23 CA        -20.2980   34.7510   -8.9350 C.3       6 GLL5        0.0000 
     24 CA        -17.6190   31.6140   -8.6410 C.3       4 GLP5        0.0000 
     25 CA        -20.6205   33.7875  -10.7110 C.3       2 GLC5        0.0000 
     26 CA        -20.9430   32.8240  -12.4870 C.3       4 GLP5        0.0000 
     27 CA        -18.6925   36.9905   -6.8430 C.3       2 GLC5        0.0000 
     28 CA        -19.6770   35.5220   -7.7640 C.3       6 GLL5        0.0000 
     29 CA        -17.7080   38.4590   -5.9220 C.3       4 GLP5        0.0000 
     30 O         -15.5365   31.3730   -5.7875 O.2       1 ALC1        0.0000 
     31 O         -16.3960   32.2760   -5.8640 O.2       5 ALL1        0.0000 
     32 O         -14.6770   30.4700   -5.7110 O.2       3 ALP1        0.0000 
     33 CA        -20.3375   34.9465   -0.8660 C.3       2 GLC5        0.0000 
     34 CA        -20.1290   33.0530   -1.3780 C.3       6 GLL5        0.0000 
     35 CA        -20.0625   32.9505    0.2805 C.3       2 GLC5        0.0000 
     36 CA        -19.9960   32.8480    1.9390 C.3       4 GLP5        0.0000 
     37 CA        -17.6735   32.2930   -6.7470 C.3       2 GLC5        0.0000 
     38 CA        -17.8990   35.2867   -3.9820 C.3       2 GLC5        0.0000 
     39 CA        -17.1580   36.9810   -3.6000 C.3       4 GLP5        0.0000 
     40 CA        -19.0855   30.4735   -3.3670 C.3       2 GLC5        0.0000 
     41 CA        -18.1340   31.7990   -2.7030 C.3       6 GLL5        0.0000 
     42 CA        -20.0345   31.0990   -2.7917 C.3       2 GLC5        0.0000 
     43 CA        -19.0290   32.8350   -2.7570 C.3       6 GLL5        0.0000 
     44 CA        -16.9045   32.3630   -1.5928 C.3       2 GLC5        0.0000 
     45 CA        -15.4540   32.4620   -0.1980 C.3       4 GLP5        0.0000 
     46 CA        -22.6850   30.4068   -8.0305 C.3       2 GLC5        0.0000 
     47 CA        -23.4590   31.7980   -6.4340 C.3       6 GLL5        0.0000 
     48 CA        -22.1610   28.8430   -8.9160 C.3       4 GLP5        0.0000 
     49 CA        -22.6026   33.0520  -10.0294 C.3       2 GLC5        0.0000 
     50 CA        -22.9590   32.1430   -7.8560 C.3       6 GLL5        0.0000 
     51 CA        -23.2970   32.9090  -11.7720 C.3       4 GLP5        0.0000 
     52 CA        -18.8968   35.1487   -9.7837 C.3       2 GLC5        0.0000 
     53 CA        -17.8060   35.1610  -11.2180 C.3       4 GLP5        0.0000 
@<TRIPOS>BOND
@<TRIPOS>SUBSTRUCTURE
     1 ALC1       30 GROUP        1 X    ALC  0     ROOT ALC X 1
     2 GLC5        1 GROUP        1 X    GLC  0     **** GLC X 6
     3 ALP1       32 GROUP        1 Y    ALP  0     ROOT ALP Y 8
     4 GLP5        3 GROUP        1 Y    GLP  0     **** GLP Y 13
     5 ALL1       31 GROUP        1 Z    ALL  0     ROOT ALL Z 15
     6 GLL5        2 GROUP        1 Z    GLL  0     **** GLL Z 20
@<TRIPOS>SET

