#    Name: 2cgf_P2N_1_ligand
#    Modification time : Mon Mar 24 23:45:37 2014

@<TRIPOS>MOLECULE
2cgf_P2N_1_ligand
   42    43     1     0     0
SMALL
NO_CHARGES


@<TRIPOS>ATOM
      1 C1        -18.2190   34.3800   -6.0990 C.2       1 P2N1214     0.0000 
      2 C2        -18.1900   33.4980   -4.8780 C.ar      1 P2N1214     0.0000 
      3 C3        -17.2660   32.4460   -4.8280 C.ar      1 P2N1214     0.0000 
      4 C4        -17.2280   31.5870   -3.7330 C.ar      1 P2N1214     0.0000 
      5 C5        -18.1340   31.7990   -2.7030 C.ar      1 P2N1214     0.0000 
      6 C6        -19.0290   32.8350   -2.7570 C.ar      1 P2N1214     0.0000 
      7 C7        -19.0900   33.6870   -3.8500 C.ar      1 P2N1214     0.0000 
      8 C8        -20.1050   34.8210   -3.8800 C.3       1 P2N1214     0.0000 
      9 C9        -21.5320   34.4120   -4.3000 C.2       1 P2N1214     0.0000 
     10 C10       -21.9440   32.9920   -4.7090 C.3       1 P2N1214     0.0000 
     11 C11       -23.3330   32.8690   -5.3490 C.3       1 P2N1214     0.0000 
     12 C12       -23.4590   31.7980   -6.4340 C.3       1 P2N1214     0.0000 
     13 C13       -22.9590   32.1430   -7.8560 C.3       1 P2N1214     0.0000 
     14 C14       -22.4020   33.5330   -8.1750 C.2       1 P2N1214     0.0000 
     15 C15       -21.1360   33.5520   -8.5580 C.2       1 P2N1214     0.0000 
     16 C16       -20.2980   34.7510   -8.9350 C.3       1 P2N1214     0.0000 
     17 C17       -19.6770   35.5220   -7.7640 C.3       1 P2N1214     0.0000 
     18 O1        -19.5220   34.7070   -6.5990 O.3       1 P2N1214     0.0000 
     19 O2        -17.2250   34.7300   -6.7120 O.2       1 P2N1214     0.0000 
     20 O3        -16.3960   32.2760   -5.8640 O.3       1 P2N1214     0.0000 
     21 O4        -18.1560   30.9810   -1.6260 O.3       1 P2N1214     0.0000 
     22 CL1       -20.1290   33.0530   -1.3780 Cl        1 P2N1214     0.0000 
     23 O5        -22.3390   35.3080   -4.2800 O.2       1 P2N1214     0.0000 
     24 H         -16.5556   30.8273   -3.6909 H         1 P2N1214     0.0000 
     25 H         -19.7501   35.6075   -4.5728 H         1 P2N1214     0.0000 
     26 H         -20.1573   35.2879   -2.8781 H         1 P2N1214     0.0000 
     27 H         -21.9061   32.3398   -3.8149 H         1 P2N1214     0.0000 
     28 H         -21.1908   32.5935   -5.4161 H         1 P2N1214     0.0000 
     29 H         -23.6118   33.8496   -5.7810 H         1 P2N1214     0.0000 
     30 H         -24.0725   32.6589   -4.5522 H         1 P2N1214     0.0000 
     31 H         -24.5317   31.4903   -6.5099 H         1 P2N1214     0.0000 
     32 H         -22.9221   30.8780   -6.0925 H         1 P2N1214     0.0000 
     33 H         -23.8034   31.9265   -8.5778 H         1 P2N1214     0.0000 
     34 H         -22.1772   31.3754   -8.1397 H         1 P2N1214     0.0000 
     35 H         -23.0219   34.2911   -8.0710 H         1 P2N1214     0.0000 
     36 H         -20.5726   32.6334   -8.6319 H         1 P2N1214     0.0000 
     37 H         -20.9173   35.4575   -9.5285 H         1 P2N1214     0.0000 
     38 H         -19.4790   34.4259   -9.6121 H         1 P2N1214     0.0000 
     39 H         -20.3240   36.3964   -7.5638 H         1 P2N1214     0.0000 
     40 H         -18.7061   35.9231   -8.1102 H         1 P2N1214     0.0000 
     41 H         -16.1434   31.3089   -5.8336 H         1 P2N1214     0.0000 
     42 H         -17.5380   30.2301   -1.8588 H         1 P2N1214     0.0000 
@<TRIPOS>BOND
     1    2    1 1    
     2   18    1 1    
     3   19    1 2    
     4    3    2 ar   
     5    7    2 ar   
     6    4    3 ar   
     7   20    3 1    
     8    5    4 ar   
     9   24    4 1    
    10    6    5 ar   
    11   21    5 1    
    12    7    6 ar   
    13   22    6 1    
    14    8    7 1    
    15    9    8 1    
    16   25    8 1    
    17   26    8 1    
    18   10    9 1    
    19   23    9 2    
    20   11   10 1    
    21   27   10 1    
    22   28   10 1    
    23   12   11 1    
    24   29   11 1    
    25   30   11 1    
    26   13   12 1    
    27   31   12 1    
    28   32   12 1    
    29   14   13 1    
    30   33   13 1    
    31   34   13 1    
    32   15   14 2    
    33   35   14 1    
    34   16   15 1    
    35   36   15 1    
    36   17   16 1    
    37   37   16 1    
    38   38   16 1    
    39   18   17 1    
    40   39   17 1    
    41   40   17 1    
    42   41   20 1    
    43   42   21 1    
@<TRIPOS>SUBSTRUCTURE
     1 P2N1214     1 GROUP   
@<TRIPOS>SET

