#    Name: 2ykm_YKN_1_INTS_M
#    Modification time : Mon Apr  7 18:24:23 2014

@<TRIPOS>MOLECULE
2ykm_YKN_1_INTS_M
   54     0     3     0     0
SMALL
NO_CHARGES


@<TRIPOS>ATOM
      1 CA         47.5620   67.0470   16.6290 C.3       1 GLC5        0.0000 
      2 CA         46.6490   65.4910   16.1850 C.3       3 GLL5        0.0000 
      3 CA         48.4750   68.6030   17.0730 C.3       2 GLP5        0.0000 
      4 CA         45.0805   66.9450   15.9410 C.3       1 GLC5        0.0000 
      5 CA         43.5120   68.3990   15.6970 C.3       2 GLP5        0.0000 
      6 CA         46.2920   66.6720   14.5240 C.3       1 GLC5        0.0000 
      7 CA         45.9350   67.8530   12.8630 C.3       2 GLP5        0.0000 
      8 CA         43.1345   64.2065   15.5080 C.3       1 GLC5        0.0000 
      9 CA         45.2600   64.0420   15.7020 C.3       3 GLL5        0.0000 
     10 CA         41.0090   64.3710   15.3140 C.3       2 GLP5        0.0000 
     11 CA         45.8125   63.3365   13.5795 C.3       1 GLC5        0.0000 
     12 CA         47.4030   63.8720   14.2200 C.3       3 GLL5        0.0000 
     13 CA         44.2220   62.8010   12.9390 C.3       2 GLP5        0.0000 
     14 CA         46.6690   65.8625   13.5415 C.3       1 GLC5        0.0000 
     15 CA         50.7905   62.7960   16.0130 C.3       1 GLC5        0.0000 
     16 CA         50.7870   64.9510   15.6120 C.3       3 GLL5        0.0000 
     17 CA         50.7940   60.6410   16.4140 C.3       2 GLP5        0.0000 
     18 CA         52.3435   65.1025   18.3180 C.3       1 GLC5        0.0000 
     19 CA         51.1730   65.5480   16.9400 C.3       3 GLL5        0.0000 
     20 CA         53.5140   64.6570   19.6960 C.3       2 GLP5        0.0000 
     21 CA         52.6825   66.3890   14.1610 C.3       1 GLC5        0.0000 
     22 CA         51.6970   64.6600   14.5790 C.3       3 GLL5        0.0000 
     23 CA         53.6680   68.1180   13.7430 C.3       2 GLP5        0.0000 
     24 CA         50.1700   65.0785   12.1100 C.3       1 GLC5        0.0000 
     25 CA         51.1960   64.0940   13.3910 C.3       3 GLL5        0.0000 
     26 CA         49.1440   66.0630   10.8290 C.3       2 GLP5        0.0000 
     27 CA         49.4455   62.4345   22.6795 C.3       1 GLC5        0.0000 
     28 CA         48.4660   61.6780   20.8130 C.3       3 GLL5        0.0000 
     29 CA         50.4250   63.1910   24.5460 C.3       2 GLP5        0.0000 
     30 CA         45.0678   63.4712   14.3422 C.3       1 GLC5        0.0000 
     31 CA         46.5670   64.2410   15.7890 C.3       3 GLL5        0.0000 
     32 CA         44.8528   63.0542   17.0607 C.3       1 GLC5        0.0000 
     33 CA         43.7920   61.9670   18.3760 C.3       2 GLP5        0.0000 
     34 CA         45.6605   65.2835   17.5527 C.3       1 GLC5        0.0000 
     35 CA         45.3870   66.1130   19.2610 C.3       2 GLP5        0.0000 
     36 CA         49.1610   62.1953   14.6785 C.3       1 GLC5        0.0000 
     37 CA         50.0970   60.3790   15.1050 C.3       2 GLP5        0.0000 
     38 CA         48.6845   65.0373   12.5405 C.3       1 GLC5        0.0000 
     39 CA         49.0470   64.1510   14.2840 C.3       3 GLL5        0.0000 
     40 CA         50.6620   67.0557   15.8795 C.3       1 GLC5        0.0000 
     41 CA         50.3440   68.8620   15.4830 C.3       2 GLP5        0.0000 
     42 CA         51.2953   62.3480   13.9870 C.3       1 GLC5        0.0000 
     43 CA         51.1440   60.3190   13.9890 C.3       2 GLP5        0.0000 
     44 CA         46.7013   64.5427   19.4252 C.3       1 GLC5        0.0000 
     45 CA         47.7730   63.0120   18.9320 C.3       3 GLL5        0.0000 
     46 CA         49.8888   63.0558   20.1983 C.3       1 GLC5        0.0000 
     47 CA         51.7620   63.1390   20.8070 C.3       2 GLP5        0.0000 
     48 CA         50.0448   62.1245   20.6250 C.3       1 GLC5        0.0000 
     49 CA         48.1890   60.5420   20.0730 C.3       3 GLL5        0.0000 
     50 CA         47.1928   58.7263   19.3410 C.3       1 GLC5        0.0000 
     51 CA         46.4370   56.8850   19.2610 C.3       2 GLP5        0.0000 
     52 CA         49.3456   60.7606   17.8488 C.3       1 GLC5        0.0000 
     53 CA         45.7325   61.7388   18.5241 C.3       1 GLC5        0.0000 
     54 CA         47.7080   60.5930   18.7690 C.3       3 GLL5        0.0000 
@<TRIPOS>BOND
@<TRIPOS>SUBSTRUCTURE
     1 GLC5        1 GROUP        1 X    GLC  0     ROOT GLC X 6
     2 GLP5        3 GROUP        1 Y    GLP  0     ROOT GLP Y 13
     3 GLL5        2 GROUP        1 Z    GLL  0     ROOT GLL Z 20
@<TRIPOS>SET

