#    Name: 2ykm_YKN_1_ligand
#    Modification time : Mon Apr  7 18:24:23 2014

@<TRIPOS>MOLECULE
2ykm_YKN_1_ligand
   29    31     1     0     0
SMALL
NO_CHARGES


@<TRIPOS>ATOM
      1 F10        46.6490   65.4910   16.1850 F         1 YKN1559     0.0000 
      2 C9         46.5670   64.2410   15.7890 C.3       1 YKN1559     0.0000 
      3 F11        45.2600   64.0420   15.7020 F         1 YKN1559     0.0000 
      4 S12        47.4030   63.8720   14.2200 S.3       1 YKN1559     0.0000 
      5 C13        49.0470   64.1510   14.2840 C.ar      1 YKN1559     0.0000 
      6 N15        49.4860   64.6790   15.4370 N.ar      1 YKN1559     0.0000 
      7 C16        50.7870   64.9510   15.6120 C.ar      1 YKN1559     0.0000 
      8 C17        51.1730   65.5480   16.9400 C.3       1 YKN1559     0.0000 
      9 C18        51.6970   64.6600   14.5790 C.ar      1 YKN1559     0.0000 
     10 C19        51.1960   64.0940   13.3910 C.ar      1 YKN1559     0.0000 
     11 N20        49.8760   63.8490   13.2590 N.ar      1 YKN1559     0.0000 
     12 C8         47.0480   63.4410   16.9540 C.2       1 YKN1559     0.0000 
     13 N7         47.4620   64.0390   18.0920 N.2       1 YKN1559     0.0000 
     14 C6         47.7730   63.0120   18.9320 C.ar      1 YKN1559     0.0000 
     15 C1         47.5030   61.8440   18.2190 C.ar      1 YKN1559     0.0000 
     16 O14        47.0520   62.0830   17.0070 O.3       1 YKN1559     0.0000 
     17 C5         48.2580   62.9330   20.2470 C.ar      1 YKN1559     0.0000 
     18 C4         48.4660   61.6780   20.8130 C.ar      1 YKN1559     0.0000 
     19 C3         48.1890   60.5420   20.0730 C.ar      1 YKN1559     0.0000 
     20 C2         47.7080   60.5930   18.7690 C.ar      1 YKN1559     0.0000 
     21 H          52.6827   64.8517   14.6862 H         1 YKN1559     0.0000 
     22 H          51.8638   63.8748   12.6322 H         1 YKN1559     0.0000 
     23 H          48.4528   63.7821   20.7736 H         1 YKN1559     0.0000 
     24 H          48.8221   61.6002   21.7718 H         1 YKN1559     0.0000 
     25 H          48.3473   59.6025   20.5108 H         1 YKN1559     0.0000 
     26 H          47.5176   59.7478   18.2489 H         1 YKN1559     0.0000 
     27 H          52.1557   65.7246   16.9962 H         1 YKN1559     0.0000 
     28 H          50.7089   66.4183   17.1049 H         1 YKN1559     0.0000 
     29 H          50.9400   64.9427   17.7011 H         1 YKN1559     0.0000 
@<TRIPOS>BOND
     1    2    1 1    
     2    3    2 1    
     3    4    2 1    
     4   12    2 1    
     5    5    4 1    
     6    6    5 ar   
     7   11    5 ar   
     8    7    6 ar   
     9    8    7 1    
    10    9    7 ar   
    11   27    8 1    
    12   28    8 1    
    13   29    8 1    
    14   10    9 ar   
    15   21    9 1    
    16   11   10 ar   
    17   22   10 1    
    18   13   12 2    
    19   16   12 1    
    20   14   13 1    
    21   15   14 ar   
    22   17   14 ar   
    23   16   15 1    
    24   20   15 ar   
    25   18   17 ar   
    26   23   17 1    
    27   19   18 ar   
    28   24   18 1    
    29   20   19 ar   
    30   25   19 1    
    31   26   20 1    
@<TRIPOS>SUBSTRUCTURE
     1 YKN1559     1 GROUP   
@<TRIPOS>SET

