#    Name: 4jp9_1M5_1_INTS_M
#    Modification time : Tue Mar 25 06:10:47 2014

@<TRIPOS>MOLECULE
4jp9_1M5_1_INTS_M
   53     0     9     0     0
SMALL
NO_CHARGES


@<TRIPOS>ATOM
      1 CA         22.3025    8.8545    6.3685 C.3       3 GLC5        0.0000 
      2 CA         23.2920   10.6440    7.3000 C.3       9 GLL5        0.0000 
      3 CA         21.3130    7.0650    5.4370 C.3       6 GLP5        0.0000 
      4 CA         23.8785   10.4115    5.4695 C.3       3 GLC5        0.0000 
      5 CA         24.4650   10.1790    3.6390 C.3       6 GLP5        0.0000 
      6 CA         24.2050    8.8655    7.3235 C.3       3 GLC5        0.0000 
      7 CA         25.1180    7.0870    7.3470 C.3       6 GLP5        0.0000 
      8 CA         21.4750   11.6315   10.4525 C.3       3 GLC5        0.0000 
      9 CA         23.2920   11.5200    9.6740 C.3       9 GLL5        0.0000 
     10 CA         19.6580   11.7430   11.2310 C.3       6 GLP5        0.0000 
     11 OD1        21.3595   16.1055   11.5155 O.co2     2 ASC3        0.0000 
     12 OD1        22.1420   15.9280    9.3200 O.co2     8 ASL3        0.0000 
     13 OD1        21.3870   15.5970   12.8310 O.co2     5 ASP3        0.0000 
     14 OD1        22.4610   14.2495   10.7830 O.co2     2 ASC3        0.0000 
     15 OD1        22.2320   13.7200   12.0350 O.co2     5 ASP3        0.0000 
     16 OD1        20.6720   17.8510   10.1375 O.co2     2 ASC3        0.0000 
     17 OD1        20.0120   19.0880   10.0750 O.co2     5 ASP3        0.0000 
     18 O          22.4610   14.2495   10.7830 O.2       1 ALC1        0.0000 
     19 O          22.6900   14.7790    9.5310 O.2       7 ALL1        0.0000 
     20 O          22.2320   13.7200   12.0350 O.2       4 ALP1        0.0000 
     21 O          21.3595   16.1055   11.5155 O.2       1 ALC1        0.0000 
     22 O          21.3320   16.6140   10.2000 O.2       7 ALL1        0.0000 
     23 O          21.3870   15.5970   12.8310 O.2       4 ALP1        0.0000 
     24 O          20.6720   17.8510   10.1375 O.2       1 ALC1        0.0000 
     25 O          20.0120   19.0880   10.0750 O.2       4 ALP1        0.0000 
     26 CA         25.2335   17.9605   11.6415 C.3       3 GLC5        0.0000 
     27 CA         27.0300   17.6060   10.6970 C.3       9 GLL5        0.0000 
     28 CA         23.4370   18.3150   12.5860 C.3       6 GLP5        0.0000 
     29 CA         28.1470   19.5735   13.3255 C.3       3 GLC5        0.0000 
     30 CA         26.8560   19.9110   12.0980 C.3       9 GLL5        0.0000 
     31 CA         29.4380   19.2360   14.5530 C.3       6 GLP5        0.0000 
     32 CA         25.1465   19.1130   12.3420 C.3       3 GLC5        0.0000 
     33 CA         25.1830   20.6330   11.1890 C.3       3 GLC5        0.0000 
     34 CA         23.5100   21.3550   10.2800 C.3       6 GLP5        0.0000 
     35 CA         26.9540   12.5975   10.2850 C.3       3 GLC5        0.0000 
     36 CA         27.7630   14.2880    9.2620 C.3       9 GLL5        0.0000 
     37 CA         26.4760   11.4920   11.5320 C.3       6 GLP5        0.0000 
     38 CA         25.9140   12.6235   10.0772 C.3       3 GLC5        0.0000 
     39 CA         25.7150   13.1520    8.5350 C.3       9 GLL5        0.0000 
     40 CA         25.3995   10.2873    8.2233 C.3       3 GLC5        0.0000 
     41 CA         23.6700   11.8330    8.2050 C.3       9 GLL5        0.0000 
     42 CA         27.3180    9.3360    8.6940 C.3       6 GLP5        0.0000 
     43 CA         24.9785   11.5843   10.2357 C.3       3 GLC5        0.0000 
     44 CA         28.8908   19.0885   12.7073 C.3       3 GLC5        0.0000 
     45 CA         27.6840   18.8010   11.0830 C.3       9 GLL5        0.0000 
     46 CA         28.0087   16.8019   12.1943 C.3       3 GLC5        0.0000 
     47 CA         28.4940   15.6320   13.7080 C.3       6 GLP5        0.0000 
     48 CA         30.8222   19.2845   11.1777 C.3       3 GLC5        0.0000 
     49 CA         29.0030   19.0810   10.6400 C.3       9 GLL5        0.0000 
     50 CA         32.3090   19.9500   12.1370 C.3       6 GLP5        0.0000 
     51 CA         30.8987   16.8870    9.1597 C.3       3 GLC5        0.0000 
     52 CA         29.6680   18.1570    9.7970 C.3       9 GLL5        0.0000 
     53 CA         32.4570   16.2140    8.7190 C.3       6 GLP5        0.0000 
@<TRIPOS>BOND
@<TRIPOS>SUBSTRUCTURE
     1 ALC1       18 GROUP        1 X    ALC  0     ROOT ALC X 1
     2 ASC3       11 GROUP        1 X    ASC  0     **** ASC X 3
     3 GLC5        1 GROUP        1 X    GLC  0     **** GLC X 6
     4 ALP1       20 GROUP        1 Y    ALP  0     ROOT ALP Y 8
     5 ASP3       13 GROUP        1 Y    ASP  0     **** ASP Y 10
     6 GLP5        3 GROUP        1 Y    GLP  0     **** GLP Y 13
     7 ALL1       19 GROUP        1 Z    ALL  0     ROOT ALL Z 15
     8 ASL3       12 GROUP        1 Z    ASL  0     **** ASL Z 17
     9 GLL5        2 GROUP        1 Z    GLL  0     **** GLL Z 20
@<TRIPOS>SET

