#    Name: 4jp9_1M5_1_ligand
#    Modification time : Tue Mar 25 06:10:47 2014

@<TRIPOS>MOLECULE
4jp9_1M5_1_ligand
   47    50     1     0     0
SMALL
NO_CHARGES


@<TRIPOS>ATOM
      1 C1         27.0420   15.4980    9.4360 C.ar      1 1M5503      0.0000 
      2 C2         27.7630   14.2880    9.2620 C.ar      1 1M5503      0.0000 
      3 C3         27.1010   13.1180    8.8140 C.ar      1 1M5503      0.0000 
      4 C4         25.7150   13.1520    8.5350 C.ar      1 1M5503      0.0000 
      5 C5         24.9890   14.3580    8.7100 C.ar      1 1M5503      0.0000 
      6 C6         25.6520   15.5280    9.1550 C.ar      1 1M5503      0.0000 
      7 O7         25.0880   12.0020    8.1080 O.3       1 1M5503      0.0000 
      8 C8         23.6700   11.8330    8.2050 C.3       1 1M5503      0.0000 
      9 C9         22.9730   13.1160    7.7050 C.3       1 1M5503      0.0000 
     10 C10        23.4960   14.4050    8.3800 C.3       1 1M5503      0.0000 
     11 C11        27.6960   16.6790    9.8590 C.ar      1 1M5503      0.0000 
     12 C12        23.2920   10.6440    7.3000 C.3       1 1M5503      0.0000 
     13 C13        23.2920   11.5200    9.6740 C.3       1 1M5503      0.0000 
     14 C14        23.2490   15.6100    7.4590 C.2       1 1M5503      0.0000 
     15 N15        22.4430   16.4760    8.1070 N.am      1 1M5503      0.0000 
     16 C16        22.1420   15.9280    9.3200 C.cat     1 1M5503      0.0000 
     17 N17        22.6900   14.7790    9.5310 N.pl3     1 1M5503      0.0000 
     18 N18        21.3320   16.6140   10.2000 N.pl3     1 1M5503      0.0000 
     19 O19        23.8040   15.7700    6.3670 O.2       1 1M5503      0.0000 
     20 C20        22.0060   17.7630    7.5660 C.3       1 1M5503      0.0000 
     21 C21        27.0300   17.6060   10.6970 C.ar      1 1M5503      0.0000 
     22 C22        27.6840   18.8010   11.0830 C.ar      1 1M5503      0.0000 
     23 C23        29.0030   19.0810   10.6400 C.ar      1 1M5503      0.0000 
     24 C24        29.6680   18.1570    9.7970 C.ar      1 1M5503      0.0000 
     25 C25        29.0130   16.9630    9.4040 C.ar      1 1M5503      0.0000 
     26 CL1        26.8560   19.9110   12.0980 Cl        1 1M5503      0.0000 
     27 H          28.7647   14.2614    9.4611 H         1 1M5503      0.0000 
     28 H          27.6255   12.2514    8.6931 H         1 1M5503      0.0000 
     29 H          25.1283   16.3963    9.2741 H         1 1M5503      0.0000 
     30 H          21.8958   13.0312    7.8923 H         1 1M5503      0.0000 
     31 H          23.1189   13.2005    6.6214 H         1 1M5503      0.0000 
     32 H          22.6325   14.1903   10.2966 H         1 1M5503      0.0000 
     33 H          20.9949   17.5019    9.8870 H         1 1M5503      0.0000 
     34 H          21.1521   16.1639   11.0747 H         1 1M5503      0.0000 
     35 H          26.0840   17.4138   11.0209 H         1 1M5503      0.0000 
     36 H          29.4661   19.9388   10.9263 H         1 1M5503      0.0000 
     37 H          30.6143   18.3497    9.4739 H         1 1M5503      0.0000 
     38 H          29.4892   16.2999    8.7890 H         1 1M5503      0.0000 
     39 H          23.5431   10.8087    6.3462 H         1 1M5503      0.0000 
     40 H          23.7508    9.8016    7.5826 H         1 1M5503      0.0000 
     41 H          22.3088   10.4622    7.3170 H         1 1M5503      0.0000 
     42 H          23.7318   10.6834   10.0005 H         1 1M5503      0.0000 
     43 H          23.5662   12.2560   10.2929 H         1 1M5503      0.0000 
     44 H          22.3061   11.3955    9.7853 H         1 1M5503      0.0000 
     45 H          22.7800   18.3634    7.3648 H         1 1M5503      0.0000 
     46 H          21.4915   17.6530    6.7156 H         1 1M5503      0.0000 
     47 H          21.4136   18.2529    8.2056 H         1 1M5503      0.0000 
@<TRIPOS>BOND
     1    2    1 ar   
     2    6    1 ar   
     3   11    1 1    
     4    3    2 ar   
     5   27    2 1    
     6    4    3 ar   
     7   28    3 1    
     8    5    4 ar   
     9    7    4 1    
    10    6    5 ar   
    11   10    5 1    
    12   29    6 1    
    13    8    7 1    
    14    9    8 1    
    15   12    8 1    
    16   13    8 1    
    17   10    9 1    
    18   30    9 1    
    19   31    9 1    
    20   14   10 1    
    21   17   10 1    
    22   21   11 ar   
    23   25   11 ar   
    24   39   12 1    
    25   40   12 1    
    26   41   12 1    
    27   42   13 1    
    28   43   13 1    
    29   44   13 1    
    30   15   14 am   
    31   19   14 2    
    32   16   15 1    
    33   20   15 1    
    34   17   16 ar   
    35   18   16 ar   
    36   32   17 1    
    37   33   18 1    
    38   34   18 1    
    39   45   20 1    
    40   46   20 1    
    41   47   20 1    
    42   22   21 ar   
    43   35   21 1    
    44   23   22 ar   
    45   26   22 1    
    46   24   23 ar   
    47   36   23 1    
    48   25   24 ar   
    49   37   24 1    
    50   38   25 1    
@<TRIPOS>SUBSTRUCTURE
     1 1M5503      1 GROUP   
@<TRIPOS>SET

