#    Name: 3w0a_DS5_1_INTS_M
#    Modification time : Tue Mar 25 01:54:33 2014

@<TRIPOS>MOLECULE
3w0a_DS5_1_INTS_M
  139     0    12     0     0
SMALL
NO_CHARGES


@<TRIPOS>ATOM
      1 N           4.8480   25.9740   36.1290 N.am      2 SEC2        0.0000 
      2 N           4.4230   25.8190   34.8410 N.am     10 SEL2        0.0000 
      3 N           5.2730   26.1290   37.4170 N.am      6 SEP2        0.0000 
      4 O           4.9965   26.9440   34.3555 O.2       1 ALC1        0.0000 
      5 O           4.4230   25.8190   34.8410 O.2       9 ALL1        0.0000 
      6 O           5.5700   28.0690   33.8700 O.2       5 ALP1        0.0000 
      7 CA         15.0615   23.7730   33.7730 C.3       4 GLC5        0.0000 
      8 CA         12.8800   23.3250   33.5770 C.3      12 GLL5        0.0000 
      9 CA         17.2430   24.2210   33.9690 C.3       8 GLP5        0.0000 
     10 CA         12.2215   26.2405   35.2425 C.3       4 GLC5        0.0000 
     11 CA         10.9290   24.7990   34.3710 C.3      12 GLL5        0.0000 
     12 CA         13.5140   27.6820   36.1140 C.3       8 GLP5        0.0000 
     13 CA          7.7335   27.4985   34.0295 C.3       4 GLC5        0.0000 
     14 CA          9.1830   26.3770   35.2280 C.3      12 GLL5        0.0000 
     15 CA          6.2840   28.6200   32.8310 C.3       8 GLP5        0.0000 
     16 CA          8.9980   28.1965   35.8600 C.3       4 GLC5        0.0000 
     17 CA          8.8130   30.0160   36.4920 C.3       8 GLP5        0.0000 
     18 CA          7.6815   26.7480   36.4835 C.3       4 GLC5        0.0000 
     19 CA          6.1800   27.1190   37.7390 C.3       8 GLP5        0.0000 
     20 CA          8.3850   22.9855   31.0735 C.3       4 GLC5        0.0000 
     21 CA          9.1090   23.3130   32.9030 C.3      12 GLL5        0.0000 
     22 CA          7.6610   22.6580   29.2440 C.3       8 GLP5        0.0000 
     23 CA         16.2540   14.6425   35.5380 C.3       4 GLC5        0.0000 
     24 CA         15.1180   15.7480   34.3100 C.3      12 GLL5        0.0000 
     25 CA         17.3900   13.5370   36.7660 C.3       8 GLP5        0.0000 
     26 CA         12.6685   15.8135   32.7470 C.3       4 GLC5        0.0000 
     27 CA         13.8830   14.8910   34.0610 C.3      12 GLL5        0.0000 
     28 CA         11.4540   16.7360   31.4330 C.3       8 GLP5        0.0000 
     29 CA         15.6450   13.5150   35.7310 C.3       4 GLC5        0.0000 
     30 CA         13.9000   13.4930   34.6960 C.3      12 GLL5        0.0000 
     31 CA         12.5250   12.2800   33.9250 C.3       4 GLC5        0.0000 
     32 CA         11.1500   11.0670   33.1540 C.3       8 GLP5        0.0000 
     33 CA         12.0155   22.1205   37.1070 C.3       4 GLC5        0.0000 
     34 CA         13.2400   23.4250   36.2410 C.3      12 GLL5        0.0000 
     35 CA         10.7910   20.8160   37.9730 C.3       8 GLP5        0.0000 
     36 CA         12.9765   24.0265   38.1595 C.3       4 GLC5        0.0000 
     37 CA         12.7130   24.6280   40.0780 C.3       8 GLP5        0.0000 
     38 CA         11.5445   22.9660   29.7910 C.3       4 GLC5        0.0000 
     39 CA         12.9550   23.6760   30.9530 C.3      12 GLL5        0.0000 
     40 CA         10.1340   22.2560   28.6290 C.3       8 GLP5        0.0000 
     41 CA         14.0720   23.4590   29.5050 C.3       4 GLC5        0.0000 
     42 CA         15.1890   23.2420   28.0570 C.3       8 GLP5        0.0000 
     43 CA         10.2910   22.6175   30.7620 C.3       4 GLC5        0.0000 
     44 CA         10.4480   22.9790   32.8950 C.3      12 GLL5        0.0000 
     45 CA         10.9690   21.0925   31.8000 C.3       4 GLC5        0.0000 
     46 CA         11.4900   19.2060   30.7050 C.3       8 GLP5        0.0000 
     47 CA         11.1020   18.3790   33.2210 C.3       4 GLC5        0.0000 
     48 CA         11.5180   18.6990   35.0940 C.3      12 GLL5        0.0000 
     49 CA         10.6860   18.0590   31.3480 C.3       8 GLP5        0.0000 
     50 CA          9.3775   18.4875   34.8265 C.3       4 GLC5        0.0000 
     51 CA          7.2370   18.2760   34.5590 C.3       8 GLP5        0.0000 
     52 CA         10.7625   17.1935   35.8700 C.3       4 GLC5        0.0000 
     53 CA         10.0070   15.6880   36.6460 C.3       8 GLP5        0.0000 
     54 CA         13.2390   16.8955   32.4870 C.3       4 GLC5        0.0000 
     55 CA         15.0240   17.0550   33.5410 C.3      12 GLL5        0.0000 
     56 CA         15.9000   18.2205   35.2350 C.3       4 GLC5        0.0000 
     57 CA         16.7760   19.3860   36.9290 C.3       8 GLP5        0.0000 
     58 CA         16.0875   17.1945   31.8085 C.3       4 GLC5        0.0000 
     59 CA         17.1510   17.3340   30.0760 C.3       8 GLP5        0.0000 
     60 CA          5.3060   26.1910   30.1745 C.3       4 GLC5        0.0000 
     61 CA          4.3950   25.5810   31.9560 C.3      12 GLL5        0.0000 
     62 CA          6.2170   26.8010   28.3930 C.3       8 GLP5        0.0000 
     63 CA          5.3395   27.1005   32.3935 C.3       4 GLC5        0.0000 
     64 CA          4.0740   21.8055   31.4685 C.3       4 GLC5        0.0000 
     65 CA          4.0960   23.4630   32.1190 C.3      12 GLL5        0.0000 
     66 CA          4.0520   20.1480   30.8180 C.3       8 GLP5        0.0000 
     67 CA          1.5775   25.4110   34.5205 C.3       4 GLC5        0.0000 
     68 CA          2.6180   24.8330   32.9090 C.3      12 GLL5        0.0000 
     69 CA          0.5370   25.9890   36.1320 C.3       8 GLP5        0.0000 
     70 CA          1.7320   24.7815   35.7245 C.3       4 GLC5        0.0000 
     71 CA          2.9270   23.5740   35.3170 C.3      12 GLL5        0.0000 
     72 CA          2.4530   22.8975   36.9155 C.3       4 GLC5        0.0000 
     73 CA          1.9790   22.2210   38.5140 C.3       8 GLP5        0.0000 
     74 CA          4.1930   21.2120   32.5755 C.3       4 GLC5        0.0000 
     75 CA          4.3340   22.2760   34.3330 C.3      12 GLL5        0.0000 
     76 CA          6.3985   23.3965   37.4205 C.3       4 GLC5        0.0000 
     77 CA          4.9130   23.3080   36.1310 C.3      12 GLL5        0.0000 
     78 CA          7.8840   23.4850   38.7100 C.3       8 GLP5        0.0000 
     79 CA          5.5465   25.2135   36.9350 C.3       4 GLC5        0.0000 
     80 NZ         13.5450   12.1250   38.1520 N.4       3 LYC4        0.0000 
     81 NZ         13.3760   12.2390   36.6490 N.4      11 LYL4        0.0000 
     82 NZ         13.5670   13.1950   40.2230 N.4       7 LYP4        0.0000 
     83 N          13.3565   13.2535   38.0635 N.am      2 SEC2        0.0000 
     84 N          13.3760   12.2390   36.6490 N.am     10 SEL2        0.0000 
     85 N          13.3370   14.2680   39.4780 N.am      6 SEP2        0.0000 
     86 N          13.5450   12.1250   38.1520 N.am      2 SEC2        0.0000 
     87 N          13.7140   12.0110   39.6550 N.am      6 SEP2        0.0000 
     88 NZ         13.2825   14.3770   38.1240 N.4       3 LYC4        0.0000 
     89 NZ         13.2280   14.4860   36.7700 N.4      11 LYL4        0.0000 
     90 N          13.2825   14.3770   38.1240 N.am      2 SEC2        0.0000 
     91 N          13.2280   14.4860   36.7700 N.am     10 SEL2        0.0000 
     92 CA         12.2805   19.2620   32.3818 C.3       4 GLC5        0.0000 
     93 CA         13.6470   19.0600   33.7610 C.3      12 GLL5        0.0000 
     94 CA         14.4865   19.9465   35.2882 C.3       4 GLC5        0.0000 
     95 CA         15.9020   20.5750   36.5180 C.3       8 GLP5        0.0000 
     96 CA         12.0808   20.2855   32.2930 C.3       4 GLC5        0.0000 
     97 CA         12.2410   20.9330   34.2210 C.3      12 GLL5        0.0000 
     98 CA         14.2867   20.9700   35.1995 C.3       4 GLC5        0.0000 
     99 CA         12.9307   19.8818   31.8477 C.3       4 GLC5        0.0000 
    100 CA         14.2300   21.2360   32.9400 C.3      12 GLL5        0.0000 
    101 CA         15.1367   20.5663   34.7542 C.3       4 GLC5        0.0000 
    102 CA         14.5130   19.8790   33.0410 C.3      12 GLL5        0.0000 
    103 CA         16.1777   21.1923   32.0793 C.3       4 GLC5        0.0000 
    104 CA         17.9840   21.8270   31.1680 C.3       8 GLP5        0.0000 
    105 CA          9.7888   27.1605   33.3655 C.3       4 GLC5        0.0000 
    106 CA          9.5880   25.1690   34.4200 C.3      12 GLL5        0.0000 
    107 CA         10.1920   28.5480   31.9070 C.3       8 GLP5        0.0000 
    108 CA          7.3513   22.6460   34.2287 C.3       4 GLC5        0.0000 
    109 CA          6.0530   24.6170   33.9280 C.3      12 GLL5        0.0000 
    110 CA          7.7070   20.7570   34.6180 C.3       8 GLP5        0.0000 
    111 CA          5.9735   26.6214   33.4226 C.3       4 GLC5        0.0000 
    112 CA          7.2310   24.5340   33.8210 C.3      12 GLL5        0.0000 
    113 CA          8.7428   21.9515   33.7585 C.3       4 GLC5        0.0000 
    114 CA         14.6800   22.1140   36.0312 C.3       4 GLC5        0.0000 
    115 CA         15.1220   24.5545   35.0012 C.3       4 GLC5        0.0000 
    116 CA         16.7860   25.4560   34.4580 C.3       8 GLP5        0.0000 
    117 CA         13.4860   25.6675   35.8292 C.3       4 GLC5        0.0000 
    118 CA         13.6760   23.8810   34.8480 C.3      12 GLL5        0.0000 
    119 CA         15.1562   24.4213   31.6573 C.3       4 GLC5        0.0000 
    120 CA         17.0820   24.9860   31.6720 C.3       8 GLP5        0.0000 
    121 CA         12.6913   25.6163   31.2638 C.3       4 GLC5        0.0000 
    122 CA         13.5060   24.0370   32.3320 C.3      12 GLL5        0.0000 
    123 CA         12.1520   27.3760   30.8850 C.3       8 GLP5        0.0000 
    124 CA         11.3670   20.1464   36.3321 C.3       4 GLC5        0.0000 
    125 CA         12.4950   19.5760   34.3560 C.3      12 GLL5        0.0000 
    126 CA         14.4056   15.4511   32.0386 C.3       4 GLC5        0.0000 
    127 CA         14.0490   14.7150   30.2140 C.3       8 GLP5        0.0000 
    128 CA          2.9919   24.7158   31.0354 C.3       4 GLC5        0.0000 
    129 CA          2.6100   24.8730   29.4980 C.3       8 GLP5        0.0000 
    130 CA          2.3397   26.3436   32.2228 C.3       4 GLC5        0.0000 
    131 CA          1.2890   27.7180   31.8140 C.3       8 GLP5        0.0000 
    132 CA          1.6389   23.8184   32.0871 C.3       4 GLC5        0.0000 
    133 CA         -0.0380   23.1970   31.5020 C.3       8 GLP5        0.0000 
    134 CA          2.2775   21.9960   34.8678 C.3       4 GLC5        0.0000 
    135 CA          0.6020   21.1040   34.9910 C.3       8 GLP5        0.0000 
    136 CA          5.2546   21.4533   35.7653 C.3       4 GLC5        0.0000 
    137 CA          5.9150   19.8270   36.1330 C.3       8 GLP5        0.0000 
    138 CA          3.9241   22.3657   37.0183 C.3       4 GLC5        0.0000 
    139 CA          3.2540   21.6520   38.6390 C.3       8 GLP5        0.0000 
@<TRIPOS>BOND
@<TRIPOS>SUBSTRUCTURE
     1 ALC1        4 GROUP        1 X    ALC  0     ROOT ALC X 1
     2 SEC2        1 GROUP        1 X    SEC  0     **** SEC X 2
     3 LYC4       80 GROUP        1 X    LYC  0     **** LYC X 4
     4 GLC5        7 GROUP        1 X    GLC  0     **** GLC X 6
     5 ALP1        6 GROUP        1 Y    ALP  0     ROOT ALP Y 8
     6 SEP2        3 GROUP        1 Y    SEP  0     **** SEP Y 9
     7 LYP4       82 GROUP        1 Y    LYP  0     **** LYP Y 11
     8 GLP5        9 GROUP        1 Y    GLP  0     **** GLP Y 13
     9 ALL1        5 GROUP        1 Z    ALL  0     ROOT ALL Z 15
    10 SEL2        2 GROUP        1 Z    SEL  0     **** SEL Z 16
    11 LYL4       81 GROUP        1 Z    LYL  0     **** LYL Z 18
    12 GLL5        8 GROUP        1 Z    GLL  0     **** GLL Z 20
@<TRIPOS>SET

