#    Name: 3w0a_DS5_1_ligand
#    Modification time : Tue Mar 25 01:54:33 2014

@<TRIPOS>MOLECULE
3w0a_DS5_1_ligand
   71    72     1     0     0
SMALL
NO_CHARGES


@<TRIPOS>ATOM
      1 C1         13.6470   19.0600   33.7610 C.ar      1 DS5501      0.0000 
      2 O1          4.4230   25.8190   34.8410 O.3       1 DS5501      0.0000 
      3 C2         12.4950   19.5760   34.3560 C.ar      1 DS5501      0.0000 
      4 O2         13.8210   17.7100   33.9570 O.3       1 DS5501      0.0000 
      5 C3         12.2410   20.9330   34.2210 C.ar      1 DS5501      0.0000 
      6 C4         13.1020   21.7970   33.5410 C.ar      1 DS5501      0.0000 
      7 C5         14.2300   21.2360   32.9400 C.ar      1 DS5501      0.0000 
      8 C6         14.5130   19.8790   33.0410 C.ar      1 DS5501      0.0000 
      9 C7         12.8800   23.3250   33.5770 C.3       1 DS5501      0.0000 
     10 C8         11.3820   23.6970   33.6380 C.ar      1 DS5501      0.0000 
     11 C9         10.9290   24.7990   34.3710 C.ar      1 DS5501      0.0000 
     12 C10         9.5880   25.1690   34.4200 C.ar      1 DS5501      0.0000 
     13 C11         9.1830   26.3770   35.2280 C.3       1 DS5501      0.0000 
     14 C12         8.6450   24.3720   33.6810 C.ar      1 DS5501      0.0000 
     15 C13         7.2310   24.5340   33.8210 C.1       1 DS5501      0.0000 
     16 C14         6.0530   24.6170   33.9280 C.1       1 DS5501      0.0000 
     17 C15         4.6840   24.6700   34.1540 C.3       1 DS5501      0.0000 
     18 C16         3.9310   24.6300   32.7520 C.3       1 DS5501      0.0000 
     19 C17         4.2170   23.4260   34.9950 C.3       1 DS5501      0.0000 
     20 C18         9.1090   23.3130   32.9030 C.ar      1 DS5501      0.0000 
     21 C20        13.6760   23.8810   34.8480 C.3       1 DS5501      0.0000 
     22 C26        15.1180   15.7480   34.3100 C.3       1 DS5501      0.0000 
     23 C27        13.8830   14.8910   34.0610 C.3       1 DS5501      0.0000 
     24 C28        13.9000   13.4930   34.6960 C.3       1 DS5501      0.0000 
     25 C29        13.4740   13.4680   36.1370 C.2       1 DS5501      0.0000 
     26 C22        13.5060   24.0370   32.3320 C.3       1 DS5501      0.0000 
     27 C21        13.2400   23.4250   36.2410 C.3       1 DS5501      0.0000 
     28 C23        12.9550   23.6760   30.9530 C.3       1 DS5501      0.0000 
     29 C19        10.4480   22.9790   32.8950 C.ar      1 DS5501      0.0000 
     30 C24        11.5180   18.6990   35.0940 C.3       1 DS5501      0.0000 
     31 C25        15.0240   17.0550   33.5410 C.3       1 DS5501      0.0000 
     32 F1          4.3950   25.5810   31.9560 F         1 DS5501      0.0000 
     33 F2          4.0960   23.4630   32.1190 F         1 DS5501      0.0000 
     34 F3          2.6180   24.8330   32.9090 F         1 DS5501      0.0000 
     35 F4          2.9270   23.5740   35.3170 F         1 DS5501      0.0000 
     36 F5          4.3340   22.2760   34.3330 F         1 DS5501      0.0000 
     37 F6          4.9130   23.3080   36.1310 F         1 DS5501      0.0000 
     38 O3         15.2230   16.0620   35.7080 O.3       1 DS5501      0.0000 
     39 O5         13.3760   12.2390   36.6490 O.co2     1 DS5501      0.0000 
     40 O4         13.2280   14.4860   36.7700 O.co2     1 DS5501      0.0000 
     41 H          11.3697   21.3292   34.6446 H         1 DS5501      0.0000 
     42 H          14.8736   21.8513   32.4034 H         1 DS5501      0.0000 
     43 H          15.3435   19.4872   32.5942 H         1 DS5501      0.0000 
     44 H          11.6284   25.3659   34.9027 H         1 DS5501      0.0000 
     45 H           8.4383   22.7755   32.3277 H         1 DS5501      0.0000 
     46 H          13.6336   24.9950   34.7917 H         1 DS5501      0.0000 
     47 H          14.7507   23.6230   34.6922 H         1 DS5501      0.0000 
     48 H          15.9855   15.2142   33.9694 H         1 DS5501      0.0000 
     49 H          13.7386   14.7777   32.9660 H         1 DS5501      0.0000 
     50 H          12.9878   15.4339   34.4308 H         1 DS5501      0.0000 
     51 H          14.9217   13.0824   34.6043 H         1 DS5501      0.0000 
     52 H          13.2403   12.8342   34.1029 H         1 DS5501      0.0000 
     53 H          14.6043   23.8400   32.3476 H         1 DS5501      0.0000 
     54 H          13.4055   25.1375   32.4869 H         1 DS5501      0.0000 
     55 H          10.7727   22.1733   32.3226 H         1 DS5501      0.0000 
     56 H          15.9061   17.6478   33.7685 H         1 DS5501      0.0000 
     57 H          15.0120   16.8247   32.4789 H         1 DS5501      0.0000 
     58 H           9.4233   26.2757   36.1934 H         1 DS5501      0.0000 
     59 H           9.6297   27.2096   34.9006 H         1 DS5501      0.0000 
     60 H           8.1969   26.5378   35.1868 H         1 DS5501      0.0000 
     61 H          13.3022   22.4322   36.3432 H         1 DS5501      0.0000 
     62 H          13.8069   23.8296   36.9586 H         1 DS5501      0.0000 
     63 H          12.2932   23.6810   36.4362 H         1 DS5501      0.0000 
     64 H          13.4177   24.1809   30.2243 H         1 DS5501      0.0000 
     65 H          13.0664   22.7028   30.7517 H         1 DS5501      0.0000 
     66 H          11.9792   23.8811   30.8776 H         1 DS5501      0.0000 
     67 H          11.9480   18.2328   35.8671 H         1 DS5501      0.0000 
     68 H          10.7496   19.2245   35.4592 H         1 DS5501      0.0000 
     69 H          11.1337   17.9909   34.5016 H         1 DS5501      0.0000 
     70 H           5.0897   26.4857   34.5077 H         1 DS5501      0.0000 
     71 H          14.4974   15.5323   36.1473 H         1 DS5501      0.0000 
@<TRIPOS>BOND
     1    3    1 ar   
     2    4    1 1    
     3    8    1 ar   
     4   17    2 1    
     5   70    2 1    
     6    5    3 ar   
     7   30    3 1    
     8   31    4 1    
     9    6    5 ar   
    10   41    5 1    
    11    7    6 ar   
    12    9    6 1    
    13    8    7 ar   
    14   42    7 1    
    15   43    8 1    
    16   10    9 1    
    17   21    9 1    
    18   26    9 1    
    19   11   10 ar   
    20   29   10 ar   
    21   12   11 ar   
    22   44   11 1    
    23   13   12 1    
    24   14   12 ar   
    25   58   13 1    
    26   59   13 1    
    27   60   13 1    
    28   15   14 1    
    29   20   14 ar   
    30   16   15 3    
    31   17   16 1    
    32   18   17 1    
    33   19   17 1    
    34   32   18 1    
    35   33   18 1    
    36   34   18 1    
    37   35   19 1    
    38   36   19 1    
    39   37   19 1    
    40   29   20 ar   
    41   45   20 1    
    42   27   21 1    
    43   46   21 1    
    44   47   21 1    
    45   23   22 1    
    46   31   22 1    
    47   38   22 1    
    48   48   22 1    
    49   24   23 1    
    50   49   23 1    
    51   50   23 1    
    52   25   24 1    
    53   51   24 1    
    54   52   24 1    
    55   39   25 ar   
    56   40   25 ar   
    57   28   26 1    
    58   53   26 1    
    59   54   26 1    
    60   61   27 1    
    61   62   27 1    
    62   63   27 1    
    63   64   28 1    
    64   65   28 1    
    65   66   28 1    
    66   55   29 1    
    67   67   30 1    
    68   68   30 1    
    69   69   30 1    
    70   56   31 1    
    71   57   31 1    
    72   71   38 1    
@<TRIPOS>SUBSTRUCTURE
     1 DS5501      1 GROUP   
@<TRIPOS>SET

