#    Name: 3cd0_6HI_3_INTS_M
#    Modification time : Mon Mar 24 20:45:07 2014

@<TRIPOS>MOLECULE
3cd0_6HI_3_INTS_M
   96     0    12     0     0
SMALL
NO_CHARGES


@<TRIPOS>ATOM
      1 CA          2.7710   29.6115    7.4040 C.3       4 GLC5        0.0000 
      2 CA          2.4590   31.6180    8.0830 C.3      12 GLL5        0.0000 
      3 CA          3.0830   27.6050    6.7250 C.3       8 GLP5        0.0000 
      4 CA         -1.4220   30.6325    9.6845 C.3       4 GLC5        0.0000 
      5 CA          0.7250   30.3940    9.3810 C.3      12 GLL5        0.0000 
      6 CA         -3.5690   30.8710    9.9880 C.3       8 GLP5        0.0000 
      7 CA          0.0075   28.9270    8.1510 C.3       4 GLC5        0.0000 
      8 CA         -0.7100   27.4600    6.9210 C.3       8 GLP5        0.0000 
      9 CA          0.6500   31.6740    3.2870 C.3       4 GLC5        0.0000 
     10 CA          2.4310   31.4900    4.3890 C.3      12 GLL5        0.0000 
     11 CA         -1.1310   31.8580    2.1850 C.3       8 GLP5        0.0000 
     12 CA          3.8605   30.0805    5.3920 C.3       4 GLC5        0.0000 
     13 CA          5.2900   28.6710    6.3950 C.3       8 GLP5        0.0000 
     14 CA          7.4075   34.0410   12.6790 C.3       4 GLC5        0.0000 
     15 CA          7.0290   33.1590   10.6740 C.3      12 GLL5        0.0000 
     16 CA          7.7860   34.9230   14.6840 C.3       8 GLP5        0.0000 
     17 CA          8.8150   30.3140    3.2370 C.3       4 GLC5        0.0000 
     18 CA          8.0990   31.5900    2.2360 C.3      12 GLL5        0.0000 
     19 CA          9.5310   29.0380    4.2380 C.3       8 GLP5        0.0000 
     20 N           5.0955   30.7605    1.9140 N.am      2 SEC2        0.0000 
     21 N           5.4790   31.1990    2.9770 N.am     10 SEL2        0.0000 
     22 N           4.7120   30.3220    0.8510 N.am      6 SEP2        0.0000 
     23 CA          6.1945   31.0205   14.3235 C.3       4 GLC5        0.0000 
     24 CA          7.1490   31.8430   12.6370 C.3      12 GLL5        0.0000 
     25 CA          5.2400   30.1980   16.0100 C.3       8 GLP5        0.0000 
     26 CA          7.4675   33.3830   13.6605 C.3       4 GLC5        0.0000 
     27 N          -1.3135   32.7125    8.6670 N.am      2 SEC2        0.0000 
     28 N           0.1820   32.4390    8.4070 N.am     10 SEL2        0.0000 
     29 N          -2.8090   32.9860    8.9270 N.am      6 SEP2        0.0000 
     30 N          -0.6865   31.7490    7.3350 N.am      2 SEC2        0.0000 
     31 N          -1.5550   31.0590    6.2630 N.am      6 SEP2        0.0000 
     32 O           0.1510   33.5515    7.8100 O.2       1 ALC1        0.0000 
     33 O           0.1820   32.4390    8.4070 O.2       9 ALL1        0.0000 
     34 O           0.1200   34.6640    7.2130 O.2       5 ALP1        0.0000 
     35 N           2.2775   30.1125   12.8805 N.am      2 SEC2        0.0000 
     36 N           1.3780   30.3220   11.6640 N.am     10 SEL2        0.0000 
     37 N           3.1770   29.9030   14.0970 N.am      6 SEP2        0.0000 
     38 N           2.5245   31.1370   12.4285 N.am      2 SEC2        0.0000 
     39 N           3.6710   31.9520   13.1930 N.am      6 SEP2        0.0000 
     40 O           0.2030   30.6910   12.0460 O.2       1 ALC1        0.0000 
     41 O           1.3780   30.3220   11.6640 O.2       9 ALL1        0.0000 
     42 O          -0.9720   31.0600   12.4280 O.2       5 ALP1        0.0000 
     43 CA          0.1110   28.8135   12.3505 C.3       4 GLC5        0.0000 
     44 CA          1.1080   28.2230   10.5010 C.3      12 GLL5        0.0000 
     45 CA         -0.8860   29.4040   14.2000 C.3       8 GLP5        0.0000 
     46 CA          0.1990   27.8415    8.7110 C.3       4 GLC5        0.0000 
     47 NZ          0.9350   26.0460   12.0730 N.4       3 LYC4        0.0000 
     48 NZ          2.0680   27.1590   12.3650 N.4      11 LYL4        0.0000 
     49 NZ         -0.1980   24.9330   11.7810 N.4       7 LYP4        0.0000 
     50 NZ          2.9950   25.7990   12.1090 N.4       3 LYC4        0.0000 
     51 NZ          3.9220   24.4390   11.8530 N.4       7 LYP4        0.0000 
     52 N           3.1235   26.8065   13.0385 N.am      2 SEC2        0.0000 
     53 N           2.0680   27.1590   12.3650 N.am     10 SEL2        0.0000 
     54 N           4.1790   26.4540   13.7120 N.am      6 SEP2        0.0000 
     55 N           0.9350   26.0460   12.0730 N.am      2 SEC2        0.0000 
     56 N          -0.1980   24.9330   11.7810 N.am      6 SEP2        0.0000 
     57 NZ          3.5480   25.6590   11.1670 N.4       3 LYC4        0.0000 
     58 NZ          3.1740   26.8790   10.4810 N.4      11 LYL4        0.0000 
     59 N           3.5480   25.6590   11.1670 N.am      2 SEC2        0.0000 
     60 N           3.1740   26.8790   10.4810 N.am     10 SEL2        0.0000 
     61 N           3.9220   24.4390   11.8530 N.am      6 SEP2        0.0000 
     62 CA          3.7875   34.8990    3.4635 C.3       4 GLC5        0.0000 
     63 CA          3.3420   32.7160    4.4400 C.3      12 GLL5        0.0000 
     64 CA          4.6000   36.4220    2.3640 C.3       8 GLP5        0.0000 
     65 CA          1.7900   33.7950    3.0005 C.3       4 GLC5        0.0000 
     66 CA          2.6080   34.0360    4.6860 C.3      12 GLL5        0.0000 
     67 CA          0.6050   34.2140    1.4380 C.3       8 GLP5        0.0000 
     68 CA          5.1610   30.5333    6.7122 C.3       4 GLC5        0.0000 
     69 CA          4.3440   32.5660    6.8100 C.3      12 GLL5        0.0000 
     70 CA          3.4918   31.8065    2.3948 C.3       4 GLC5        0.0000 
     71 CA          4.0970   31.5100    0.3750 C.3       8 GLP5        0.0000 
     72 CA          5.9730   35.3400    1.5230 C.3       4 GLC5        0.0000 
     73 CA          7.4310   33.8370    1.2300 C.3      12 GLL5        0.0000 
     74 CA          5.7215   32.8840    0.5285 C.3       4 GLC5        0.0000 
     75 CA          7.2610   34.6790    0.1340 C.3      12 GLL5        0.0000 
     76 CA          5.6415   30.1260    7.7120 C.3       4 GLC5        0.0000 
     77 CA          6.0890   32.1780    8.6880 C.3      12 GLL5        0.0000 
     78 CA          7.0927   29.3210    9.8915 C.3       4 GLC5        0.0000 
     79 CA          5.8970   30.9840    9.3700 C.3      12 GLL5        0.0000 
     80 CA          8.1100   27.7120    9.7470 C.3       8 GLP5        0.0000 
     81 CA          8.7390   31.0147   -2.0355 C.3       4 GLC5        0.0000 
     82 CA          8.0120   32.9100   -1.3350 C.3      12 GLL5        0.0000 
     83 CA          9.3800   29.5390   -3.2860 C.3       8 GLP5        0.0000 
     84 CA          5.9234   35.2528   -2.1759 C.3       4 GLC5        0.0000 
     85 CA          7.3830   35.0350   -2.1980 C.3      12 GLL5        0.0000 
     86 CA          4.4520   35.7640   -3.0000 C.3       8 GLP5        0.0000 
     87 CA          6.0325   32.4749   -1.0535 C.3       4 GLC5        0.0000 
     88 CA          7.5520   34.2170   -1.1450 C.3      12 GLL5        0.0000 
     89 CA          4.2400   31.5960   -1.1420 C.3       8 GLP5        0.0000 
     90 CA          6.0480   31.7845    1.0095 C.3       4 GLC5        0.0000 
     91 CA          7.8990   32.5280    1.0520 C.3      12 GLL5        0.0000 
     92 CA          8.2095   30.7478   12.2523 C.3       4 GLC5        0.0000 
     93 CA          6.2540   30.8760   10.7020 C.3      12 GLL5        0.0000 
     94 CA          9.5760   29.8640   12.6740 C.3       8 GLP5        0.0000 
     95 CA          2.2098   28.2767    8.5925 C.3       4 GLC5        0.0000 
     96 CA          1.5650   29.6740   10.4190 C.3      12 GLL5        0.0000 
@<TRIPOS>BOND
@<TRIPOS>SUBSTRUCTURE
     1 ALC1       32 GROUP        1 X    ALC  0     ROOT ALC X 1
     2 SEC2       20 GROUP        1 X    SEC  0     **** SEC X 2
     3 LYC4       47 GROUP        1 X    LYC  0     **** LYC X 4
     4 GLC5        1 GROUP        1 X    GLC  0     **** GLC X 6
     5 ALP1       34 GROUP        1 Y    ALP  0     ROOT ALP Y 8
     6 SEP2       22 GROUP        1 Y    SEP  0     **** SEP Y 9
     7 LYP4       49 GROUP        1 Y    LYP  0     **** LYP Y 11
     8 GLP5        3 GROUP        1 Y    GLP  0     **** GLP Y 13
     9 ALL1       33 GROUP        1 Z    ALL  0     ROOT ALL Z 15
    10 SEL2       21 GROUP        1 Z    SEL  0     **** SEL Z 16
    11 LYL4       48 GROUP        1 Z    LYL  0     **** LYL Z 18
    12 GLL5        2 GROUP        1 Z    GLL  0     **** GLL Z 20
@<TRIPOS>SET

