#    Name: 3cd0_6HI_3_ligand
#    Modification time : Mon Mar 24 20:45:08 2014

@<TRIPOS>MOLECULE
3cd0_6HI_3_ligand
   67    69     1     0     0
SMALL
NO_CHARGES


@<TRIPOS>ATOM
      1 N3          6.4670   31.9670    6.1790 N.2       1 6HI4        0.0000 
      2 C4          2.6080   34.0360    4.6860 C.3       1 6HI4        0.0000 
      3 C5          5.7200   32.2250    7.2490 C.2       1 6HI4        0.0000 
      4 C6          3.3420   32.7160    4.4400 C.3       1 6HI4        0.0000 
      5 C7          3.1690   32.9180    7.7150 C.3       1 6HI4        0.0000 
      6 C8          2.4590   31.6180    8.0830 C.3       1 6HI4        0.0000 
      7 C10         0.7250   30.3940    9.3810 C.3       1 6HI4        0.0000 
      8 C13         2.4310   31.4900    4.3890 C.3       1 6HI4        0.0000 
      9 C15         7.0290   33.1590   10.6740 C.ar      1 6HI4        0.0000 
     10 C17         7.4310   33.8370    1.2300 C.ar      1 6HI4        0.0000 
     11 C20         7.2610   34.6790    0.1340 C.ar      1 6HI4        0.0000 
     12 C21         5.8970   30.9840    9.3700 C.ar      1 6HI4        0.0000 
     13 C24         6.2540   30.8760   10.7020 C.ar      1 6HI4        0.0000 
     14 C26         8.1840   32.0710   -0.2350 C.ar      1 6HI4        0.0000 
     15 F2          7.3830   35.0350   -2.1980 F         1 6HI4        0.0000 
     16 C29         7.5520   34.2170   -1.1450 C.ar      1 6HI4        0.0000 
     17 C23         8.0120   32.9100   -1.3350 C.ar      1 6HI4        0.0000 
     18 C32         7.8990   32.5280    1.0520 C.ar      1 6HI4        0.0000 
     19 C1          8.0990   31.5900    2.2360 C.3       1 6HI4        0.0000 
     20 N2          7.4520   32.1270    3.4280 N.am      1 6HI4        0.0000 
     21 C3          6.1620   31.9070    3.7070 C.2       1 6HI4        0.0000 
     22 O2          5.4790   31.1990    2.9770 O.2       1 6HI4        0.0000 
     23 C2          5.6750   32.1290    5.1000 C.2       1 6HI4        0.0000 
     24 N4          4.4190   32.4810    5.4580 N.pl3     1 6HI4        0.0000 
     25 C12         4.3440   32.5660    6.8100 C.2       1 6HI4        0.0000 
     26 C27         6.0890   32.1780    8.6880 C.ar      1 6HI4        0.0000 
     27 C30         6.8200   31.9640   11.3460 C.ar      1 6HI4        0.0000 
     28 F1          7.1490   31.8430   12.6370 F         1 6HI4        0.0000 
     29 C18         6.6660   33.2630    9.3330 C.ar      1 6HI4        0.0000 
     30 C9          1.2660   31.7700    9.0290 C.3       1 6HI4        0.0000 
     31 O4          0.1820   32.4390    8.4070 O.3       1 6HI4        0.0000 
     32 C11         1.5650   29.6740   10.4190 C.3       1 6HI4        0.0000 
     33 O3          1.3780   30.3220   11.6640 O.3       1 6HI4        0.0000 
     34 C35         1.1080   28.2230   10.5010 C.3       1 6HI4        0.0000 
     35 C36         2.1590   27.3880   11.1780 C.2       1 6HI4        0.0000 
     36 O7          2.0680   27.1590   12.3650 O.co2     1 6HI4        0.0000 
     37 O6          3.1740   26.8790   10.4810 O.co2     1 6HI4        0.0000 
     38 H           3.8403   32.7889    3.4508 H         1 6HI4        0.0000 
     39 H           3.5321   33.3952    8.6091 H         1 6HI4        0.0000 
     40 H           2.4876   33.5633    7.1876 H         1 6HI4        0.0000 
     41 H           3.1928   30.9282    8.5453 H         1 6HI4        0.0000 
     42 H           2.1139   31.1234    7.1533 H         1 6HI4        0.0000 
     43 H           0.6777   29.7825    8.4676 H         1 6HI4        0.0000 
     44 H          -0.3034   30.4983    9.7580 H         1 6HI4        0.0000 
     45 H           7.4466   33.9602   11.1571 H         1 6HI4        0.0000 
     46 H           7.2130   34.1739    2.1772 H         1 6HI4        0.0000 
     47 H           6.9216   35.6384    0.2707 H         1 6HI4        0.0000 
     48 H           5.4859   30.1748    8.8789 H         1 6HI4        0.0000 
     49 H           6.1011   29.9971   11.2100 H         1 6HI4        0.0000 
     50 H           8.5232   31.1088   -0.3726 H         1 6HI4        0.0000 
     51 H           8.2211   32.5725   -2.2793 H         1 6HI4        0.0000 
     52 H           9.1756   31.4659    2.3982 H         1 6HI4        0.0000 
     53 H           7.6828   30.6110    1.9730 H         1 6HI4        0.0000 
     54 H           8.0616   32.6982    4.0555 H         1 6HI4        0.0000 
     55 H           6.8259   34.1413    8.8251 H         1 6HI4        0.0000 
     56 H           1.5751   32.2464    9.9251 H         1 6HI4        0.0000 
     57 H           2.5862   29.6962   10.1014 H         1 6HI4        0.0000 
     58 H           0.9305   27.8489    9.4940 H         1 6HI4        0.0000 
     59 H           0.1776   28.1748   11.0646 H         1 6HI4        0.0000 
     60 H           3.2378   34.8124    4.7090 H         1 6HI4        0.0000 
     61 H           1.9350   34.2256    3.9711 H         1 6HI4        0.0000 
     62 H           2.1168   34.0311    5.5570 H         1 6HI4        0.0000 
     63 H           2.9477   30.6500    4.2236 H         1 6HI4        0.0000 
     64 H           1.9312   31.3628    5.2457 H         1 6HI4        0.0000 
     65 H           1.7500   31.5634    3.6604 H         1 6HI4        0.0000 
     66 H           0.5643   33.3036    8.0811 H         1 6HI4        0.0000 
     67 H           0.3924   30.4780   11.7290 H         1 6HI4        0.0000 
@<TRIPOS>BOND
     1    3    1 1    
     2   23    1 2    
     3    4    2 1    
     4   60    2 1    
     5   61    2 1    
     6   62    2 1    
     7   25    3 2    
     8   26    3 1    
     9    8    4 1    
    10   24    4 1    
    11   38    4 1    
    12    6    5 1    
    13   25    5 1    
    14   39    5 1    
    15   40    5 1    
    16   30    6 1    
    17   41    6 1    
    18   42    6 1    
    19   30    7 1    
    20   32    7 1    
    21   43    7 1    
    22   44    7 1    
    23   63    8 1    
    24   64    8 1    
    25   65    8 1    
    26   27    9 ar   
    27   29    9 ar   
    28   45    9 1    
    29   11   10 ar   
    30   18   10 ar   
    31   46   10 1    
    32   16   11 ar   
    33   47   11 1    
    34   13   12 ar   
    35   26   12 ar   
    36   48   12 1    
    37   27   13 ar   
    38   49   13 1    
    39   17   14 ar   
    40   18   14 ar   
    41   50   14 1    
    42   16   15 1    
    43   17   16 ar   
    44   51   17 1    
    45   19   18 1    
    46   20   19 1    
    47   52   19 1    
    48   53   19 1    
    49   21   20 am   
    50   54   20 1    
    51   22   21 2    
    52   23   21 1    
    53   24   23 1    
    54   25   24 1    
    55   29   26 ar   
    56   28   27 1    
    57   55   29 1    
    58   31   30 1    
    59   56   30 1    
    60   66   31 1    
    61   33   32 1    
    62   34   32 1    
    63   57   32 1    
    64   67   33 1    
    65   35   34 1    
    66   58   34 1    
    67   59   34 1    
    68   36   35 ar   
    69   37   35 ar   
@<TRIPOS>SUBSTRUCTURE
     1 6HI4        1 GROUP   
@<TRIPOS>SET

