#    Name: 4KEC_1_CAVITY_N1_6.mol2
#    Modification time : Tue Mar 11 10:36:20 2014

@<TRIPOS>MOLECULE
4KEC_1_CAVITY_N1_6.mol2
   30     0     3     0     0
SMALL
NO_CHARGES


@<TRIPOS>ATOM
      1 CA         12.0699  -62.6116  -12.2514 C.3       3 GLY6        0.0000 
      2 CZ         13.8718  -63.0340  -10.4280 C.ar      2 PHE5        0.0000 
      3 CA         13.3724  -61.6860  -10.8561 C.3       3 GLY6        0.0000 
      4 CZ         12.4615  -63.5433  -10.3863 C.ar      2 PHE5        0.0000 
      5 O          11.9621  -62.1952  -10.8144 O.2       1 ALA2        0.0000 
      6 N          10.5518  -62.7044  -10.7727 N.2       1 ALA2        0.0000 
      7 CA         14.6748  -60.7603   -9.4608 C.3       3 GLY6        0.0000 
      8 N          14.1754  -59.4123   -9.8889 N.2       1 ALA2        0.0000 
      9 CA         13.7639  -62.6177   -8.9910 C.3       3 GLY6        0.0000 
     10 N          13.2645  -61.2696   -9.4191 N.2       1 ALA2        0.0000 
     11 CA         12.3536  -63.1269   -8.9493 C.3       3 GLY6        0.0000 
     12 CA         11.8542  -61.7788   -9.3774 C.3       3 GLY6        0.0000 
     13 CA         10.9433  -63.6361   -8.9076 C.3       3 GLY6        0.0000 
     14 N          10.4439  -62.2881   -9.3357 N.2       1 ALA2        0.0000 
     15 CZ         14.5669  -60.3440   -8.0238 C.ar      2 PHE5        0.0000 
     16 CZ         14.0675  -58.9959   -8.4519 C.ar      2 PHE5        0.0000 
     17 N          13.5681  -57.6478   -8.8800 N.2       1 ALA2        0.0000 
     18 CA         13.6560  -62.2013   -7.5540 C.3       3 GLY6        0.0000 
     19 CZ         13.1566  -60.8532   -7.9821 C.ar      2 PHE5        0.0000 
     20 N          12.6572  -59.5051   -8.4102 N.2       1 ALA2        0.0000 
     21 N          12.1578  -58.1570   -8.8383 N.2       1 ALA2        0.0000 
     22 O          12.7452  -64.0586   -7.0842 O.2       1 ALA2        0.0000 
     23 CA         12.2457  -62.7105   -7.5123 C.3       3 GLY6        0.0000 
     24 CA         11.7463  -61.3624   -7.9404 C.3       3 GLY6        0.0000 
     25 CA         11.2469  -60.0144   -8.3685 C.3       3 GLY6        0.0000 
     26 CZ         13.4602  -57.2314   -7.4430 C.ar      2 PHE5        0.0000 
     27 CZ         12.5493  -59.0887   -6.9732 C.ar      2 PHE5        0.0000 
     28 CA         12.0499  -57.7407   -7.4013 C.3       3 GLY6        0.0000 
     29 CA         11.6385  -60.9461   -6.5034 C.3       3 GLY6        0.0000 
     30 CA         11.1390  -59.5980   -6.9315 C.3       3 GLY6        0.0000 
@<TRIPOS>BOND
@<TRIPOS>SUBSTRUCTURE
     1 ALA2        5 GROUP   
     2 PHE5        2 GROUP   
     3 GLY6        1 GROUP   
@<TRIPOS>SET

