#    Name: 4KEC_1_CAVITY_N1_ALL.mol2
#    Modification time : Tue Mar 11 10:36:20 2014

@<TRIPOS>MOLECULE
4KEC_1_CAVITY_N1_ALL.mol2
   67     0     6     0     0
SMALL
NO_CHARGES


@<TRIPOS>ATOM
      1 CZ         10.8555  -68.0907  -12.3207 C.ar      4 PHE5        0.0000 
      2 CA         12.0699  -62.6116  -12.2514 C.3       5 GLY6        0.0000 
      3 OG         11.6585  -65.8170  -11.3535 O.2       1 SER1        0.0000 
      4 OG         11.1591  -64.4689  -11.7816 O.2       1 SER1        0.0000 
      5 O          10.6596  -63.1208  -12.2097 O.2       2 ALA2        0.0000 
      6 CA         11.2470  -69.0223  -10.4556 C.3       5 GLY6        0.0000 
      7 CA         10.7476  -67.6743  -10.8837 C.3       5 GLY6        0.0000 
      8 CA         10.2482  -66.3262  -11.3118 C.3       5 GLY6        0.0000 
      9 CA          9.7488  -64.9781  -11.7399 C.3       5 GLY6        0.0000 
     10 CZ          9.3373  -68.1835  -10.8420 C.ar      4 PHE5        0.0000 
     11 CZ          8.8379  -66.8354  -11.2701 C.ar      4 PHE5        0.0000 
     12 CZ          7.9270  -68.6927  -10.8004 C.ar      4 PHE5        0.0000 
     13 CZ          7.4276  -67.3447  -11.2285 C.ar      4 PHE5        0.0000 
     14 CZ         13.8718  -63.0340  -10.4280 C.ar      4 PHE5        0.0000 
     15 CA         13.3724  -61.6860  -10.8561 C.3       5 GLY6        0.0000 
     16 CZ         12.4615  -63.5433  -10.3863 C.ar      4 PHE5        0.0000 
     17 O          11.9621  -62.1952  -10.8144 O.2       2 ALA2        0.0000 
     18 N          11.0512  -64.0525  -10.3446 N.2       2 ALA2        0.0000 
     19 N          10.5518  -62.7044  -10.7727 N.2       2 ALA2        0.0000 
     20 CA         10.1403  -65.9098   -9.8748 C.3       5 GLY6        0.0000 
     21 N           9.6409  -64.5617  -10.3029 N.2       2 ALA2        0.0000 
     22 CA          9.7289  -69.1152   -8.9769 C.3       5 GLY6        0.0000 
     23 OD1         9.2294  -67.7671   -9.4050 O.3       3 ASP3        0.0000 
     24 DU          8.7300  -66.4191   -9.8331 H         6 CUB7        0.0000 
     25 N           8.2306  -65.0710  -10.2612 N.2       2 ALA2        0.0000 
     26 OD1         7.8191  -68.2764   -9.3633 O.3       3 ASP3        0.0000 
     27 CZ          7.3197  -66.9283   -9.7914 C.ar      4 PHE5        0.0000 
     28 N           6.8203  -65.5802  -10.2195 N.2       2 ALA2        0.0000 
     29 CZ          6.4088  -68.7856   -9.3217 C.ar      4 PHE5        0.0000 
     30 CZ          5.9094  -67.4375   -9.7498 C.ar      4 PHE5        0.0000 
     31 CZ          5.4100  -66.0894  -10.1779 C.ar      4 PHE5        0.0000 
     32 CA         14.6748  -60.7603   -9.4608 C.3       5 GLY6        0.0000 
     33 N          14.1754  -59.4123   -9.8889 N.2       2 ALA2        0.0000 
     34 CA         13.7639  -62.6177   -8.9910 C.3       5 GLY6        0.0000 
     35 N          13.2645  -61.2696   -9.4191 N.2       2 ALA2        0.0000 
     36 CA         12.3536  -63.1269   -8.9493 C.3       5 GLY6        0.0000 
     37 CA         11.8542  -61.7788   -9.3774 C.3       5 GLY6        0.0000 
     38 CA         11.4427  -64.9842   -8.4795 C.3       5 GLY6        0.0000 
     39 CA         10.9433  -63.6361   -8.9076 C.3       5 GLY6        0.0000 
     40 N          10.4439  -62.2881   -9.3357 N.2       2 ALA2        0.0000 
     41 CA         10.5319  -66.8415   -8.0097 C.3       5 GLY6        0.0000 
     42 CA         10.0324  -65.4934   -8.4378 C.3       5 GLY6        0.0000 
     43 N           9.5330  -64.1454   -8.8659 N.2       2 ALA2        0.0000 
     44 OD1         9.6210  -68.6988   -7.5399 O.3       3 ASP3        0.0000 
     45 OD1         9.1216  -67.3507   -7.9680 O.3       3 ASP3        0.0000 
     46 OD1         8.6221  -66.0027   -8.3961 O.3       3 ASP3        0.0000 
     47 N           8.1227  -64.6546   -8.8242 N.2       2 ALA2        0.0000 
     48 N           6.7124  -65.1638   -8.7825 N.2       2 ALA2        0.0000 
     49 CZ         14.5669  -60.3440   -8.0238 C.ar      4 PHE5        0.0000 
     50 CZ         14.0675  -58.9959   -8.4519 C.ar      4 PHE5        0.0000 
     51 N          13.5681  -57.6478   -8.8800 N.2       2 ALA2        0.0000 
     52 CA         13.6560  -62.2013   -7.5540 C.3       5 GLY6        0.0000 
     53 CZ         13.1566  -60.8532   -7.9821 C.ar      4 PHE5        0.0000 
     54 N          12.6572  -59.5051   -8.4102 N.2       2 ALA2        0.0000 
     55 N          12.1578  -58.1570   -8.8383 N.2       2 ALA2        0.0000 
     56 O          12.7452  -64.0586   -7.0842 O.2       2 ALA2        0.0000 
     57 CA         12.2457  -62.7105   -7.5123 C.3       5 GLY6        0.0000 
     58 CA         11.7463  -61.3624   -7.9404 C.3       5 GLY6        0.0000 
     59 CA         11.2469  -60.0144   -8.3685 C.3       5 GLY6        0.0000 
     60 O          11.3349  -64.5678   -7.0425 O.2       2 ALA2        0.0000 
     61 O          10.4240  -66.4251   -6.5727 O.2       2 ALA2        0.0000 
     62 CA          9.9246  -65.0771   -7.0008 C.3       5 GLY6        0.0000 
     63 CZ         13.4602  -57.2314   -7.4430 C.ar      4 PHE5        0.0000 
     64 CZ         12.5493  -59.0887   -6.9732 C.ar      4 PHE5        0.0000 
     65 CA         12.0499  -57.7407   -7.4013 C.3       5 GLY6        0.0000 
     66 CA         11.6385  -60.9461   -6.5034 C.3       5 GLY6        0.0000 
     67 CA         11.1390  -59.5980   -6.9315 C.3       5 GLY6        0.0000 
@<TRIPOS>BOND
@<TRIPOS>SUBSTRUCTURE
     1 SER1        3 GROUP   
     2 ALA2        5 GROUP   
     3 ASP3       23 GROUP   
     4 PHE5        1 GROUP   
     5 GLY6        2 GROUP   
     6 CUB7       24 GROUP   
@<TRIPOS>SET

