#    Name: 4kec_4KE_1_INTS_M
#    Modification time : Tue Mar 25 07:46:01 2014

@<TRIPOS>MOLECULE
4kec_4KE_1_INTS_M
   77     0    12     0     0
SMALL
NO_CHARGES


@<TRIPOS>ATOM
      1 CA         14.7485  -54.8600   -9.9135 C.3       4 GLC5        0.0000 
      2 CA         14.8370  -57.0100  -10.0760 C.3      12 GLL5        0.0000 
      3 CA         14.6600  -52.7100   -9.7510 C.3       8 GLP5        0.0000 
      4 CA         14.8555  -58.4250   -7.1395 C.3       4 GLC5        0.0000 
      5 CA         14.9730  -58.2040   -9.0910 C.3      12 GLL5        0.0000 
      6 CA         14.7380  -58.6460   -5.1880 C.3       8 GLP5        0.0000 
      7 CA         15.3640  -59.6140   -7.3665 C.3       4 GLC5        0.0000 
      8 CA         15.9850  -59.1980   -9.3960 C.3      12 GLL5        0.0000 
      9 CA         14.7430  -60.0300   -5.3370 C.3       8 GLP5        0.0000 
     10 CA         18.4280  -60.3995  -11.0675 C.3       4 GLC5        0.0000 
     11 CA         17.0370  -58.8440  -10.4590 C.3      12 GLL5        0.0000 
     12 CA         19.8190  -61.9550  -11.6760 C.3       8 GLP5        0.0000 
     13 NZ         18.5075  -57.7460  -14.2920 N.4       3 LYC4        0.0000 
     14 NZ         18.3630  -58.6310  -12.8280 N.4      11 LYL4        0.0000 
     15 NZ         19.3260  -57.8810  -16.2720 N.4       7 LYP4        0.0000 
     16 N          18.9655  -58.6765  -14.0495 N.am      2 SEC2        0.0000 
     17 N          18.3630  -58.6310  -12.8280 N.am     10 SEL2        0.0000 
     18 N          19.5680  -58.7220  -15.2710 N.am      6 SEP2        0.0000 
     19 NZ         17.4470  -56.7700  -13.3130 N.4      11 LYL4        0.0000 
     20 N          18.5075  -57.7460  -14.2920 N.am      2 SEC2        0.0000 
     21 N          17.4470  -56.7700  -13.3130 N.am     10 SEL2        0.0000 
     22 N          17.9445  -56.8325  -14.7160 N.am      2 SEC2        0.0000 
     23 N          18.4420  -56.8950  -16.1190 N.am      6 SEP2        0.0000 
     24 O          17.6450  -58.2860   -7.9175 O.2       1 ALC1        0.0000 
     25 O          16.6440  -59.3270   -8.2280 O.2       9 ALL1        0.0000 
     26 O          18.6460  -57.2450   -7.6070 O.2       5 ALP1        0.0000 
     27 N          12.7080  -58.7890  -10.2610 N.am      2 SEC2        0.0000 
     28 N          13.7210  -58.8510   -8.8660 N.am     10 SEL2        0.0000 
     29 N          11.6950  -58.7270  -11.6560 N.am      6 SEP2        0.0000 
     30 N          12.6430  -57.6190  -10.8410 N.am      2 SEC2        0.0000 
     31 N          13.5910  -56.5110  -10.0260 N.am     10 SEL2        0.0000 
     32 N          14.0935  -55.1815   -6.6060 N.am      2 SEC2        0.0000 
     33 N          14.1170  -55.5640   -8.0710 N.am     10 SEL2        0.0000 
     34 N          14.0700  -54.7990   -5.1410 N.am      6 SEP2        0.0000 
     35 CA          8.7440  -51.9580   -5.8390 C.3       4 GLC5        0.0000 
     36 CA          9.5650  -53.9120   -6.4560 C.3      12 GLL5        0.0000 
     37 CA          7.9230  -50.0040   -5.2220 C.3       8 GLP5        0.0000 
     38 CA          7.2675  -55.3700   -5.0545 C.3       4 GLC5        0.0000 
     39 CA          8.2070  -53.6910   -6.2170 C.3      12 GLL5        0.0000 
     40 CA          6.3280  -57.0490   -3.8920 C.3       8 GLP5        0.0000 
     41 CA          8.0265  -53.6475   -4.0525 C.3       4 GLC5        0.0000 
     42 CA          7.8460  -53.6040   -1.8880 C.3       8 GLP5        0.0000 
     43 CA          5.3750  -53.7730   -8.3720 C.3       4 GLC5        0.0000 
     44 CA          7.2960  -53.7880   -7.2660 C.3      12 GLL5        0.0000 
     45 CA          3.4540  -53.7580   -9.4780 C.3       8 GLP5        0.0000 
     46 CA          6.0995  -53.8785   -9.7535 C.3       4 GLC5        0.0000 
     47 CA          7.7450  -54.1060   -8.5480 C.3      12 GLL5        0.0000 
     48 CA          4.4540  -53.6510  -10.9590 C.3       8 GLP5        0.0000 
     49 CA         15.3682  -58.7570  -12.7900 C.3       4 GLC5        0.0000 
     50 CA         15.3090  -57.2450  -11.4230 C.3      12 GLL5        0.0000 
     51 CA         14.7840  -59.9110  -14.1010 C.3       8 GLP5        0.0000 
     52 CA         13.2240  -57.5442  -11.7523 C.3       4 GLC5        0.0000 
     53 CA         11.3750  -57.9610  -12.7550 C.3       8 GLP5        0.0000 
     54 CA         16.0685  -56.5385   -8.1967 C.3       4 GLC5        0.0000 
     55 CA         17.2320  -55.4700   -6.8100 C.3       8 GLP5        0.0000 
     56 CA         15.8025  -60.0895  -11.6298 C.3       4 GLC5        0.0000 
     57 CA         15.0940  -61.1580  -13.3320 C.3       8 GLP5        0.0000 
     58 CA         17.6200  -60.2650   -8.7363 C.3       4 GLC5        0.0000 
     59 CA         18.7290  -61.5090   -7.5450 C.3       8 GLP5        0.0000 
     60 CA         10.5117  -56.2802   -8.2360 C.3       4 GLC5        0.0000 
     61 CA         11.8930  -55.1920   -8.9990 C.3      12 GLL5        0.0000 
     62 CA          9.3330  -57.7300   -7.9790 C.3       8 GLP5        0.0000 
     63 CA         11.3093  -53.0343   -8.5165 C.3       4 GLC5        0.0000 
     64 CA         10.9280  -51.2380   -8.5400 C.3       8 GLP5        0.0000 
     65 CA         11.9008  -55.5562   -6.5685 C.3       4 GLC5        0.0000 
     66 CA         11.4880  -54.4690   -7.9870 C.3      12 GLL5        0.0000 
     67 CA         12.1110  -56.2820   -4.6440 C.3       8 GLP5        0.0000 
     68 CA         13.1753  -53.7703   -9.1220 C.3       4 GLC5        0.0000 
     69 CA          9.9626  -52.5600   -7.5990 C.3       4 GLC5        0.0000 
     70 CA         10.0100  -54.2340   -7.7420 C.3      12 GLL5        0.0000 
     71 CA          7.3678  -52.2668   -5.5427 C.3       4 GLC5        0.0000 
     72 CA          6.9840  -50.7940   -4.3440 C.3       8 GLP5        0.0000 
     73 CA          6.7953  -52.3165   -8.9365 C.3       4 GLC5        0.0000 
     74 CA          6.0700  -50.6860   -9.9660 C.3       8 GLP5        0.0000 
     75 CA          9.6740  -52.7275   -8.6045 C.3       4 GLC5        0.0000 
     76 CA          8.9069  -55.9019   -7.9524 C.3       4 GLC5        0.0000 
     77 CA          9.0950  -54.3280   -8.7900 C.3      12 GLL5        0.0000 
@<TRIPOS>BOND
@<TRIPOS>SUBSTRUCTURE
     1 ALC1       24 GROUP        1 X    ALC  0     ROOT ALC X 1
     2 SEC2       16 GROUP        1 X    SEC  0     **** SEC X 2
     3 LYC4       13 GROUP        1 X    LYC  0     **** LYC X 4
     4 GLC5        1 GROUP        1 X    GLC  0     **** GLC X 6
     5 ALP1       26 GROUP        1 Y    ALP  0     ROOT ALP Y 8
     6 SEP2       18 GROUP        1 Y    SEP  0     **** SEP Y 9
     7 LYP4       15 GROUP        1 Y    LYP  0     **** LYP Y 11
     8 GLP5        3 GROUP        1 Y    GLP  0     **** GLP Y 13
     9 ALL1       25 GROUP        1 Z    ALL  0     ROOT ALL Z 15
    10 SEL2       17 GROUP        1 Z    SEL  0     **** SEL Z 16
    11 LYL4       14 GROUP        1 Z    LYL  0     **** LYL Z 18
    12 GLL5        2 GROUP        1 Z    GLL  0     **** GLL Z 20
@<TRIPOS>SET

