#    Name: 4kec_4KE_1_ligand
#    Modification time : Tue Mar 25 07:46:01 2014

@<TRIPOS>MOLECULE
4kec_4KE_1_ligand
   38    39     1     0     0
SMALL
NO_CHARGES


@<TRIPOS>ATOM
      1 C01        15.3090  -57.2450  -11.4230 C.3       1 4KE502      0.0000 
      2 C02        14.8370  -57.0100  -10.0760 C.3       1 4KE502      0.0000 
      3 C03        14.9730  -58.2040   -9.0910 C.3       1 4KE502      0.0000 
      4 C04        15.9850  -59.1980   -9.3960 C.3       1 4KE502      0.0000 
      5 C05        17.0370  -58.8440  -10.4590 C.2       1 4KE502      0.0000 
      6 C06        16.5960  -57.9610  -11.5350 C.2       1 4KE502      0.0000 
      7 C07        17.4610  -57.7970  -12.6730 C.2       1 4KE502      0.0000 
      8 O08        18.3630  -58.6310  -12.8280 O.co2     1 4KE502      0.0000 
      9 O09        17.4470  -56.7700  -13.3130 O.co2     1 4KE502      0.0000 
     10 O10        16.6440  -59.3270   -8.2280 O.3       1 4KE502      0.0000 
     11 O11        13.7210  -58.8510   -8.8660 O.3       1 4KE502      0.0000 
     12 O12        13.5910  -56.5110  -10.0260 O.3       1 4KE502      0.0000 
     13 C13        13.2940  -55.7120   -9.0720 C.2       1 4KE502      0.0000 
     14 C14        11.8930  -55.1920   -8.9990 C.2       1 4KE502      0.0000 
     15 C15        11.4880  -54.4690   -7.9870 C.2       1 4KE502      0.0000 
     16 C16        10.0100  -54.2340   -7.7420 C.ar      1 4KE502      0.0000 
     17 O17        14.1170  -55.5640   -8.0710 O.2       1 4KE502      0.0000 
     18 C18         9.5650  -53.9120   -6.4560 C.ar      1 4KE502      0.0000 
     19 C19         8.2070  -53.6910   -6.2170 C.ar      1 4KE502      0.0000 
     20 C20         7.2960  -53.7880   -7.2660 C.ar      1 4KE502      0.0000 
     21 C21         7.7450  -54.1060   -8.5480 C.ar      1 4KE502      0.0000 
     22 C22         9.0950  -54.3280   -8.7900 C.ar      1 4KE502      0.0000 
     23 O23         5.9050  -53.5490   -7.0240 O.3       1 4KE502      0.0000 
     24 H          15.3955  -56.2668  -11.9709 H         1 4KE502      0.0000 
     25 H          14.5320  -57.8139  -12.0036 H         1 4KE502      0.0000 
     26 H          15.5496  -56.2214   -9.6165 H         1 4KE502      0.0000 
     27 H          15.2680  -57.7238   -8.0962 H         1 4KE502      0.0000 
     28 H          15.5194  -60.1324   -9.6761 H         1 4KE502      0.0000 
     29 H          17.9294  -59.2037  -10.3871 H         1 4KE502      0.0000 
     30 H          11.2950  -55.4538   -9.8049 H         1 4KE502      0.0000 
     31 H          12.1071  -54.0158   -7.2982 H         1 4KE502      0.0000 
     32 H          10.2401  -53.8380   -5.6849 H         1 4KE502      0.0000 
     33 H           7.8835  -53.4583   -5.2724 H         1 4KE502      0.0000 
     34 H           7.0661  -54.1764   -9.3221 H         1 4KE502      0.0000 
     35 H           9.4196  -54.5603   -9.7351 H         1 4KE502      0.0000 
     36 H          17.2748  -58.5515   -8.1998 H         1 4KE502      0.0000 
     37 H          13.9408  -59.8244   -8.8011 H         1 4KE502      0.0000 
     38 H           5.7833  -53.7008   -6.0431 H         1 4KE502      0.0000 
@<TRIPOS>BOND
     1    2    1 1    
     2    6    1 1    
     3   24    1 1    
     4   25    1 1    
     5    3    2 1    
     6   12    2 1    
     7   26    2 1    
     8    4    3 1    
     9   11    3 1    
    10   27    3 1    
    11    5    4 1    
    12   10    4 1    
    13   28    4 1    
    14    6    5 2    
    15   29    5 1    
    16    7    6 1    
    17    8    7 ar   
    18    9    7 ar   
    19   36   10 1    
    20   37   11 1    
    21   13   12 1    
    22   14   13 1    
    23   17   13 2    
    24   15   14 2    
    25   30   14 1    
    26   16   15 1    
    27   31   15 1    
    28   18   16 ar   
    29   22   16 ar   
    30   19   18 ar   
    31   32   18 1    
    32   20   19 ar   
    33   33   19 1    
    34   21   20 ar   
    35   23   20 1    
    36   22   21 ar   
    37   34   21 1    
    38   35   22 1    
    39   38   23 1    
@<TRIPOS>SUBSTRUCTURE
     1 4KE502      1 GROUP   
@<TRIPOS>SET

