#    Name: 1w2c_ANP_1_INTS_M
#    Modification time : Tue Mar 25 08:32:03 2014

@<TRIPOS>MOLECULE
1w2c_ANP_1_INTS_M
   59     0    18     0     0
SMALL
NO_CHARGES


@<TRIPOS>ATOM
      1 Zn         16.8070   26.9465   80.7255 Zn        5 ZIC7        0.0000 
      2 Zn         15.9430   27.8000   80.9890 Zn       17 ZIL7        0.0000 
      3 Zn         17.6710   26.0930   80.4620 Zn       11 ZIP7        0.0000 
      4 NZ         21.6495   27.7420   82.7240 N.4       4 LYC4        0.0000 
      5 NZ         20.3430   28.6040   82.8940 N.4      16 LYL4        0.0000 
      6 NZ         22.9560   26.8800   82.5540 N.4      10 LYP4        0.0000 
      7 N          21.6495   27.7420   82.7240 N.am      2 SEC2        0.0000 
      8 N          20.3430   28.6040   82.8940 N.am     14 SEL2        0.0000 
      9 N          22.9560   26.8800   82.5540 N.am      8 SEP2        0.0000 
     10 OD1        18.5110   27.0730   81.9970 O.co2     3 ASC3        0.0000 
     11 OD1        18.2430   28.6300   81.7760 O.co2    15 ASL3        0.0000 
     12 OD1        18.7790   25.5160   82.2180 O.co2     9 ASP3        0.0000 
     13 Zn         18.5725   26.4305   80.0160 Zn        5 ZIC7        0.0000 
     14 Zn         19.4740   26.7680   79.5700 Zn       17 ZIL7        0.0000 
     15 NZ         22.4530   26.8180   81.2180 N.4       4 LYC4        0.0000 
     16 NZ         21.9500   26.7560   79.8820 N.4      16 LYL4        0.0000 
     17 N          22.4530   26.8180   81.2180 N.am      2 SEC2        0.0000 
     18 N          21.9500   26.7560   79.8820 N.am     14 SEL2        0.0000 
     19 CA         21.9345   30.1170   78.4130 C.3       6 GLC5        0.0000 
     20 CA         20.4020   29.4860   77.4750 C.3      18 GLL5        0.0000 
     21 CA         23.4670   30.7480   79.3510 C.3      12 GLP5        0.0000 
     22 O          17.7195   27.1840   75.2335 O.2       1 ALC1        0.0000 
     23 O          18.8520   27.8830   74.7760 O.2      13 ALL1        0.0000 
     24 O          16.5870   26.4850   75.6910 O.2       7 ALP1        0.0000 
     25 N          19.7500   30.1335   73.0605 N.am      2 SEC2        0.0000 
     26 N          20.9220   29.4560   73.2000 N.am     14 SEL2        0.0000 
     27 N          18.5780   30.8110   72.9210 N.am      8 SEP2        0.0000 
     28 CA         23.4615   29.3735   77.1000 C.3       6 GLC5        0.0000 
     29 CA         22.5060   28.9550   75.1470 C.3      18 GLL5        0.0000 
     30 CA         24.4170   29.7920   79.0530 C.3      12 GLP5        0.0000 
     31 CA         25.8895   25.4865   74.5625 C.3       6 GLC5        0.0000 
     32 CA         25.5550   27.3280   75.7170 C.3      18 GLL5        0.0000 
     33 CA         26.2240   23.6450   73.4080 C.3      12 GLP5        0.0000 
     34 CA         28.3065   28.3750   76.0430 C.3       6 GLC5        0.0000 
     35 CA         26.8350   27.0030   75.3730 C.3      18 GLL5        0.0000 
     36 CA         29.7780   29.7470   76.7130 C.3      12 GLP5        0.0000 
     37 CA         27.2015   25.5655   74.2030 C.3       6 GLC5        0.0000 
     38 CA         27.5680   24.1280   73.0330 C.3      12 GLP5        0.0000 
     39 O          29.0445   26.2360   75.6625 O.2       1 ALC1        0.0000 
     40 O          27.7050   26.2130   76.0550 O.2      13 ALL1        0.0000 
     41 O          30.3840   26.2590   75.2700 O.2       7 ALP1        0.0000 
     42 N          28.2905   27.0150   73.1575 N.am      2 SEC2        0.0000 
     43 N          27.3410   27.5640   74.2200 N.am     14 SEL2        0.0000 
     44 N          29.2400   26.4660   72.0950 N.am      8 SEP2        0.0000 
     45 CA         28.6150   28.2255   73.2705 C.3       6 GLC5        0.0000 
     46 CA         26.5260   28.4000   73.4410 C.3      18 GLL5        0.0000 
     47 CA         30.7040   28.0510   73.1000 C.3      12 GLP5        0.0000 
     48 CA         26.9875   26.6425   72.5735 C.3       6 GLC5        0.0000 
     49 CA         27.4490   24.8850   71.7060 C.3      12 GLP5        0.0000 
     50 CA         26.2665   28.8680   71.3710 C.3       6 GLC5        0.0000 
     51 CA         26.0070   29.3360   69.3010 C.3      12 GLP5        0.0000 
     52 CA         23.8220   26.6480   73.5565 C.3       6 GLC5        0.0000 
     53 CA         24.8150   28.1500   74.8750 C.3      18 GLL5        0.0000 
     54 CA         22.8290   25.1460   72.2380 C.3      12 GLP5        0.0000 
     55 CA         20.5872   26.8792   73.5987 C.3       6 GLC5        0.0000 
     56 CA         21.4390   28.4660   74.2350 C.3      18 GLL5        0.0000 
     57 CA         20.3340   25.3960   72.4390 C.3      12 GLP5        0.0000 
     58 CA         21.0132   26.5243   75.5828 C.3       6 GLC5        0.0000 
     59 CA         21.1860   24.6860   76.4070 C.3      12 GLP5        0.0000 
@<TRIPOS>BOND
@<TRIPOS>SUBSTRUCTURE
     1 ALC1       22 GROUP        1 X    ALC  0     ROOT ALC X 1
     2 SEC2        7 GROUP        1 X    SEC  0     **** SEC X 2
     3 ASC3       10 GROUP        1 X    ASC  0     **** ASC X 3
     4 LYC4        4 GROUP        1 X    LYC  0     **** LYC X 4
     5 ZIC7        1 GROUP        1 X    ZIC  0     **** ZIC X 5
     6 GLC5       19 GROUP        1 X    GLC  0     **** GLC X 6
     7 ALP1       24 GROUP        1 Y    ALP  0     ROOT ALP Y 8
     8 SEP2        9 GROUP        1 Y    SEP  0     **** SEP Y 9
     9 ASP3       12 GROUP        1 Y    ASP  0     **** ASP Y 10
    10 LYP4        6 GROUP        1 Y    LYP  0     **** LYP Y 11
    11 ZIP7        3 GROUP        1 Y    ZIP  0     **** ZIP Y 12
    12 GLP5       21 GROUP        1 Y    GLP  0     **** GLP Y 13
    13 ALL1       23 GROUP        1 Z    ALL  0     ROOT ALL Z 15
    14 SEL2        8 GROUP        1 Z    SEL  0     **** SEL Z 16
    15 ASL3       11 GROUP        1 Z    ASL  0     **** ASL Z 17
    16 LYL4        5 GROUP        1 Z    LYL  0     **** LYL Z 18
    17 ZIL7        2 GROUP        1 Z    ZIL  0     **** ZIL Z 19
    18 GLL5       20 GROUP        1 Z    GLL  0     **** GLL Z 20
@<TRIPOS>SET

