#    Name: 1w2c_ANP_1_ligand
#    Modification time : Tue Mar 25 08:32:03 2014

@<TRIPOS>MOLECULE
1w2c_ANP_1_ligand
   42    44     1     0     0
SMALL
NO_CHARGES


@<TRIPOS>ATOM
      1 PG         16.7420   29.0100   81.1510 P.3       1 ANP1462     0.0000 
      2 O1G        15.9430   27.8000   80.9890 O.co2     1 ANP1462     0.0000 
      3 O2G        17.2730   29.5240   79.8230 O.co2     1 ANP1462     0.0000 
      4 O3G        15.9240   29.9240   81.9100 O.co2     1 ANP1462     0.0000 
      5 PB         19.6680   29.2890   81.7790 P.3       1 ANP1462     0.0000 
      6 O1B        19.5700   30.7760   81.8460 O.co2     1 ANP1462     0.0000 
      7 O2B        20.3430   28.6040   82.8940 O.co2     1 ANP1462     0.0000 
      8 N3B        18.2430   28.6300   81.7760 N.4       1 ANP1462     0.0000 
      9 PA         20.6930   27.6270   79.5520 P.3       1 ANP1462     0.0000 
     10 O1A        19.4740   26.7680   79.5700 O.co2     1 ANP1462     0.0000 
     11 O2A        21.9500   26.7560   79.8820 O.co2     1 ANP1462     0.0000 
     12 O3A        20.6830   28.8860   80.5970 O.3       1 ANP1462     0.0000 
     13 O5'        21.0640   28.2270   78.0470 O.3       1 ANP1462     0.0000 
     14 C5'        20.4020   29.4860   77.4750 C.3       1 ANP1462     0.0000 
     15 C4'        20.4800   29.5780   76.1400 C.3       1 ANP1462     0.0000 
     16 O4'        21.9130   29.9030   75.9710 O.3       1 ANP1462     0.0000 
     17 C3'        20.2420   28.2590   75.2820 C.3       1 ANP1462     0.0000 
     18 O3'        18.8520   27.8830   74.7760 O.3       1 ANP1462     0.0000 
     19 C2'        21.4390   28.4660   74.2350 C.3       1 ANP1462     0.0000 
     20 O2'        20.9220   29.4560   73.2000 O.3       1 ANP1462     0.0000 
     21 C1'        22.5060   28.9550   75.1470 C.3       1 ANP1462     0.0000 
     22 N9         23.6090   28.2640   75.4860 N.pl3     1 ANP1462     0.0000 
     23 C8         23.7640   27.4650   76.6130 C.2       1 ANP1462     0.0000 
     24 N7         24.8930   26.9030   76.8040 N.2       1 ANP1462     0.0000 
     25 C5         25.5550   27.3280   75.7170 C.ar      1 ANP1462     0.0000 
     26 C6         26.8350   27.0030   75.3730 C.ar      1 ANP1462     0.0000 
     27 N6         27.7050   26.2130   76.0550 N.pl3     1 ANP1462     0.0000 
     28 N1         27.3410   27.5640   74.2200 N.ar      1 ANP1462     0.0000 
     29 C2         26.5260   28.4000   73.4410 C.ar      1 ANP1462     0.0000 
     30 N3         25.2600   28.7410   73.6630 N.ar      1 ANP1462     0.0000 
     31 C4         24.8150   28.1500   74.8750 C.ar      1 ANP1462     0.0000 
     32 H          20.8797   30.3516   78.0105 H         1 ANP1462     0.0000 
     33 H          19.3458   29.4770   77.8606 H         1 ANP1462     0.0000 
     34 H          19.9212   30.3649   75.6978 H         1 ANP1462     0.0000 
     35 H          20.6579   27.4469   75.9563 H         1 ANP1462     0.0000 
     36 H          21.6420   27.5303   73.8438 H         1 ANP1462     0.0000 
     37 H          23.0044   29.8087   74.2855 H         1 ANP1462     0.0000 
     38 H          22.9508   27.3628   77.2486 H         1 ANP1462     0.0000 
     39 H          27.0146   28.8049   72.5530 H         1 ANP1462     0.0000 
     40 H          18.4399   27.3562   75.5194 H         1 ANP1462     0.0000 
     41 H          21.7096   30.0294   72.9744 H         1 ANP1462     0.0000 
     42 H          28.5856   26.3449   75.5998 H         1 ANP1462     0.0000 
@<TRIPOS>BOND
     1    2    1 ar   
     2    3    1 ar   
     3    4    1 ar   
     4    8    1 1    
     5    6    5 ar   
     6    7    5 ar   
     7    8    5 1    
     8   12    5 1    
     9   10    9 ar   
    10   11    9 ar   
    11   12    9 1    
    12   13    9 1    
    13   14   13 1    
    14   15   14 1    
    15   32   14 1    
    16   33   14 1    
    17   16   15 1    
    18   17   15 1    
    19   34   15 1    
    20   21   16 1    
    21   18   17 1    
    22   19   17 1    
    23   35   17 1    
    24   40   18 1    
    25   20   19 1    
    26   21   19 1    
    27   36   19 1    
    28   41   20 1    
    29   22   21 1    
    30   37   21 1    
    31   23   22 1    
    32   31   22 1    
    33   24   23 2    
    34   38   23 1    
    35   25   24 1    
    36   26   25 ar   
    37   31   25 ar   
    38   27   26 1    
    39   28   26 ar   
    40   42   27 1    
    41   29   28 ar   
    42   30   29 ar   
    43   39   29 1    
    44   31   30 ar   
@<TRIPOS>SUBSTRUCTURE
     1 ANP1462     1 GROUP   
@<TRIPOS>SET

