#    Name: 4CB6_1_CAVITY_N1_ALL.mol2
#    Modification time : Mon Mar 10 12:59:59 2014

@<TRIPOS>MOLECULE
4CB6_1_CAVITY_N1_ALL.mol2
  100     0     6     0     0
SMALL
NO_CHARGES


@<TRIPOS>ATOM
      1 N          -5.1491   10.6963   36.5361 N.2       1 ALA2        0.0000 
      2 CZ         -3.8765    9.9781   36.8748 C.ar      4 PHE5        0.0000 
      3 O          -2.6039    9.2599   37.2135 O.2       1 ALA2        0.0000 
      4 CZ         -5.8796    9.8880   37.5670 C.ar      4 PHE5        0.0000 
      5 CZ         -4.6070    9.1698   37.9057 C.ar      4 PHE5        0.0000 
      6 DU         -3.3344    8.4516   38.2445 H         6 CUB7        0.0000 
      7 CA         -2.0619    7.7334   38.5832 C.3       5 GLY6        0.0000 
      8 CA         -0.7893    7.0152   38.9219 C.3       5 GLY6        0.0000 
      9 CZ         -6.6102    9.0797   38.5980 C.ar      4 PHE5        0.0000 
     10 CZ         -5.3376    8.3615   38.9367 C.ar      4 PHE5        0.0000 
     11 DU         -4.0650    7.6433   39.2754 H         6 CUB7        0.0000 
     12 CA         -2.7924    6.9251   39.6141 C.3       5 GLY6        0.0000 
     13 CA         -1.5198    6.2069   39.9528 C.3       5 GLY6        0.0000 
     14 CZ         -6.0682    7.5532   39.9677 C.ar      4 PHE5        0.0000 
     15 N          -4.7956    6.8350   40.3064 N.2       1 ALA2        0.0000 
     16 N          -3.5230    6.1168   40.6451 N.2       1 ALA2        0.0000 
     17 N          -2.2504    5.3986   40.9838 N.2       1 ALA2        0.0000 
     18 CZ         -6.7987    6.7448   40.9987 C.ar      4 PHE5        0.0000 
     19 CA         -5.5261    6.0267   41.3374 C.3       5 GLY6        0.0000 
     20 CA         -4.2536    5.3085   41.6761 C.3       5 GLY6        0.0000 
     21 CZ         -7.5293    5.9365   42.0296 C.ar      4 PHE5        0.0000 
     22 CZ         -4.9181    8.1301   36.8702 C.ar      4 PHE5        0.0000 
     23 CA         -3.6455    7.4120   37.2089 C.3       5 GLY6        0.0000 
     24 CZ         -5.6487    7.3218   37.9012 C.ar      4 PHE5        0.0000 
     25 CA         -4.3761    6.6036   38.2399 C.3       5 GLY6        0.0000 
     26 CA         -5.1067    5.7953   39.2708 C.3       5 GLY6        0.0000 
     27 CA         -3.8341    5.0771   39.6095 C.3       5 GLY6        0.0000 
     28 CZ         -5.8373    4.9870   40.3018 C.ar      4 PHE5        0.0000 
     29 N         -10.9558   12.7365   42.7505 N.2       1 ALA2        0.0000 
     30 CZ         -9.6832   12.0183   43.0892 C.ar      4 PHE5        0.0000 
     31 CZ         -8.4106   11.3001   43.4279 C.ar      4 PHE5        0.0000 
     32 DU         -7.1380   10.5819   43.7666 H         6 CUB7        0.0000 
     33 N          -5.8654    9.8638   44.1053 N.2       1 ALA2        0.0000 
     34 CA        -11.6863   11.9282   43.7815 C.3       5 GLY6        0.0000 
     35 CZ        -10.4138   11.2100   44.1202 C.ar      4 PHE5        0.0000 
     36 DU         -9.1412   10.4918   44.4589 H         6 CUB7        0.0000 
     37 DU         -7.8686    9.7736   44.7976 H         6 CUB7        0.0000 
     38 CA        -11.1443   10.4017   45.1512 C.3       5 GLY6        0.0000 
     39 O          -9.8717    9.6835   45.4899 O.2       1 ALA2        0.0000 
     40 NZ         -8.5991    8.9653   45.8286 N.2       3 LYS4        0.0000 
     41 CZ         -6.5300   12.6854   39.2995 C.ar      4 PHE5        0.0000 
     42 CZ         -5.9880   11.1589   40.6691 C.ar      4 PHE5        0.0000 
     43 DU         -4.7154   10.4407   41.0078 H         6 CUB7        0.0000 
     44 DU         -3.4428    9.7225   41.3465 H         6 CUB7        0.0000 
     45 DU         -2.1702    9.0044   41.6852 H         6 CUB7        0.0000 
     46 CA         -0.8976    8.2862   42.0239 C.3       5 GLY6        0.0000 
     47 CZ         -6.7185   10.3506   41.7001 C.ar      4 PHE5        0.0000 
     48 N          -5.4460    9.6324   42.0388 N.2       1 ALA2        0.0000 
     49 N          -4.1734    8.9142   42.3775 N.2       1 ALA2        0.0000 
     50 N          -2.9008    8.1960   42.7162 N.2       1 ALA2        0.0000 
     51 CZ         -8.7217   10.2605   42.3924 C.ar      4 PHE5        0.0000 
     52 CZ         -7.4491    9.5423   42.7311 C.ar      4 PHE5        0.0000 
     53 N          -6.1765    8.8241   43.0698 N.2       1 ALA2        0.0000 
     54 CZ        -10.7249   10.1704   43.0846 C.ar      4 PHE5        0.0000 
     55 CZ         -9.4523    9.4522   43.4233 C.ar      4 PHE5        0.0000 
     56 DU         -8.1797    8.7340   43.7621 H         6 CUB7        0.0000 
     57 CZ        -10.1828    8.6439   44.4543 C.ar      4 PHE5        0.0000 
     58 NZ         -8.9103    7.9257   44.7930 N.2       3 LYS4        0.0000 
     59 N          -4.8379   11.7359   37.5716 N.2       1 ALA2        0.0000 
     60 CZ         -5.5685   10.9276   38.6026 C.ar      4 PHE5        0.0000 
     61 DU         -4.2959   10.2094   38.9413 H         6 CUB7        0.0000 
     62 DU         -3.0233    9.4912   39.2800 H         6 CUB7        0.0000 
     63 O          -1.7507    8.7730   39.6187 O.2       1 ALA2        0.0000 
     64 O          -0.4782    8.0548   39.9574 O.2       1 ALA2        0.0000 
     65 CZ         -6.2991   10.1193   39.6336 C.ar      4 PHE5        0.0000 
     66 DU         -5.0265    9.4011   39.9723 H         6 CUB7        0.0000 
     67 DU         -3.7539    8.6829   40.3110 H         6 CUB7        0.0000 
     68 DU         -2.4813    7.9647   40.6497 H         6 CUB7        0.0000 
     69 CA         -1.2087    7.2465   40.9884 C.3       5 GLY6        0.0000 
     70 CZ         -7.0297    9.3110   40.6645 C.ar      4 PHE5        0.0000 
     71 N          -5.7571    8.5928   41.0033 N.2       1 ALA2        0.0000 
     72 N          -4.4845    7.8746   41.3420 N.2       1 ALA2        0.0000 
     73 N          -3.2119    7.1564   41.6807 N.2       1 ALA2        0.0000 
     74 N          -1.9393    6.4382   42.0194 N.2       1 ALA2        0.0000 
     75 CZ         -7.7602    8.5027   41.6955 C.ar      4 PHE5        0.0000 
     76 N          -6.4876    7.7845   42.0342 N.2       1 ALA2        0.0000 
     77 CZ         -9.7634    8.4126   42.3878 C.ar      4 PHE5        0.0000 
     78 CZ         -8.4908    7.6944   42.7265 C.ar      4 PHE5        0.0000 
     79 N          -7.2182    6.9762   43.0652 N.2       1 ALA2        0.0000 
     80 CZ         -9.2214    6.8861   43.7575 C.ar      4 PHE5        0.0000 
     81 CA        -10.7530   15.0471   46.8882 C.3       5 GLY6        0.0000 
     82 CA        -11.4836   14.2388   47.9191 C.3       5 GLY6        0.0000 
     83 O         -11.0641   14.0075   45.8526 O.2       1 ALA2        0.0000 
     84 O          -9.7915   13.2893   46.1913 O.2       1 ALA2        0.0000 
     85 CA        -13.0673   13.9174   46.5449 C.3       5 GLY6        0.0000 
     86 O         -11.7947   13.1992   46.8836 O.2       1 ALA2        0.0000 
     87 O          -9.2495   11.7628   47.5610 O.2       1 ALA2        0.0000 
     88 CA        -15.0704   13.8272   47.2372 C.3       5 GLY6        0.0000 
     89 O         -13.7979   13.1090   47.5759 O.2       1 ALA2        0.0000 
     90 N          -9.3721   13.0580   44.1248 N.2       1 ALA2        0.0000 
     91 N         -12.6478   13.6860   44.4784 N.2       1 ALA2        0.0000 
     92 N         -11.3752   12.9678   44.8171 N.2       1 ALA2        0.0000 
     93 DU        -10.1027   12.2496   45.1558 H         6 CUB7        0.0000 
     94 DU         -8.8301   11.5315   45.4945 H         6 CUB7        0.0000 
     95 DU         -7.5575   10.8133   45.8332 H         6 CUB7        0.0000 
     96 O          -6.2849   10.0951   46.1719 O.2       1 ALA2        0.0000 
     97 CA        -13.3784   12.8777   45.5093 C.3       5 GLY6        0.0000 
     98 O         -12.1058   12.1595   45.8480 O.2       1 ALA2        0.0000 
     99 OD1       -10.8332   11.4413   46.1867 O.3       2 ASP3        0.0000 
    100 O          -9.5606   10.7231   46.5254 O.2       1 ALA2        0.0000 
@<TRIPOS>BOND
@<TRIPOS>SUBSTRUCTURE
     1 ALA2        1 GROUP   
     2 ASP3       99 GROUP   
     3 LYS4       40 GROUP   
     4 PHE5        2 GROUP   
     5 GLY6        7 GROUP   
     6 CUB7        6 GROUP   
@<TRIPOS>SET

