#    Name: 4cb6_29R_1_INTS_M
#    Modification time : Tue Mar 25 09:09:29 2014

@<TRIPOS>MOLECULE
4cb6_29R_1_INTS_M
   42     0     9     0     0
SMALL
NO_CHARGES


@<TRIPOS>ATOM
      1 O          -9.5275    5.4495   44.7910 O.2       1 ALC1        0.0000 
      2 O          -8.6990    5.9930   43.9070 O.2       7 ALL1        0.0000 
      3 O         -10.3560    4.9060   45.6750 O.2       4 ALP1        0.0000 
      4 O          -9.7105    6.4675   45.3565 O.2       1 ALC1        0.0000 
      5 O          -9.0650    8.0290   45.0380 O.2       7 ALL1        0.0000 
      6 O          -9.8280    7.3750   45.9695 O.2       1 ALC1        0.0000 
      7 O         -10.5910    6.7210   46.9010 O.2       4 ALP1        0.0000 
      8 N          -8.7525    2.7015   43.1035 N.am      2 SEC2        0.0000 
      9 N          -8.2670    4.0420   42.8100 N.am      8 SEL2        0.0000 
     10 N          -9.2380    1.3610   43.3970 N.am      5 SEP2        0.0000 
     11 CA         -5.1610    6.0015   42.4320 C.3       3 GLC5        0.0000 
     12 CA         -5.7070    6.6020   40.6410 C.3       9 GLL5        0.0000 
     13 CA         -4.6150    5.4010   44.2230 C.3       6 GLP5        0.0000 
     14 CA         -7.7455   10.1300   39.5345 C.3       3 GLC5        0.0000 
     15 CA         -6.3220    9.9330   40.3890 C.3       9 GLL5        0.0000 
     16 CA         -9.1690   10.3270   38.6800 C.3       6 GLP5        0.0000 
     17 CA         -7.5030    8.2680   39.6025 C.3       3 GLC5        0.0000 
     18 CA         -8.6840    6.6030   38.8160 C.3       6 GLP5        0.0000 
     19 CA         -7.2135   11.4520   39.2435 C.3       3 GLC5        0.0000 
     20 CA         -5.6870   11.3190   40.2260 C.3       9 GLL5        0.0000 
     21 CA         -8.7400   11.5850   38.2610 C.3       6 GLP5        0.0000 
     22 CA         -7.5550   12.4490   40.2250 C.3       3 GLC5        0.0000 
     23 CA         -6.0870   12.1870   41.4140 C.3       9 GLL5        0.0000 
     24 CA         -9.0230   12.7110   39.0360 C.3       6 GLP5        0.0000 
     25 CA         -9.9305   10.8395   42.6660 C.3       3 GLC5        0.0000 
     26 CA         -9.6920   10.3890   44.7060 C.3       9 GLL5        0.0000 
     27 CA        -10.1690   11.2900   40.6260 C.3       6 GLP5        0.0000 
     28 CA        -11.8650   10.3180   44.7125 C.3       3 GLC5        0.0000 
     29 CA        -14.0380   10.2470   44.7190 C.3       6 GLP5        0.0000 
     30 CA        -11.0055    9.3145   43.4975 C.3       3 GLC5        0.0000 
     31 CA        -12.3190    8.2400   42.2890 C.3       6 GLP5        0.0000 
     32 CA        -10.1610   12.1070   42.6500 C.3       3 GLC5        0.0000 
     33 CA        -10.1530   12.9240   44.6740 C.3       9 GLL5        0.0000 
     34 CA         -5.4620    4.7815   42.3875 C.3       3 GLC5        0.0000 
     35 CA         -6.3090    4.1620   40.5520 C.3       9 GLL5        0.0000 
     36 CA         -7.4965    5.3825   39.6840 C.3       3 GLC5        0.0000 
     37 CA         -5.6605    2.4500   40.3515 C.3       3 GLC5        0.0000 
     38 CA         -5.0120    0.7380   40.1510 C.3       6 GLP5        0.0000 
     39 CA         -5.2595    3.7150   38.8255 C.3       3 GLC5        0.0000 
     40 CA         -4.2100    3.2680   37.0990 C.3       6 GLP5        0.0000 
     41 CA         -5.8310    6.0202   43.2192 C.3       3 GLC5        0.0000 
     42 CA         -7.1620    5.9590   42.1320 C.3       9 GLL5        0.0000 
@<TRIPOS>BOND
@<TRIPOS>SUBSTRUCTURE
     1 ALC1        1 GROUP        1 X    ALC  0     ROOT ALC X 1
     2 SEC2        8 GROUP        1 X    SEC  0     **** SEC X 2
     3 GLC5       11 GROUP        1 X    GLC  0     **** GLC X 6
     4 ALP1        3 GROUP        1 Y    ALP  0     ROOT ALP Y 8
     5 SEP2       10 GROUP        1 Y    SEP  0     **** SEP Y 9
     6 GLP5       13 GROUP        1 Y    GLP  0     **** GLP Y 13
     7 ALL1        2 GROUP        1 Z    ALL  0     ROOT ALL Z 15
     8 SEL2        9 GROUP        1 Z    SEL  0     **** SEL Z 16
     9 GLL5       12 GROUP        1 Z    GLL  0     **** GLL Z 20
@<TRIPOS>SET

