#    Name: 4cb6_29R_1_ligand
#    Modification time : Tue Mar 25 09:09:29 2014

@<TRIPOS>MOLECULE
4cb6_29R_1_ligand
   48    49     1     0     0
SMALL
NO_CHARGES


@<TRIPOS>ATOM
      1 N1         -8.6990    5.9930   43.9070 N.am      1 29R1483     0.0000 
      2 C2         -8.4550    7.3510   44.0650 C.2       1 29R1483     0.0000 
      3 N2         -9.0650    8.0290   45.0380 N.pl3     1 29R1483     0.0000 
      4 N3         -7.5860    8.0080   43.2600 N.2       1 29R1483     0.0000 
      5 C4         -6.9320    7.3200   42.2990 C.2       1 29R1483     0.0000 
      6 C5         -7.1620    5.9590   42.1320 C.2       1 29R1483     0.0000 
      7 C6         -8.0490    5.2770   42.9400 C.2       1 29R1483     0.0000 
      8 O6         -8.2670    4.0420   42.8100 O.2       1 29R1483     0.0000 
      9 N7         -6.3990    5.5250   41.1080 N.pl3     1 29R1483     0.0000 
     10 C8         -5.7070    6.6020   40.6410 C.2       1 29R1483     0.0000 
     11 N9         -6.0240    7.6940   41.3870 N.pl3     1 29R1483     0.0000 
     12 C11        -5.5040    9.0640   41.2880 C.3       1 29R1483     0.0000 
     13 C12        -6.3220    9.9330   40.3890 C.3       1 29R1483     0.0000 
     14 C13        -5.6870   11.3190   40.2260 C.3       1 29R1483     0.0000 
     15 C14        -6.0870   12.1870   41.4140 C.3       1 29R1483     0.0000 
     16 C15        -5.6660   13.6240   41.2680 C.2       1 29R1483     0.0000 
     17 O16        -5.0330   13.9430   40.2330 O.co2     1 29R1483     0.0000 
     18 O17        -5.9790   14.4160   42.1990 O.co2     1 29R1483     0.0000 
     19 C31        -8.7260    9.4200   45.3240 C.3       1 29R1483     0.0000 
     20 C32        -9.6920   10.3890   44.7060 C.3       1 29R1483     0.0000 
     21 C33        -9.4490   11.7570   45.3870 C.3       1 29R1483     0.0000 
     22 C34       -10.1530   12.9240   44.6740 C.3       1 29R1483     0.0000 
     23 C35        -9.1760   14.0830   44.6030 C.2       1 29R1483     0.0000 
     24 O36        -8.8030   14.5130   43.4790 O.co2     1 29R1483     0.0000 
     25 O37        -8.7460   14.5660   45.6790 O.co2     1 29R1483     0.0000 
     26 CM7        -6.3090    4.1620   40.5520 C.3       1 29R1483     0.0000 
     27 H          -9.3816    5.5265   44.5323 H         1 29R1483     0.0000 
     28 H          -9.8026    7.6083   45.6344 H         1 29R1483     0.0000 
     29 H          -5.0898    6.5901   39.8982 H         1 29R1483     0.0000 
     30 H          -4.4606    9.0450   40.9158 H         1 29R1483     0.0000 
     31 H          -5.4649    9.5258   42.2943 H         1 29R1483     0.0000 
     32 H          -7.3282   10.0574   40.7998 H         1 29R1483     0.0000 
     33 H          -6.4114    9.4729   39.4006 H         1 29R1483     0.0000 
     34 H          -6.0441   11.7694   39.3114 H         1 29R1483     0.0000 
     35 H          -4.6120   11.2174   40.1970 H         1 29R1483     0.0000 
     36 H          -5.6392   11.7635   42.3276 H         1 29R1483     0.0000 
     37 H          -7.1810   12.1349   41.5372 H         1 29R1483     0.0000 
     38 H          -7.7089    9.6504   44.9527 H         1 29R1483     0.0000 
     39 H          -8.7045    9.5919   46.4174 H         1 29R1483     0.0000 
     40 H         -10.7036   10.0853   44.8948 H         1 29R1483     0.0000 
     41 H          -9.5044   10.4898   43.6545 H         1 29R1483     0.0000 
     42 H          -8.3705   11.9507   45.4119 H         1 29R1483     0.0000 
     43 H          -9.8050   11.7026   46.4222 H         1 29R1483     0.0000 
     44 H         -11.0221   13.2105   45.2407 H         1 29R1483     0.0000 
     45 H         -10.4291   12.6151   43.6806 H         1 29R1483     0.0000 
     46 H          -5.6614    4.1131   39.7916 H         1 29R1483     0.0000 
     47 H          -6.0061    3.5004   41.2379 H         1 29R1483     0.0000 
     48 H          -7.1915    3.8428   40.2065 H         1 29R1483     0.0000 
@<TRIPOS>BOND
     1    2    1 1    
     2    7    1 am   
     3   27    1 1    
     4    3    2 1    
     5    4    2 2    
     6   19    3 1    
     7   28    3 1    
     8    5    4 1    
     9    6    5 2    
    10   11    5 1    
    11    7    6 1    
    12    9    6 1    
    13    8    7 2    
    14   10    9 2    
    15   26    9 1    
    16   11   10 1    
    17   29   10 1    
    18   12   11 1    
    19   13   12 1    
    20   30   12 1    
    21   31   12 1    
    22   14   13 1    
    23   32   13 1    
    24   33   13 1    
    25   15   14 1    
    26   34   14 1    
    27   35   14 1    
    28   16   15 1    
    29   36   15 1    
    30   37   15 1    
    31   17   16 ar   
    32   18   16 ar   
    33   20   19 1    
    34   38   19 1    
    35   39   19 1    
    36   21   20 1    
    37   40   20 1    
    38   41   20 1    
    39   22   21 1    
    40   42   21 1    
    41   43   21 1    
    42   23   22 1    
    43   44   22 1    
    44   45   22 1    
    45   24   23 ar   
    46   25   23 ar   
    47   46   26 1    
    48   47   26 1    
    49   48   26 1    
@<TRIPOS>SUBSTRUCTURE
     1 29R1483     1 GROUP   
@<TRIPOS>SET

