#    Name: 4men_25K_1_INTS_M
#    Modification time : Tue Apr  8 00:17:32 2014

@<TRIPOS>MOLECULE
4men_25K_1_INTS_M
   43     0     6     0     0
SMALL
NO_CHARGES


@<TRIPOS>ATOM
      1 CA         30.8320   20.9380    1.4460 C.3       2 GLC5        0.0000 
      2 CA         31.0820   19.3430    1.8980 C.3       6 GLL5        0.0000 
      3 CA         30.5820   22.5330    0.9940 C.3       4 GLP5        0.0000 
      4 CA         31.6345   17.7220    2.9795 C.3       2 GLC5        0.0000 
      5 CA         32.1870   16.1010    4.0610 C.3       4 GLP5        0.0000 
      6 CA         30.3085   19.5265   -0.1795 C.3       2 GLC5        0.0000 
      7 CA         29.5350   19.7100   -2.2570 C.3       4 GLP5        0.0000 
      8 CA         28.5670   18.2060    0.2905 C.3       2 GLC5        0.0000 
      9 CA         30.1780   17.2880    0.7560 C.3       6 GLL5        0.0000 
     10 CA         26.9560   19.1240   -0.1750 C.3       4 GLP5        0.0000 
     11 CA         31.1825   16.6945    2.4085 C.3       2 GLC5        0.0000 
     12 N          34.6455   17.4190   -1.7395 N.am      1 SEC2        0.0000 
     13 N          33.7880   16.5210   -1.0460 N.am      5 SEL2        0.0000 
     14 N          35.5030   18.3170   -2.4330 N.am      3 SEP2        0.0000 
     15 CA         29.8440   14.1715    0.7055 C.3       2 GLC5        0.0000 
     16 CA         30.3410   16.1250   -0.0540 C.3       6 GLL5        0.0000 
     17 CA         29.3470   12.2180    1.4650 C.3       4 GLP5        0.0000 
     18 CA         27.0825   17.1120    0.8685 C.3       2 GLC5        0.0000 
     19 CA         28.0770   15.4150    0.6790 C.3       6 GLL5        0.0000 
     20 CA         26.0880   18.8090    1.0580 C.3       4 GLP5        0.0000 
     21 CA         28.7120   13.8165    1.0720 C.3       2 GLC5        0.0000 
     22 CA         29.2400   13.3655   -0.0140 C.3       2 GLC5        0.0000 
     23 CA         29.1330   14.5130   -1.4930 C.3       6 GLL5        0.0000 
     24 CA         27.2330   17.5850   -1.3985 C.3       2 GLC5        0.0000 
     25 CA         27.5100   16.0460   -2.6220 C.3       6 GLL5        0.0000 
     26 CA         26.5520   18.2405   -2.4355 C.3       2 GLC5        0.0000 
     27 CA         27.1230   16.8670   -3.6770 C.3       6 GLL5        0.0000 
     28 CA         25.9810   19.6140   -1.1940 C.3       4 GLP5        0.0000 
     29 CA         28.2205   18.6790   -7.4000 C.3       2 GLC5        0.0000 
     30 CA         27.4280   17.9410   -5.8700 C.3       6 GLL5        0.0000 
     31 CA         29.0130   19.4170   -8.9300 C.3       4 GLP5        0.0000 
     32 CA         29.0915   19.2440   -5.4490 C.3       2 GLC5        0.0000 
     33 CA         30.7550   20.5470   -5.0280 C.3       4 GLP5        0.0000 
     34 CA         29.8972   18.2082   -0.9530 C.3       2 GLC5        0.0000 
     35 CA         28.8385   17.7218   -2.4440 C.3       2 GLC5        0.0000 
     36 CA         28.7740   15.4210   -2.6400 C.3       6 GLL5        0.0000 
     37 CA         28.5267   18.3407   -3.2313 C.3       2 GLC5        0.0000 
     38 CA         30.3302   17.6960   -4.2172 C.3       2 GLC5        0.0000 
     39 CA         29.1940   16.4520   -4.7730 C.3       6 GLL5        0.0000 
     40 CA         31.2530   19.3520   -4.1950 C.3       4 GLP5        0.0000 
     41 CA         27.1575   19.4052   -5.0030 C.3       2 GLC5        0.0000 
     42 CA         27.9140   17.0760   -4.7340 C.3       6 GLL5        0.0000 
     43 CA         26.6440   21.3020   -4.7040 C.3       4 GLP5        0.0000 
@<TRIPOS>BOND
@<TRIPOS>SUBSTRUCTURE
     1 SEC2       12 GROUP        1 X    SEC  0     ROOT SEC X 2
     2 GLC5        1 GROUP        1 X    GLC  0     **** GLC X 6
     3 SEP2       14 GROUP        1 Y    SEP  0     ROOT SEP Y 9
     4 GLP5        3 GROUP        1 Y    GLP  0     **** GLP Y 13
     5 SEL2       13 GROUP        1 Z    SEL  0     ROOT SEL Z 16
     6 GLL5        2 GROUP        1 Z    GLL  0     **** GLL Z 20
@<TRIPOS>SET

