#    Name: 4men_25K_1_ligand
#    Modification time : Tue Apr  8 00:17:32 2014

@<TRIPOS>MOLECULE
4men_25K_1_ligand
   37    39     1     0     0
SMALL
NO_CHARGES


@<TRIPOS>ATOM
      1 C10        31.0820   19.3430    1.8980 C.3       1 25K202      0.0000 
      2 C9         31.2970   18.1320    1.0030 C.2       1 25K202      0.0000 
      3 C8         30.1780   17.2880    0.7560 C.2       1 25K202      0.0000 
      4 N1         32.5560   17.9440    0.4690 N.2       1 25K202      0.0000 
      5 C11        32.7020   16.8720   -0.3260 C.2       1 25K202      0.0000 
      6 N4         31.6120   15.9080   -0.6160 N.pl3     1 25K202      0.0000 
      7 N3         32.0700   14.9240   -1.5370 N.2       1 25K202      0.0000 
      8 C12        33.3680   15.3520   -1.7550 C.2       1 25K202      0.0000 
      9 N2         33.7880   16.5210   -1.0460 N.2       1 25K202      0.0000 
     10 C7         30.3410   16.1250   -0.0540 C.2       1 25K202      0.0000 
     11 N          29.2790   15.2550   -0.2050 N.3       1 25K202      0.0000 
     12 C6         28.0770   15.4150    0.6790 C.3       1 25K202      0.0000 
     13 C5         29.1330   14.5130   -1.4930 C.3       1 25K202      0.0000 
     14 C4         28.7740   15.4210   -2.6400 C.ar      1 25K202      0.0000 
     15 C3         27.5100   16.0460   -2.6220 C.ar      1 25K202      0.0000 
     16 C2         27.1230   16.8670   -3.6770 C.ar      1 25K202      0.0000 
     17 C13        29.6210   15.6280   -3.7060 C.ar      1 25K202      0.0000 
     18 C14        29.1940   16.4520   -4.7730 C.ar      1 25K202      0.0000 
     19 C1         27.9140   17.0760   -4.7340 C.ar      1 25K202      0.0000 
     20 C          27.4280   17.9410   -5.8700 C.3       1 25K202      0.0000 
     21 H          29.2721   17.5100    1.1516 H         1 25K202      0.0000 
     22 H          33.9984   14.8824   -2.3733 H         1 25K202      0.0000 
     23 H          28.3541   13.7413   -1.3878 H         1 25K202      0.0000 
     24 H          30.0750   13.9925   -1.7276 H         1 25K202      0.0000 
     25 H          26.8814   15.8902   -1.8271 H         1 25K202      0.0000 
     26 H          26.1795   17.3239   -3.6187 H         1 25K202      0.0000 
     27 H          30.5467   15.2005   -3.7413 H         1 25K202      0.0000 
     28 H          29.8036   16.6035   -5.5785 H         1 25K202      0.0000 
     29 H          31.9225   19.8720    2.0154 H         1 25K202      0.0000 
     30 H          30.3944   19.9647    1.5228 H         1 25K202      0.0000 
     31 H          30.7716   19.0794    2.8113 H         1 25K202      0.0000 
     32 H          28.3120   15.3195    1.6463 H         1 25K202      0.0000 
     33 H          27.6513   16.3130    0.5680 H         1 25K202      0.0000 
     34 H          27.3752   14.7312    0.4790 H         1 25K202      0.0000 
     35 H          28.1112   18.0189   -6.5961 H         1 25K202      0.0000 
     36 H          26.5971   17.5733   -6.2876 H         1 25K202      0.0000 
     37 H          27.2167   18.8698   -5.5655 H         1 25K202      0.0000 
@<TRIPOS>BOND
     1    2    1 1    
     2   29    1 1    
     3   30    1 1    
     4   31    1 1    
     5    3    2 1    
     6    4    2 2    
     7   10    3 2    
     8   21    3 1    
     9    5    4 1    
    10    6    5 1    
    11    9    5 2    
    12    7    6 1    
    13   10    6 1    
    14    8    7 2    
    15    9    8 1    
    16   22    8 1    
    17   11   10 1    
    18   12   11 1    
    19   13   11 1    
    20   32   12 1    
    21   33   12 1    
    22   34   12 1    
    23   14   13 1    
    24   23   13 1    
    25   24   13 1    
    26   15   14 ar   
    27   17   14 ar   
    28   16   15 ar   
    29   25   15 1    
    30   19   16 ar   
    31   26   16 1    
    32   18   17 ar   
    33   27   17 1    
    34   19   18 ar   
    35   28   18 1    
    36   20   19 1    
    37   35   20 1    
    38   36   20 1    
    39   37   20 1    
@<TRIPOS>SUBSTRUCTURE
     1 25K202      1 GROUP   
@<TRIPOS>SET

