#    Name: 3bx5_304_1_INTS_M
#    Modification time : Mon Mar 24 20:10:44 2014

@<TRIPOS>MOLECULE
3bx5_304_1_INTS_M
   83     0     9     0     0
SMALL
NO_CHARGES


@<TRIPOS>ATOM
      1 CA         -5.5260   33.8760   24.7020 C.3       3 GLC5        0.0000 
      2 CA         -3.9560   34.7720   23.4390 C.3       9 GLL5        0.0000 
      3 CA         -7.0960   32.9800   25.9650 C.3       6 GLP5        0.0000 
      4 CA         -6.7570   35.1300   24.0790 C.3       3 GLC5        0.0000 
      5 CA         -5.1100   35.2550   22.8030 C.3       9 GLL5        0.0000 
      6 CA         -8.4040   35.0050   25.3550 C.3       6 GLP5        0.0000 
      7 CA         -4.3630   40.2900   16.6330 C.3       3 GLC5        0.0000 
      8 CA         -2.9960   39.3860   18.0620 C.3       9 GLL5        0.0000 
      9 CA         -5.7300   41.1940   15.2040 C.3       6 GLP5        0.0000 
     10 CA         -1.5795   41.0080   18.0510 C.3       3 GLC5        0.0000 
     11 CA         -0.1630   42.6300   18.0400 C.3       6 GLP5        0.0000 
     12 CA         -0.9675   38.1950   19.0960 C.3       3 GLC5        0.0000 
     13 CA         -2.8280   38.0290   17.9980 C.3       9 GLL5        0.0000 
     14 CA          0.8930   38.3610   20.1940 C.3       6 GLP5        0.0000 
     15 CA         -6.4215   38.0355   19.6635 C.3       3 GLC5        0.0000 
     16 CA         -6.3040   36.6290   21.0810 C.3       9 GLL5        0.0000 
     17 CA         -6.5390   39.4420   18.2460 C.3       6 GLP5        0.0000 
     18 CA         -8.3740   36.9260   20.2780 C.3       3 GLC5        0.0000 
     19 CA        -10.4440   37.2230   19.4750 C.3       6 GLP5        0.0000 
     20 CA          0.5000   37.1570   14.6895 C.3       3 GLC5        0.0000 
     21 CA          0.7640   39.1240   14.9160 C.3       9 GLL5        0.0000 
     22 CA          0.2360   35.1900   14.4630 C.3       6 GLP5        0.0000 
     23 CA          0.3090   40.9375   15.7255 C.3       3 GLC5        0.0000 
     24 CA         -0.1460   42.7510   16.5350 C.3       6 GLP5        0.0000 
     25 CA          1.3230   40.3400   13.1430 C.3       3 GLC5        0.0000 
     26 CA          1.8820   41.5560   11.3700 C.3       6 GLP5        0.0000 
     27 CA          1.5700   39.8110   16.0725 C.3       3 GLC5        0.0000 
     28 CA          2.3760   40.4980   17.2290 C.3       6 GLP5        0.0000 
     29 CA          1.2035   37.8920   16.7080 C.3       3 GLC5        0.0000 
     30 CA          1.6430   36.6600   18.5000 C.3       6 GLP5        0.0000 
     31 CA         -4.1625   38.2030   11.7725 C.3       3 GLC5        0.0000 
     32 CA         -2.1660   38.4070   12.5310 C.3       9 GLL5        0.0000 
     33 CA         -6.1590   37.9990   11.0140 C.3       6 GLP5        0.0000 
     34 CA         -2.1330   32.2785   26.3220 C.3       3 GLC5        0.0000 
     35 CA         -0.4420   33.2660   25.4660 C.3       9 GLL5        0.0000 
     36 CA         -3.8240   31.2910   27.1780 C.3       6 GLP5        0.0000 
     37 CA         -1.3255   34.9740   26.2870 C.3       3 GLC5        0.0000 
     38 CA         -2.2090   36.6820   27.1080 C.3       6 GLP5        0.0000 
     39 CA          0.8815   33.0365   24.2925 C.3       3 GLC5        0.0000 
     40 CA          2.2050   32.8070   23.1190 C.3       6 GLP5        0.0000 
     41 CA          0.5505   34.8530   26.5290 C.3       3 GLC5        0.0000 
     42 CA          1.5430   36.4400   27.5920 C.3       6 GLP5        0.0000 
     43 CA         -0.3530   31.2735   25.1475 C.3       3 GLC5        0.0000 
     44 CA         -0.2640   29.2810   24.8290 C.3       6 GLP5        0.0000 
     45 N          -2.6995   41.5535   16.6850 N.am      2 SEC2        0.0000 
     46 N          -2.7830   40.0720   16.8930 N.am      8 SEL2        0.0000 
     47 N          -2.6160   43.0350   16.4770 N.am      5 SEP2        0.0000 
     48 O          -4.1600   38.5860   20.9050 O.2       1 ALC1        0.0000 
     49 O          -3.6010   37.4070   20.1650 O.2       7 ALL1        0.0000 
     50 O          -4.7190   39.7650   21.6450 O.2       4 ALP1        0.0000 
     51 O          -2.0760   41.0655   14.2860 O.2       1 ALC1        0.0000 
     52 O          -2.1910   39.7250   14.6500 O.2       7 ALL1        0.0000 
     53 O          -1.9610   42.4060   13.9220 O.2       4 ALP1        0.0000 
     54 O          -2.5380   32.6630   24.7045 O.2       1 ALC1        0.0000 
     55 O          -1.5220   33.6100   24.5640 O.2       7 ALL1        0.0000 
     56 O          -3.5540   31.7160   24.8450 O.2       4 ALP1        0.0000 
     57 N           0.9090   34.7210   23.1675 N.am      2 SEC2        0.0000 
     58 N          -0.3440   35.1940   23.4060 N.am      8 SEL2        0.0000 
     59 N           2.1620   34.2480   22.9290 N.am      5 SEP2        0.0000 
     60 CA         -2.3450   35.3805   16.4240 C.3       3 GLC5        0.0000 
     61 CA         -2.3850   37.5820   16.4130 C.3       9 GLL5        0.0000 
     62 CA         -2.3050   33.1790   16.4350 C.3       6 GLP5        0.0000 
     63 CA         -5.4290   33.4002   22.4775 C.3       3 GLC5        0.0000 
     64 CA         -6.3250   31.7870   21.8340 C.3       6 GLP5        0.0000 
     65 CA         -4.6430   37.0643   23.5640 C.3       3 GLC5        0.0000 
     66 CA         -4.7530   39.1150   24.0070 C.3       6 GLP5        0.0000 
     67 CA         -1.3458   36.9567   23.4390 C.3       3 GLC5        0.0000 
     68 CA         -2.6850   35.1400   23.0000 C.3       9 GLL5        0.0000 
     69 CA         -0.0530   38.3320   24.4220 C.3       6 GLP5        0.0000 
     70 CA         -3.9613   37.6915   22.7970 C.3       3 GLC5        0.0000 
     71 CA         -2.5920   36.0230   21.9120 C.3       9 GLL5        0.0000 
     72 CA         -4.7255   39.0748   18.1380 C.3       3 GLC5        0.0000 
     73 CA         -3.8145   35.0139   24.9892 C.3       3 GLC5        0.0000 
     74 CA         -4.0200   34.9510   26.9180 C.3       6 GLP5        0.0000 
     75 CA         -6.7775   34.9355   21.1217 C.3       3 GLC5        0.0000 
     76 CA         -5.0320   36.1310   21.7100 C.3       9 GLL5        0.0000 
     77 CA         -7.8870   33.4910   20.8480 C.3       6 GLP5        0.0000 
     78 CA         -5.2105   37.7475   22.7013 C.3       3 GLC5        0.0000 
     79 CA          2.0905   38.2005   13.8272 C.3       3 GLC5        0.0000 
     80 CA         -0.2700   38.2900   14.1850 C.3       9 GLL5        0.0000 
     81 CA          3.9340   37.6940   13.1040 C.3       6 GLP5        0.0000 
     82 CA         -0.7435   36.9975   13.4637 C.3       3 GLC5        0.0000 
     83 CA         -0.4730   35.4560   13.3060 C.3       6 GLP5        0.0000 
@<TRIPOS>BOND
@<TRIPOS>SUBSTRUCTURE
     1 ALC1       48 GROUP        1 X    ALC  0     ROOT ALC X 1
     2 SEC2       45 GROUP        1 X    SEC  0     **** SEC X 2
     3 GLC5        1 GROUP        1 X    GLC  0     **** GLC X 6
     4 ALP1       50 GROUP        1 Y    ALP  0     ROOT ALP Y 8
     5 SEP2       47 GROUP        1 Y    SEP  0     **** SEP Y 9
     6 GLP5        3 GROUP        1 Y    GLP  0     **** GLP Y 13
     7 ALL1       49 GROUP        1 Z    ALL  0     ROOT ALL Z 15
     8 SEL2       46 GROUP        1 Z    SEL  0     **** SEL Z 16
     9 GLL5        2 GROUP        1 Z    GLL  0     **** GLL Z 20
@<TRIPOS>SET

