#    Name: 3bx5_304_1_ligand
#    Modification time : Mon Mar 24 20:10:44 2014

@<TRIPOS>MOLECULE
3bx5_304_1_ligand
   46    47     1     0     0
SMALL
NO_CHARGES


@<TRIPOS>ATOM
      1 C1         -3.9560   34.7720   23.4390 C.ar      1 304501      0.0000 
      2 C2         -5.1100   35.2550   22.8030 C.ar      1 304501      0.0000 
      3 C3         -2.5920   36.0230   21.9120 C.ar      1 304501      0.0000 
      4 C4         -2.9960   39.3860   18.0620 C.2       1 304501      0.0000 
      5 C5         -2.6850   35.1400   23.0000 C.ar      1 304501      0.0000 
      6 C6         -5.0320   36.1310   21.7100 C.ar      1 304501      0.0000 
      7 C7         -3.7470   36.5130   21.2620 C.ar      1 304501      0.0000 
      8 C8         -2.8280   38.0290   17.9980 C.2       1 304501      0.0000 
      9 C9         -2.4400   39.2510   15.9130 C.2       1 304501      0.0000 
     10 C10        -1.4200   34.6560   23.6620 C.2       1 304501      0.0000 
     11 C11        -2.9530   37.0090   19.0050 C.2       1 304501      0.0000 
     12 C12        -6.3040   36.6290   21.0810 C.3       1 304501      0.0000 
     13 C13         0.7640   39.1240   14.9160 C.3       1 304501      0.0000 
     14 C14        -2.1660   38.4070   12.5310 C.3       1 304501      0.0000 
     15 C15        -0.4420   33.2660   25.4660 C.3       1 304501      0.0000 
     16 C16        -0.2700   38.2900   14.1850 C.3       1 304501      0.0000 
     17 C17        -1.3500   39.1690   13.5850 C.3       1 304501      0.0000 
     18 N18        -2.7830   40.0720   16.8930 N.2       1 304501      0.0000 
     19 N19        -3.6010   37.4070   20.1650 N.am      1 304501      0.0000 
     20 N20        -2.1910   39.7250   14.6500 N.pl3     1 304501      0.0000 
     21 N21        -1.5220   33.6100   24.5640 N.am      1 304501      0.0000 
     22 O22        -0.3440   35.1940   23.4060 O.2       1 304501      0.0000 
     23 O23        -2.5090   35.8740   18.8350 O.2       1 304501      0.0000 
     24 S24        -2.3850   37.5820   16.4130 S.3       1 304501      0.0000 
     25 H          -4.0542   34.1335   24.2453 H         1 304501      0.0000 
     26 H          -6.0391   34.9582   23.1481 H         1 304501      0.0000 
     27 H          -1.6629   36.3224   21.5775 H         1 304501      0.0000 
     28 H          -3.2597   39.8536   18.9139 H         1 304501      0.0000 
     29 H          -0.7246   37.5843   14.8831 H         1 304501      0.0000 
     30 H           0.2187   37.7238   13.3896 H         1 304501      0.0000 
     31 H          -0.8399   39.9978   13.0641 H         1 304501      0.0000 
     32 H          -3.9865   38.3580   20.2484 H         1 304501      0.0000 
     33 H          -2.6791   40.6585   14.3619 H         1 304501      0.0000 
     34 H          -2.3842   33.0411   24.6160 H         1 304501      0.0000 
     35 H          -6.1228   37.2473   20.3162 H         1 304501      0.0000 
     36 H          -6.8611   35.8785   20.7255 H         1 304501      0.0000 
     37 H          -6.8704   37.1302   21.7352 H         1 304501      0.0000 
     38 H           1.4851   38.5566   15.3136 H         1 304501      0.0000 
     39 H           1.2096   39.7803   14.3072 H         1 304501      0.0000 
     40 H           0.3571   39.6479   15.6643 H         1 304501      0.0000 
     41 H          -1.5912   38.0815   11.7803 H         1 304501      0.0000 
     42 H          -2.6203   37.6060   12.9208 H         1 304501      0.0000 
     43 H          -2.8787   38.9805   12.1271 H         1 304501      0.0000 
     44 H           0.3918   33.0219   24.9709 H         1 304501      0.0000 
     45 H          -0.2101   34.0251   26.0743 H         1 304501      0.0000 
     46 H          -0.6770   32.4865   26.0466 H         1 304501      0.0000 
@<TRIPOS>BOND
     1    2    1 ar   
     2    5    1 ar   
     3   25    1 1    
     4    6    2 ar   
     5   26    2 1    
     6    5    3 ar   
     7    7    3 ar   
     8   27    3 1    
     9    8    4 2    
    10   18    4 1    
    11   28    4 1    
    12   10    5 1    
    13    7    6 ar   
    14   12    6 1    
    15   19    7 1    
    16   11    8 1    
    17   24    8 1    
    18   18    9 2    
    19   20    9 1    
    20   24    9 1    
    21   21   10 am   
    22   22   10 2    
    23   19   11 am   
    24   23   11 2    
    25   35   12 1    
    26   36   12 1    
    27   37   12 1    
    28   16   13 1    
    29   38   13 1    
    30   39   13 1    
    31   40   13 1    
    32   17   14 1    
    33   41   14 1    
    34   42   14 1    
    35   43   14 1    
    36   21   15 1    
    37   44   15 1    
    38   45   15 1    
    39   46   15 1    
    40   17   16 1    
    41   29   16 1    
    42   30   16 1    
    43   20   17 1    
    44   31   17 1    
    45   32   19 1    
    46   33   20 1    
    47   34   21 1    
@<TRIPOS>SUBSTRUCTURE
     1 304501      1 GROUP   
@<TRIPOS>SET

