#    Name: 3bqz_MGR_3_INTS_M
#    Modification time : Mon Mar 24 19:58:26 2014

@<TRIPOS>MOLECULE
3bqz_MGR_3_INTS_M
   57     0     3     0     0
SMALL
NO_CHARGES


@<TRIPOS>ATOM
      1 CA         13.6960   82.6595   -2.1620 C.3       1 GLC5        0.0000 
      2 CA         12.8690   81.6170   -3.8390 C.3       3 GLL5        0.0000 
      3 CA         14.5230   83.7020   -0.4850 C.3       2 GLP5        0.0000 
      4 CA         10.9110   81.1795   -7.3715 C.3       1 GLC5        0.0000 
      5 CA         12.6210   82.0300   -8.3890 C.3       3 GLL5        0.0000 
      6 CA          9.2010   80.3290   -6.3540 C.3       2 GLP5        0.0000 
      7 CA         10.1690   82.3525   -9.1630 C.3       1 GLC5        0.0000 
      8 CA         12.1370   82.8840   -9.3830 C.3       3 GLL5        0.0000 
      9 CA          8.2010   81.8210   -8.9430 C.3       2 GLP5        0.0000 
     10 CA         17.8800   78.6775  -10.7845 C.3       1 GLC5        0.0000 
     11 CA         17.1530   78.5600   -8.7840 C.3       3 GLL5        0.0000 
     12 CA         18.6070   78.7950  -12.7850 C.3       2 GLP5        0.0000 
     13 CA         18.2970   77.6420   -4.7055 C.3       1 GLC5        0.0000 
     14 CA         17.5760   78.6940   -6.4230 C.3       3 GLL5        0.0000 
     15 CA         19.0180   76.5900   -2.9880 C.3       2 GLP5        0.0000 
     16 CA         13.8125   85.3250  -14.0530 C.3       1 GLC5        0.0000 
     17 CA         13.4450   84.8450  -12.3260 C.3       3 GLL5        0.0000 
     18 CA         14.1800   85.8050  -15.7800 C.3       2 GLP5        0.0000 
     19 CA         12.7275   86.6840  -12.8680 C.3       1 GLC5        0.0000 
     20 CA         12.0100   88.5230  -13.4100 C.3       2 GLP5        0.0000 
     21 CA         13.5090   85.6105  -10.4155 C.3       1 GLC5        0.0000 
     22 CA         13.5730   86.3760   -8.5050 C.3       2 GLP5        0.0000 
     23 CA         14.7060   83.1560  -12.7415 C.3       1 GLC5        0.0000 
     24 CA         15.9670   81.4670  -13.1570 C.3       2 GLP5        0.0000 
     25 CA         11.5670   86.5950  -12.4095 C.3       1 GLC5        0.0000 
     26 CA         11.1240   84.6670  -11.4090 C.3       3 GLL5        0.0000 
     27 CA         12.3485   85.5215   -9.9570 C.3       1 GLC5        0.0000 
     28 CA          9.5325   85.1430  -11.0345 C.3       1 GLC5        0.0000 
     29 CA          7.9410   85.6190  -10.6600 C.3       2 GLP5        0.0000 
     30 CA         19.4275   76.8150   -4.8545 C.3       1 GLC5        0.0000 
     31 CA         19.8370   77.0400   -6.7210 C.3       3 GLL5        0.0000 
     32 CA         21.2550   77.9160   -8.1660 C.3       1 GLC5        0.0000 
     33 CA         22.6730   78.7920   -9.6110 C.3       2 GLP5        0.0000 
     34 CA         21.2535   78.0670   -5.9475 C.3       1 GLC5        0.0000 
     35 CA         22.6700   79.0940   -5.1740 C.3       2 GLP5        0.0000 
     36 CA         17.9490   75.6745   -9.3975 C.3       1 GLC5        0.0000 
     37 CA         19.3920   76.9050   -9.1690 C.3       3 GLL5        0.0000 
     38 CA         16.5060   74.4440   -9.6260 C.3       2 GLP5        0.0000 
     39 CA         18.9995   77.8500  -10.9770 C.3       1 GLC5        0.0000 
     40 CA         20.5730   76.0965  -10.1965 C.3       1 GLC5        0.0000 
     41 CA         21.7540   75.2880  -11.2240 C.3       2 GLP5        0.0000 
     42 CA         21.0325   77.8485   -9.3900 C.3       1 GLC5        0.0000 
     43 CA         11.1650   78.4002   -3.3680 C.3       1 GLC5        0.0000 
     44 CA         12.3240   79.3720   -4.5080 C.3       3 GLL5        0.0000 
     45 CA         10.0610   76.9090   -2.6860 C.3       2 GLP5        0.0000 
     46 CA         10.8306   80.1333   -5.3466 C.3       1 GLC5        0.0000 
     47 CA         12.2140   80.4110   -3.5920 C.3       3 GLL5        0.0000 
     48 CA         10.9982   82.1170   -2.9318 C.3       1 GLC5        0.0000 
     49 CA          9.4550   83.2200   -2.1480 C.3       2 GLP5        0.0000 
     50 CA         12.9760   84.4165   -8.6955 C.3       1 GLC5        0.0000 
     51 CA         13.9089   84.5690   -9.1560 C.3       1 GLC5        0.0000 
     52 CA         12.9900   83.4370  -10.3490 C.3       3 GLL5        0.0000 
     53 CA         16.0635   76.9885   -8.6472 C.3       1 GLC5        0.0000 
     54 CA         16.0490   79.3700   -8.6050 C.3       3 GLL5        0.0000 
     55 CA         15.5260   75.0120   -8.6000 C.3       2 GLP5        0.0000 
     56 CA         17.8541   80.6860   -6.2030 C.3       1 GLC5        0.0000 
     57 CA         18.8740   82.1710   -5.7940 C.3       2 GLP5        0.0000 
@<TRIPOS>BOND
@<TRIPOS>SUBSTRUCTURE
     1 GLC5        1 GROUP        1 X    GLC  0     ROOT GLC X 6
     2 GLP5        3 GROUP        1 Y    GLP  0     ROOT GLP Y 13
     3 GLL5        2 GROUP        1 Z    GLL  0     ROOT GLL Z 20
@<TRIPOS>SET

