#    Name: 3bqz_MGR_3_ligand
#    Modification time : Mon Mar 24 19:58:26 2014

@<TRIPOS>MOLECULE
3bqz_MGR_3_ligand
   50    52     1     0     0
SMALL
NO_CHARGES


@<TRIPOS>ATOM
      1 C1         14.5140   80.7770   -7.2370 C.2       1 MGR200      0.0000 
      2 C2         13.7670   80.7610   -5.9160 C.ar      1 MGR200      0.0000 
      3 C3         13.0890   79.5560   -5.6650 C.ar      1 MGR200      0.0000 
      4 C4         12.3240   79.3720   -4.5080 C.ar      1 MGR200      0.0000 
      5 C5         12.2140   80.4110   -3.5920 C.ar      1 MGR200      0.0000 
      6 C6         12.8690   81.6170   -3.8390 C.ar      1 MGR200      0.0000 
      7 C7         13.6280   81.8000   -5.0010 C.ar      1 MGR200      0.0000 
      8 C8         13.9680   81.6740   -8.3410 C.ar      1 MGR200      0.0000 
      9 C9         12.6210   82.0300   -8.3890 C.ar      1 MGR200      0.0000 
     10 C10        12.1370   82.8840   -9.3830 C.ar      1 MGR200      0.0000 
     11 C11        12.9900   83.4370  -10.3490 C.ar      1 MGR200      0.0000 
     12 C12        14.3470   83.1050  -10.2870 C.ar      1 MGR200      0.0000 
     13 C13        14.8210   82.2530   -9.2960 C.ar      1 MGR200      0.0000 
     14 C14        15.7180   79.9030   -7.3540 C.2       1 MGR200      0.0000 
     15 C15        16.0490   79.3700   -8.6050 C.2       1 MGR200      0.0000 
     16 C16        17.1530   78.5600   -8.7840 C.2       1 MGR200      0.0000 
     17 C17        17.9270   78.2120   -7.6850 C.2       1 MGR200      0.0000 
     18 C18        17.5760   78.6940   -6.4230 C.2       1 MGR200      0.0000 
     19 C19        16.4670   79.5130   -6.2480 C.2       1 MGR200      0.0000 
     20 C22        13.4450   84.8450  -12.3260 C.3       1 MGR200      0.0000 
     21 C23        11.1240   84.6670  -11.4090 C.3       1 MGR200      0.0000 
     22 C24        19.8370   77.0400   -6.7210 C.3       1 MGR200      0.0000 
     23 C25        19.3920   76.9050   -9.1690 C.3       1 MGR200      0.0000 
     24 N2         12.5310   84.2880  -11.3240 N.pl3     1 MGR200      0.0000 
     25 N3         19.0130   77.4170   -7.8590 N.2       1 MGR200      0.0000 
     26 H          13.1589   78.7866   -6.3551 H         1 MGR200      0.0000 
     27 H          11.8523   78.4802   -4.3422 H         1 MGR200      0.0000 
     28 H          11.6563   80.2941   -2.7407 H         1 MGR200      0.0000 
     29 H          12.7945   82.3883   -3.1559 H         1 MGR200      0.0000 
     30 H          14.0821   82.7053   -5.1752 H         1 MGR200      0.0000 
     31 H          11.9691   81.6569   -7.6786 H         1 MGR200      0.0000 
     32 H          11.1285   83.1147   -9.4090 H         1 MGR200      0.0000 
     33 H          14.9981   83.4970  -10.9833 H         1 MGR200      0.0000 
     34 H          15.8368   82.0334   -9.2547 H         1 MGR200      0.0000 
     35 H          15.4401   79.5954   -9.4196 H         1 MGR200      0.0000 
     36 H          17.4017   78.2171   -9.7181 H         1 MGR200      0.0000 
     37 H          18.1544   78.4350   -5.6034 H         1 MGR200      0.0000 
     38 H          16.2013   79.8288   -5.3089 H         1 MGR200      0.0000 
     39 H          14.1714   85.3882  -11.9049 H         1 MGR200      0.0000 
     40 H          13.8891   84.1278  -12.8630 H         1 MGR200      0.0000 
     41 H          12.9691   85.4423  -12.9715 H         1 MGR200      0.0000 
     42 H          10.8127   85.1279  -10.5779 H         1 MGR200      0.0000 
     43 H          10.9528   85.2907  -12.1717 H         1 MGR200      0.0000 
     44 H          10.5325   83.8717  -11.5422 H         1 MGR200      0.0000 
     45 H          20.6016   76.4558   -6.9934 H         1 MGR200      0.0000 
     46 H          20.2272   77.8393   -6.2640 H         1 MGR200      0.0000 
     47 H          19.3134   76.5361   -6.0340 H         1 MGR200      0.0000 
     48 H          19.5870   77.6437   -9.8142 H         1 MGR200      0.0000 
     49 H          20.2111   76.3333   -9.1216 H         1 MGR200      0.0000 
     50 H          18.6677   76.3464   -9.5732 H         1 MGR200      0.0000 
@<TRIPOS>BOND
     1    2    1 1    
     2    8    1 1    
     3   14    1 2    
     4    3    2 ar   
     5    7    2 ar   
     6    4    3 ar   
     7   26    3 1    
     8    5    4 ar   
     9   27    4 1    
    10    6    5 ar   
    11   28    5 1    
    12    7    6 ar   
    13   29    6 1    
    14   30    7 1    
    15    9    8 ar   
    16   13    8 ar   
    17   10    9 ar   
    18   31    9 1    
    19   11   10 ar   
    20   32   10 1    
    21   12   11 ar   
    22   24   11 1    
    23   13   12 ar   
    24   33   12 1    
    25   34   13 1    
    26   15   14 1    
    27   19   14 1    
    28   16   15 2    
    29   35   15 1    
    30   17   16 1    
    31   36   16 1    
    32   18   17 1    
    33   25   17 2    
    34   19   18 2    
    35   37   18 1    
    36   38   19 1    
    37   24   20 1    
    38   39   20 1    
    39   40   20 1    
    40   41   20 1    
    41   24   21 1    
    42   42   21 1    
    43   43   21 1    
    44   44   21 1    
    45   25   22 1    
    46   45   22 1    
    47   46   22 1    
    48   47   22 1    
    49   25   23 1    
    50   48   23 1    
    51   49   23 1    
    52   50   23 1    
@<TRIPOS>SUBSTRUCTURE
     1 MGR200      1 GROUP   
@<TRIPOS>SET

