#    Name: 1k8c_NAP_1_INTS_M
#    Modification time : Tue Mar 25 09:42:26 2014

@<TRIPOS>MOLECULE
1k8c_NAP_1_INTS_M
   78     0    12     0     0
SMALL
NO_CHARGES


@<TRIPOS>ATOM
      1 N          30.2920   23.2740   70.2010 N.am      2 SEC2        0.0000 
      2 N          28.9600   23.4300   69.7740 N.am     10 SEL2        0.0000 
      3 N          31.6240   23.1180   70.6280 N.am      6 SEP2        0.0000 
      4 CA         25.0385   19.7505   67.2155 C.3       4 GLC5        0.0000 
      5 CA         26.5910   19.7310   68.8130 C.3      12 GLL5        0.0000 
      6 CA         23.4860   19.7700   65.6180 C.3       8 GLP5        0.0000 
      7 N          32.7550   19.7745   67.4970 N.am      2 SEC2        0.0000 
      8 N          31.4160   19.0250   67.2050 N.am     10 SEL2        0.0000 
      9 N          34.0940   20.5240   67.7890 N.am      6 SEP2        0.0000 
     10 CA         31.6080   18.3935   63.3970 C.3       4 GLC5        0.0000 
     11 CA         31.7880   17.6950   65.0860 C.3      12 GLL5        0.0000 
     12 CA         31.4280   19.0920   61.7080 C.3       8 GLP5        0.0000 
     13 O          33.7495   19.2595   65.1395 O.2       1 ALC1        0.0000 
     14 O          33.0160   18.0950   64.7090 O.2       9 ALL1        0.0000 
     15 O          34.4830   20.4240   65.5700 O.2       5 ALP1        0.0000 
     16 CA         30.6560   17.6745   63.1245 C.3       4 GLC5        0.0000 
     17 CA         29.8840   16.2570   64.5410 C.3      12 GLL5        0.0000 
     18 CA         31.0050   15.5915   65.9515 C.3       4 GLC5        0.0000 
     19 CA         32.1260   14.9260   67.3620 C.3       8 GLP5        0.0000 
     20 N          23.9610   24.1375   71.1030 N.am      2 SEC2        0.0000 
     21 N          25.1400   24.0000   71.6640 N.am     10 SEL2        0.0000 
     22 N          22.7820   24.2750   70.5420 N.am      6 SEP2        0.0000 
     23 CA         29.8295   28.7305   71.1960 C.3       4 GLC5        0.0000 
     24 CA         28.4390   27.5300   72.0100 C.3      12 GLL5        0.0000 
     25 CA         31.2200   29.9310   70.3820 C.3       8 GLP5        0.0000 
     26 N          28.7230   26.1055   75.7570 N.am      2 SEC2        0.0000 
     27 N          28.8180   26.1740   74.1320 N.am     10 SEL2        0.0000 
     28 N          28.6280   26.0370   77.3820 N.am      6 SEP2        0.0000 
     29 CA         27.3525   29.3105   75.9555 C.3       4 GLC5        0.0000 
     30 CA         28.1110   28.5500   74.2100 C.3      12 GLL5        0.0000 
     31 CA         26.5940   30.0710   77.7010 C.3       8 GLP5        0.0000 
     32 N          30.2925   27.6975   75.6545 N.am      2 SEC2        0.0000 
     33 N          29.3830   28.8290   74.7590 N.am     10 SEL2        0.0000 
     34 N          31.2020   26.5660   76.5500 N.am      6 SEP2        0.0000 
     35 O          29.7660   30.1745   74.8655 O.2       1 ALC1        0.0000 
     36 O          29.3830   28.8290   74.7590 O.2       9 ALL1        0.0000 
     37 O          30.1490   31.5200   74.9720 O.2       5 ALP1        0.0000 
     38 CA         27.2150   30.1985   71.3560 C.3       4 GLC5        0.0000 
     39 CA         27.7670   29.5380   73.1520 C.3      12 GLL5        0.0000 
     40 CA         26.6630   30.8590   69.5600 C.3       8 GLP5        0.0000 
     41 CA         26.9045   32.7620   74.5615 C.3       4 GLC5        0.0000 
     42 CA         25.9510   31.2970   73.2980 C.3      12 GLL5        0.0000 
     43 CA         27.8580   34.2270   75.8250 C.3       8 GLP5        0.0000 
     44 N          22.3875   34.6460   73.3290 N.am      2 SEC2        0.0000 
     45 N          23.0370   33.3290   73.4920 N.am     10 SEL2        0.0000 
     46 N          21.7380   35.9630   73.1660 N.am      6 SEP2        0.0000 
     47 O          25.0570   35.3885   73.3140 O.2       1 ALC1        0.0000 
     48 O          25.1260   34.0070   73.7380 O.2       9 ALL1        0.0000 
     49 O          24.9880   36.7700   72.8900 O.2       5 ALP1        0.0000 
     50 O          26.5235   33.7715   73.2225 O.2       1 ALC1        0.0000 
     51 O          27.9210   33.5360   72.7070 O.2       5 ALP1        0.0000 
     52 NZ         29.8365   14.9270   68.8185 N.4       3 LYC4        0.0000 
     53 NZ         30.1870   15.7440   69.8370 N.4      11 LYL4        0.0000 
     54 NZ         30.1310   13.6340   66.7450 N.4       7 LYP4        0.0000 
     55 N          31.4715   16.2045   70.1205 N.am      2 SEC2        0.0000 
     56 N          30.1870   15.7440   69.8370 N.am     10 SEL2        0.0000 
     57 N          32.7560   16.6650   70.4040 N.am      6 SEP2        0.0000 
     58 N          29.8365   14.9270   68.8185 N.am      2 SEC2        0.0000 
     59 N          29.4860   14.1100   67.8000 N.am      6 SEP2        0.0000 
     60 N          30.7235   16.7435   72.7775 N.am      2 SEC2        0.0000 
     61 N          29.5650   16.6520   72.1390 N.am     10 SEL2        0.0000 
     62 N          31.8820   16.8350   73.4160 N.am      6 SEP2        0.0000 
     63 CA         27.6425   21.0823   67.0115 C.3       4 GLC5        0.0000 
     64 CA         28.3170   21.7840   65.4210 C.3       8 GLP5        0.0000 
     65 CA         31.3652   16.3377   66.7091 C.3       4 GLC5        0.0000 
     66 CA         31.0660   18.1190   66.2170 C.3      12 GLL5        0.0000 
     67 CA         27.3703   29.0132   70.5065 C.3       4 GLC5        0.0000 
     68 CA         27.7160   26.8050   70.8960 C.3      12 GLL5        0.0000 
     69 CA         27.2047   27.1650   75.2372 C.3       4 GLC5        0.0000 
     70 CA         28.0340   27.1960   73.5070 C.3      12 GLL5        0.0000 
     71 CA         26.3370   26.4570   76.6160 C.3       8 GLP5        0.0000 
     72 CA         30.0399   27.3068   73.8561 C.3       4 GLC5        0.0000 
     73 CA         31.9060   26.6570   74.2280 C.3       8 GLP5        0.0000 
     74 CA         29.2740   29.9540   72.5560 C.3       4 GLC5        0.0000 
     75 CA         30.6090   30.8640   71.4310 C.3       8 GLP5        0.0000 
     76 CA         25.9688   31.1630   71.4205 C.3       4 GLC5        0.0000 
     77 CA         25.6495   29.9917   71.1803 C.3       4 GLC5        0.0000 
     78 CA         25.3240   28.9390   72.8160 C.3      12 GLL5        0.0000 
@<TRIPOS>BOND
@<TRIPOS>SUBSTRUCTURE
     1 ALC1       13 GROUP        1 X    ALC  0     ROOT ALC X 1
     2 SEC2        1 GROUP        1 X    SEC  0     **** SEC X 2
     3 LYC4       52 GROUP        1 X    LYC  0     **** LYC X 4
     4 GLC5        4 GROUP        1 X    GLC  0     **** GLC X 6
     5 ALP1       15 GROUP        1 Y    ALP  0     ROOT ALP Y 8
     6 SEP2        3 GROUP        1 Y    SEP  0     **** SEP Y 9
     7 LYP4       54 GROUP        1 Y    LYP  0     **** LYP Y 11
     8 GLP5        6 GROUP        1 Y    GLP  0     **** GLP Y 13
     9 ALL1       14 GROUP        1 Z    ALL  0     ROOT ALL Z 15
    10 SEL2        2 GROUP        1 Z    SEL  0     **** SEL Z 16
    11 LYL4       53 GROUP        1 Z    LYL  0     **** LYL Z 18
    12 GLL5        5 GROUP        1 Z    GLL  0     **** GLL Z 20
@<TRIPOS>SET

