#    Name: 1k8c_NAP_1_ligand
#    Modification time : Tue Mar 25 09:42:26 2014

@<TRIPOS>MOLECULE
1k8c_NAP_1_ligand
   72    76     1     0     0
SMALL
NO_CHARGES


@<TRIPOS>ATOM
      1 PA         27.6570   23.4960   69.0140 P.3       1 NAP1350     0.0000 
      2 O1A        27.4940   23.8820   67.6650 O.co2     1 NAP1350     0.0000 
      3 O2A        28.9600   23.4300   69.7740 O.co2     1 NAP1350     0.0000 
      4 O5B        26.9760   22.0590   69.2850 O.3       1 NAP1350     0.0000 
      5 C5B        27.3450   21.0300   68.3910 C.3       1 NAP1350     0.0000 
      6 C4B        26.5910   19.7310   68.8130 C.3       1 NAP1350     0.0000 
      7 O4B        27.1580   18.8960   67.7540 O.3       1 NAP1350     0.0000 
      8 C3B        27.1160   19.1150   70.1180 C.3       1 NAP1350     0.0000 
      9 O3B        25.9560   18.5480   70.7050 O.3       1 NAP1350     0.0000 
     10 C2B        28.1130   18.0380   69.7500 C.3       1 NAP1350     0.0000 
     11 O2B        27.9050   16.7720   70.3710 O.3       1 NAP1350     0.0000 
     12 C1B        28.0420   17.9020   68.1890 C.3       1 NAP1350     0.0000 
     13 N9A        29.3470   18.1790   67.6000 N.pl3     1 NAP1350     0.0000 
     14 C8A        30.3620   19.0230   67.9980 C.2       1 NAP1350     0.0000 
     15 N7A        31.4160   19.0250   67.2050 N.2       1 NAP1350     0.0000 
     16 C5A        31.0660   18.1190   66.2170 C.ar      1 NAP1350     0.0000 
     17 C6A        31.7880   17.6950   65.0860 C.ar      1 NAP1350     0.0000 
     18 N6A        33.0160   18.0950   64.7090 N.pl3     1 NAP1350     0.0000 
     19 N1A        31.1650   16.7480   64.2520 N.ar      1 NAP1350     0.0000 
     20 C2A        29.8840   16.2570   64.5410 C.ar      1 NAP1350     0.0000 
     21 N3A        29.1490   16.6600   65.6510 N.ar      1 NAP1350     0.0000 
     22 C4A        29.7820   17.5920   66.4610 C.ar      1 NAP1350     0.0000 
     23 O3         26.6920   24.3780   69.8500 O.3       1 NAP1350     0.0000 
     24 PN         26.4860   24.5690   71.3840 P.3       1 NAP1350     0.0000 
     25 O1N        27.6210   24.0270   72.1550 O.co2     1 NAP1350     0.0000 
     26 O2N        25.1400   24.0000   71.6640 O.co2     1 NAP1350     0.0000 
     27 O5D        26.5360   26.1370   71.4460 O.3       1 NAP1350     0.0000 
     28 C5D        27.7160   26.8050   70.8960 C.3       1 NAP1350     0.0000 
     29 C4D        28.4390   27.5300   72.0100 C.3       1 NAP1350     0.0000 
     30 O4D        28.1860   28.9550   71.8690 O.3       1 NAP1350     0.0000 
     31 C3D        28.0340   27.1960   73.5070 C.3       1 NAP1350     0.0000 
     32 O3D        28.8180   26.1740   74.1320 O.3       1 NAP1350     0.0000 
     33 C2D        28.1110   28.5500   74.2100 C.3       1 NAP1350     0.0000 
     34 O2D        29.3830   28.8290   74.7590 O.3       1 NAP1350     0.0000 
     35 C1D        27.7670   29.5380   73.1520 C.3       1 NAP1350     0.0000 
     36 N1N        26.3110   29.9610   73.0800 N.pl3     1 NAP1350     0.0000 
     37 C2N        25.9510   31.2970   73.2980 C.ar      1 NAP1350     0.0000 
     38 C3N        24.5980   31.6370   73.2640 C.ar      1 NAP1350     0.0000 
     39 C7N        24.2140   33.0860   73.5110 C.2       1 NAP1350     0.0000 
     40 O7N        23.0370   33.3290   73.4920 O.2       1 NAP1350     0.0000 
     41 N7N        25.1260   34.0070   73.7380 N.am      1 NAP1350     0.0000 
     42 C4N        23.5470   30.6440   73.0100 C.ar      1 NAP1350     0.0000 
     43 C5N        23.9480   29.3100   72.7850 C.ar      1 NAP1350     0.0000 
     44 C6N        25.3240   28.9390   72.8160 C.ar      1 NAP1350     0.0000 
     45 P2B        29.1270   15.8440   70.9580 P.3       1 NAP1350     0.0000 
     46 O1X        30.1870   15.7440   69.8370 O.co2     1 NAP1350     0.0000 
     47 O2X        29.5650   16.6520   72.1390 O.co2     1 NAP1350     0.0000 
     48 O3X        28.5240   14.4860   71.2690 O.co2     1 NAP1350     0.0000 
     49 H          28.4087   20.8025   68.4239 H         1 NAP1350     0.0000 
     50 H          27.0593   21.2409   67.3624 H         1 NAP1350     0.0000 
     51 H          25.6129   19.8302   68.7421 H         1 NAP1350     0.0000 
     52 H          27.5529   19.8626   70.6903 H         1 NAP1350     0.0000 
     53 H          29.1162   18.4309   69.9520 H         1 NAP1350     0.0000 
     54 H          27.7062   16.9297   67.9650 H         1 NAP1350     0.0000 
     55 H          30.2761   19.5801   68.8314 H         1 NAP1350     0.0000 
     56 H          29.4644   15.5534   63.8871 H         1 NAP1350     0.0000 
     57 H          27.4294   27.5304   70.1338 H         1 NAP1350     0.0000 
     58 H          28.3975   26.0802   70.4493 H         1 NAP1350     0.0000 
     59 H          29.5105   27.3665   71.9300 H         1 NAP1350     0.0000 
     60 H          26.9681   26.9372   73.4580 H         1 NAP1350     0.0000 
     61 H          27.3224   28.5719   74.9498 H         1 NAP1350     0.0000 
     62 H          28.3791   30.4426   73.3131 H         1 NAP1350     0.0000 
     63 H          26.6608   32.0009   73.4767 H         1 NAP1350     0.0000 
     64 H          26.0767   33.6970   73.7270 H         1 NAP1350     0.0000 
     65 H          24.7853   34.9330   73.9008 H         1 NAP1350     0.0000 
     66 H          22.5933   30.9281   73.0023 H         1 NAP1350     0.0000 
     67 H          23.2411   28.5894   72.5951 H         1 NAP1350     0.0000 
     68 H          25.6105   27.9901   72.6589 H         1 NAP1350     0.0000 
     69 H          26.1339   17.5643   70.7315 H         1 NAP1350     0.0000 
     70 H          33.1802   18.9402   65.2175 H         1 NAP1350     0.0000 
     71 H          28.5841   25.3334   73.6434 H         1 NAP1350     0.0000 
     72 H          29.4682   29.8247   74.7216 H         1 NAP1350     0.0000 
@<TRIPOS>BOND
     1    2    1 ar   
     2    3    1 ar   
     3    4    1 1    
     4   23    1 1    
     5    5    4 1    
     6    6    5 1    
     7   49    5 1    
     8   50    5 1    
     9    7    6 1    
    10    8    6 1    
    11   51    6 1    
    12   12    7 1    
    13    9    8 1    
    14   10    8 1    
    15   52    8 1    
    16   69    9 1    
    17   11   10 1    
    18   12   10 1    
    19   53   10 1    
    20   45   11 1    
    21   13   12 1    
    22   54   12 1    
    23   14   13 1    
    24   22   13 1    
    25   15   14 2    
    26   55   14 1    
    27   16   15 1    
    28   17   16 ar   
    29   22   16 ar   
    30   18   17 1    
    31   19   17 ar   
    32   70   18 1    
    33   20   19 ar   
    34   21   20 ar   
    35   56   20 1    
    36   22   21 ar   
    37   24   23 1    
    38   25   24 ar   
    39   26   24 ar   
    40   27   24 1    
    41   28   27 1    
    42   29   28 1    
    43   57   28 1    
    44   58   28 1    
    45   30   29 1    
    46   31   29 1    
    47   59   29 1    
    48   35   30 1    
    49   32   31 1    
    50   33   31 1    
    51   60   31 1    
    52   71   32 1    
    53   34   33 1    
    54   35   33 1    
    55   61   33 1    
    56   72   34 1    
    57   36   35 1    
    58   62   35 1    
    59   37   36 ar   
    60   44   36 ar   
    61   38   37 ar   
    62   63   37 1    
    63   39   38 1    
    64   42   38 ar   
    65   40   39 2    
    66   41   39 am   
    67   64   41 1    
    68   65   41 1    
    69   43   42 ar   
    70   66   42 1    
    71   44   43 ar   
    72   67   43 1    
    73   68   44 1    
    74   46   45 ar   
    75   47   45 ar   
    76   48   45 ar   
@<TRIPOS>SUBSTRUCTURE
     1 NAP1350     1 GROUP   
@<TRIPOS>SET

