#    Name: 3fzs_B96_1_INTS_M
#    Modification time : Tue Mar 25 06:51:56 2014

@<TRIPOS>MOLECULE
3fzs_B96_1_INTS_M
  108     0     9     0     0
SMALL
NO_CHARGES


@<TRIPOS>ATOM
      1 N          -3.2250   -1.5835   11.1540 N.am      2 SEC2        0.0000 
      2 N          -4.2560   -2.6400   11.2790 N.am      8 SEL2        0.0000 
      3 N          -2.1940   -0.5270   11.0290 N.am      5 SEP2        0.0000 
      4 O          -5.7670   -3.4025   14.1310 O.2       1 ALC1        0.0000 
      5 O          -4.8370   -3.7260   13.1670 O.2       7 ALL1        0.0000 
      6 O          -6.6970   -3.0790   15.0950 O.2       4 ALP1        0.0000 
      7 CA         -0.5275   -5.1895   13.3095 C.3       3 GLC5        0.0000 
      8 CA         -2.0000   -6.7920   13.1630 C.3       9 GLL5        0.0000 
      9 CA          0.9450   -3.5870   13.4560 C.3       6 GLP5        0.0000 
     10 CA         -5.0150   -4.3630    9.4030 C.3       3 GLC5        0.0000 
     11 CA         -4.5680   -5.6220   10.7390 C.3       9 GLL5        0.0000 
     12 CA         -5.4620   -3.1040    8.0670 C.3       6 GLP5        0.0000 
     13 CA         -6.2725   -5.6835   10.6275 C.3       3 GLC5        0.0000 
     14 CA         -7.9770   -5.7450   10.5160 C.3       6 GLP5        0.0000 
     15 CA         -4.6600   -5.3310    8.3690 C.3       3 GLC5        0.0000 
     16 CA         -4.3500   -6.5160    9.6960 C.3       9 GLL5        0.0000 
     17 CA         -4.9700   -4.1460    7.0420 C.3       6 GLP5        0.0000 
     18 O          -6.1570   -2.3620   13.9330 O.2       1 ALC1        0.0000 
     19 O          -5.6170   -1.6450   12.7710 O.2       7 ALL1        0.0000 
     20 CA         -7.6225   -0.5720   11.4170 C.3       3 GLC5        0.0000 
     21 CA         -5.8550   -0.4280   12.1570 C.3       9 GLL5        0.0000 
     22 CA         -9.3900   -0.7160   10.6770 C.3       6 GLP5        0.0000 
     23 CA         -6.9340   -0.8790   10.2205 C.3       3 GLC5        0.0000 
     24 CA         -5.4330   -0.0130   10.8910 C.3       9 GLL5        0.0000 
     25 CA         -8.4350   -1.7450    9.5500 C.3       6 GLP5        0.0000 
     26 CA         -5.4475   -1.5585    9.4790 C.3       3 GLC5        0.0000 
     27 CA         -3.8705   -0.5240    9.7860 C.3       3 GLC5        0.0000 
     28 CA         -2.3080   -1.0350    8.6810 C.3       6 GLP5        0.0000 
     29 CA         -8.3210    0.8175    9.8330 C.3       3 GLC5        0.0000 
     30 CA         -7.2520    2.3510    8.9890 C.3       9 GLL5        0.0000 
     31 CA         -8.6815    1.7740    8.5095 C.3       3 GLC5        0.0000 
     32 CA        -10.1110    1.1970    8.0300 C.3       6 GLP5        0.0000 
     33 CA         -7.1930    1.1865    7.3365 C.3       3 GLC5        0.0000 
     34 CA         -7.1340    0.0220    5.6840 C.3       6 GLP5        0.0000 
     35 CA         -7.7690    4.2315    7.9585 C.3       3 GLC5        0.0000 
     36 CA         -8.2860    6.1120    6.9280 C.3       6 GLP5        0.0000 
     37 CA         -5.6500    4.8465    8.6355 C.3       3 GLC5        0.0000 
     38 CA         -5.5120    3.6330   10.2350 C.3       9 GLL5        0.0000 
     39 CA         -5.7880    6.0600    7.0360 C.3       6 GLP5        0.0000 
     40 CA         -3.7015    4.1250    9.8530 C.3       3 GLC5        0.0000 
     41 CA         -1.8910    4.6170    9.4710 C.3       6 GLP5        0.0000 
     42 CA         -4.0695    2.4640   11.4610 C.3       3 GLC5        0.0000 
     43 CA         -2.6270    1.2950   12.6870 C.3       6 GLP5        0.0000 
     44 CA         -6.0170    0.8915    7.1670 C.3       3 GLC5        0.0000 
     45 CA         -4.9000    1.7610    8.6500 C.3       9 GLL5        0.0000 
     46 CA         -3.3955    3.1890    9.0605 C.3       3 GLC5        0.0000 
     47 CA         -3.1935    2.1055    7.3560 C.3       3 GLC5        0.0000 
     48 CA         -1.4870    2.4500    6.0620 C.3       6 GLP5        0.0000 
     49 CA         -3.6040    0.3630    8.6655 C.3       3 GLC5        0.0000 
     50 CA        -10.1590   -0.2825   15.8435 C.3       3 GLC5        0.0000 
     51 CA         -9.0760    1.2310   15.3600 C.3       9 GLL5        0.0000 
     52 CA        -11.2420   -1.7960   16.3270 C.3       6 GLP5        0.0000 
     53 CA        -10.8730    2.0040   15.4770 C.3       3 GLC5        0.0000 
     54 CA        -12.6700    2.7770   15.5940 C.3       6 GLP5        0.0000 
     55 CA         -8.7520   -0.8030   14.7765 C.3       3 GLC5        0.0000 
     56 CA         -8.4820    1.1290   14.1030 C.3       9 GLL5        0.0000 
     57 CA         -9.0220   -2.7350   15.4500 C.3       6 GLP5        0.0000 
     58 CA        -10.4280    1.5970   13.2745 C.3       3 GLC5        0.0000 
     59 CA        -12.3740    2.0650   12.4460 C.3       6 GLP5        0.0000 
     60 CA          0.5035   -5.6020   13.8345 C.3       3 GLC5        0.0000 
     61 CA          0.0620   -7.6170   14.2130 C.3       9 GLL5        0.0000 
     62 CA          0.8685  -10.5870   13.8665 C.3       3 GLC5        0.0000 
     63 CA          1.1200   -8.6890   13.9360 C.3       9 GLL5        0.0000 
     64 CA          0.6170  -12.4850   13.7970 C.3       6 GLP5        0.0000 
     65 CA          0.2555   -9.1925   10.4055 C.3       3 GLC5        0.0000 
     66 CA          1.3980   -7.9790   11.6170 C.3       9 GLL5        0.0000 
     67 CA         -0.8870  -10.4060    9.1940 C.3       6 GLP5        0.0000 
     68 CA          1.4820   -6.0040   11.3350 C.3       3 GLC5        0.0000 
     69 CA          1.5660   -4.0290   11.0530 C.3       6 GLP5        0.0000 
     70 CA          3.9870   -6.9790    9.7565 C.3       3 GLC5        0.0000 
     71 CA          2.4400   -7.6260   10.5580 C.3       9 GLL5        0.0000 
     72 CA          5.5340   -6.3320    8.9550 C.3       6 GLP5        0.0000 
     73 CA          1.8700   -7.5305    8.8145 C.3       3 GLC5        0.0000 
     74 CA          1.3000   -7.4350    7.0710 C.3       6 GLP5        0.0000 
     75 CA          1.8460   -5.9540   10.1385 C.3       3 GLC5        0.0000 
     76 CA          1.2520   -4.2820    9.7190 C.3       6 GLP5        0.0000 
     77 CA          4.8130   -7.6465   10.2925 C.3       3 GLC5        0.0000 
     78 CA          4.0920   -8.9610   11.6300 C.3       9 GLL5        0.0000 
     79 CA          1.8775  -10.8740   13.2915 C.3       3 GLC5        0.0000 
     80 CA          3.1380   -9.2630   12.7860 C.3       9 GLL5        0.0000 
     81 CA         -5.5345   -6.5548   12.3268 C.3       3 GLC5        0.0000 
     82 CA         -3.8010   -5.6970   11.8940 C.3       9 GLL5        0.0000 
     83 CA         -7.1640   -7.8450   12.2150 C.3       6 GLP5        0.0000 
     84 CA         -4.6535   -7.9007   11.2745 C.3       3 GLC5        0.0000 
     85 CA         -2.5920   -7.5770   10.9550 C.3       9 GLL5        0.0000 
     86 CA         -6.6110   -8.6710   11.0680 C.3       6 GLP5        0.0000 
     87 CA         -5.2355   -7.8370   10.4093 C.3       3 GLC5        0.0000 
     88 CA         -3.3700   -7.4900    9.8050 C.3       9 GLL5        0.0000 
     89 CA         -2.5310   -7.1750    8.2148 C.3       3 GLC5        0.0000 
     90 CA         -1.2020   -7.3470    6.6790 C.3       6 GLP5        0.0000 
     91 CA         -1.9340   -8.9698    9.7870 C.3       3 GLC5        0.0000 
     92 CA         -2.7740   -9.0682   12.2190 C.3       3 GLC5        0.0000 
     93 CA         -3.0520  -10.9790   12.6680 C.3       6 GLP5        0.0000 
     94 CA         -4.1937   -6.0460   15.5243 C.3       3 GLC5        0.0000 
     95 CA         -2.1920   -5.9060   14.2090 C.3       9 GLL5        0.0000 
     96 CA         -5.7010   -6.6710   16.8930 C.3       6 GLP5        0.0000 
     97 CA         -1.3417   -4.0255   14.1792 C.3       3 GLC5        0.0000 
     98 CA         -3.1810   -4.9360   14.1020 C.3       9 GLL5        0.0000 
     99 CA          0.0030   -2.6300   14.2030 C.3       6 GLP5        0.0000 
    100 CA         -4.1355    0.5373   12.1055 C.3       3 GLC5        0.0000 
    101 CA         -8.6200    0.0628   12.3420 C.3       3 GLC5        0.0000 
    102 CA         -7.2180    0.5540   13.9110 C.3       9 GLL5        0.0000 
    103 CA         -8.0125   -1.2254   15.4336 C.3       3 GLC5        0.0000 
    104 CA         -9.3260   -0.8363   16.9165 C.3       3 GLC5        0.0000 
    105 CA         -8.3940    0.7720   16.4790 C.3       9 GLL5        0.0000 
    106 CA         -9.9300   -2.4990   16.6750 C.3       6 GLP5        0.0000 
    107 CA         -0.5770   -9.2460   15.3603 C.3       3 GLC5        0.0000 
    108 CA         -1.7450  -10.3390   16.6460 C.3       6 GLP5        0.0000 
@<TRIPOS>BOND
@<TRIPOS>SUBSTRUCTURE
     1 ALC1        4 GROUP        1 X    ALC  0     ROOT ALC X 1
     2 SEC2        1 GROUP        1 X    SEC  0     **** SEC X 2
     3 GLC5        7 GROUP        1 X    GLC  0     **** GLC X 6
     4 ALP1        6 GROUP        1 Y    ALP  0     ROOT ALP Y 8
     5 SEP2        3 GROUP        1 Y    SEP  0     **** SEP Y 9
     6 GLP5        9 GROUP        1 Y    GLP  0     **** GLP Y 13
     7 ALL1        5 GROUP        1 Z    ALL  0     ROOT ALL Z 15
     8 SEL2        2 GROUP        1 Z    SEL  0     **** SEL Z 16
     9 GLL5        8 GROUP        1 Z    GLL  0     **** GLL Z 20
@<TRIPOS>SET

