#    Name: 3fzs_B96_1_ligand
#    Modification time : Tue Mar 25 06:51:56 2014

@<TRIPOS>MOLECULE
3fzs_B96_1_ligand
   77    81     1     0     0
SMALL
NO_CHARGES


@<TRIPOS>ATOM
      1 C1         -4.8590   -2.6550   12.3500 C.2       1 B96999      0.0000 
      2 O1         -4.2560   -2.6400   11.2790 O.2       1 B96999      0.0000 
      3 N2         -4.8370   -3.7260   13.1670 N.am      1 B96999      0.0000 
      4 C3         -4.0090   -4.8320   12.9830 C.ar      1 B96999      0.0000 
      5 C4         -3.8010   -5.6970   11.8940 C.ar      1 B96999      0.0000 
      6 C5         -2.8000   -6.6840   12.0070 C.ar      1 B96999      0.0000 
      7 C6         -2.0000   -6.7920   13.1630 C.ar      1 B96999      0.0000 
      8 C31        -4.5680   -5.6220   10.7390 C.ar      1 B96999      0.0000 
      9 C32        -4.3500   -6.5160    9.6960 C.ar      1 B96999      0.0000 
     10 C33        -3.3700   -7.4900    9.8050 C.ar      1 B96999      0.0000 
     11 C34        -2.5920   -7.5770   10.9550 C.ar      1 B96999      0.0000 
     12 C7         -2.1920   -5.9060   14.2090 C.ar      1 B96999      0.0000 
     13 C8         -3.1810   -4.9360   14.1020 C.ar      1 B96999      0.0000 
     14 N9         -5.6170   -1.6450   12.7710 N.am      1 B96999      0.0000 
     15 C10        -5.8550   -0.4280   12.1570 C.2       1 B96999      0.0000 
     16 C14        -5.4330   -0.0130   10.8910 C.2       1 B96999      0.0000 
     17 C13        -6.0080    1.2730   10.8210 C.2       1 B96999      0.0000 
     18 N12        -6.7360    1.6470   11.8990 N.2       1 B96999      0.0000 
     19 N11        -6.6280    0.5170   12.7020 N.pl3     1 B96999      0.0000 
     20 C15        -7.2180    0.5540   13.9110 C.ar      1 B96999      0.0000 
     21 C17        -7.2520    2.3510    8.9890 C.3       1 B96999      0.0000 
     22 C18        -5.5120    3.6330   10.2350 C.3       1 B96999      0.0000 
     23 C19        -4.9000    1.7610    8.6500 C.3       1 B96999      0.0000 
     24 C16        -5.9030    2.2540    9.6800 C.3       1 B96999      0.0000 
     25 C20        -6.5440    0.1410   15.0700 C.ar      1 B96999      0.0000 
     26 C21        -7.1250    0.2210   16.3440 C.ar      1 B96999      0.0000 
     27 C22        -8.3940    0.7720   16.4790 C.ar      1 B96999      0.0000 
     28 C23        -9.0760    1.2310   15.3600 C.ar      1 B96999      0.0000 
     29 C24        -8.4820    1.1290   14.1030 C.ar      1 B96999      0.0000 
     30 C25        -9.0500    0.8810   17.8370 C.3       1 B96999      0.0000 
     31 O41        -1.0220   -7.7530   13.2780 O.3       1 B96999      0.0000 
     32 C42         0.0620   -7.6170   14.2130 C.3       1 B96999      0.0000 
     33 C43         1.1200   -8.6890   13.9360 C.3       1 B96999      0.0000 
     34 N44         2.0730   -8.2320   12.9140 N.4       1 B96999      0.0000 
     35 C45         1.3980   -7.9790   11.6170 C.3       1 B96999      0.0000 
     36 C46         2.4400   -7.6260   10.5580 C.3       1 B96999      0.0000 
     37 O47         3.3460   -8.7250   10.4290 O.3       1 B96999      0.0000 
     38 C48         4.0920   -8.9610   11.6300 C.3       1 B96999      0.0000 
     39 C49         3.1380   -9.2630   12.7860 C.3       1 B96999      0.0000 
     40 H          -5.4849   -3.7470   14.0104 H         1 B96999      0.0000 
     41 H          -5.3003   -4.9031   10.6533 H         1 B96999      0.0000 
     42 H          -4.9204   -6.4522    8.8400 H         1 B96999      0.0000 
     43 H          -3.2151   -8.1540    9.0317 H         1 B96999      0.0000 
     44 H          -1.8641   -8.2978   11.0316 H         1 B96999      0.0000 
     45 H          -1.6138   -5.9627   15.0519 H         1 B96999      0.0000 
     46 H          -3.3119   -4.2585   14.8862 H         1 B96999      0.0000 
     47 H          -6.1314   -1.7770   13.7345 H         1 B96999      0.0000 
     48 H          -4.9325   -0.4415   10.2821 H         1 B96999      0.0000 
     49 H          -5.5789   -0.2381   14.9811 H         1 B96999      0.0000 
     50 H          -6.6167   -0.1234   17.1601 H         1 B96999      0.0000 
     51 H         -10.0099    1.6424   15.4549 H         1 B96999      0.0000 
     52 H          -8.9955    1.4938   13.2707 H         1 B96999      0.0000 
     53 H          -0.2786   -7.7411   15.2455 H         1 B96999      0.0000 
     54 H           0.5459   -6.6391   14.1294 H         1 B96999      0.0000 
     55 H           0.6077   -9.5996   13.6079 H         1 B96999      0.0000 
     56 H           1.6370   -8.9113   14.8755 H         1 B96999      0.0000 
     57 H           2.5380   -7.3062   13.2617 H         1 B96999      0.0000 
     58 H           0.6983   -7.1500   11.7080 H         1 B96999      0.0000 
     59 H           0.8559   -8.8651   11.2914 H         1 B96999      0.0000 
     60 H           2.9488   -6.7157   10.8779 H         1 B96999      0.0000 
     61 H           1.9141   -7.4216    9.6244 H         1 B96999      0.0000 
     62 H           4.6929   -8.0882   11.9108 H         1 B96999      0.0000 
     63 H           4.7702   -9.8156   11.5234 H         1 B96999      0.0000 
     64 H           2.6888  -10.2508   12.6173 H         1 B96999      0.0000 
     65 H           3.7227   -9.3190   13.7139 H         1 B96999      0.0000 
     66 H          -7.2324    2.9960    8.2250 H         1 B96999      0.0000 
     67 H          -7.5447    1.4687    8.6203 H         1 B96999      0.0000 
     68 H          -7.9685    2.6595    9.6147 H         1 B96999      0.0000 
     69 H          -4.6342    3.6056   10.7133 H         1 B96999      0.0000 
     70 H          -5.4290    4.3156    9.5090 H         1 B96999      0.0000 
     71 H          -6.1893    3.9774   10.8851 H         1 B96999      0.0000 
     72 H          -3.9883    1.6465    9.0446 H         1 B96999      0.0000 
     73 H          -5.1663    0.8770    8.2658 H         1 B96999      0.0000 
     74 H          -4.8101    2.3982    7.8845 H         1 B96999      0.0000 
     75 H          -9.1610   -0.0141   18.2688 H         1 B96999      0.0000 
     76 H          -8.5130    1.4446   18.4647 H         1 B96999      0.0000 
     77 H          -9.9594    1.2928   17.7782 H         1 B96999      0.0000 
@<TRIPOS>BOND
     1    2    1 2    
     2    3    1 am   
     3   14    1 am   
     4    4    3 1    
     5   40    3 1    
     6    5    4 ar   
     7   13    4 ar   
     8    6    5 ar   
     9    8    5 ar   
    10    7    6 ar   
    11   11    6 ar   
    12   12    7 ar   
    13   31    7 1    
    14    9    8 ar   
    15   41    8 1    
    16   10    9 ar   
    17   42    9 1    
    18   11   10 ar   
    19   43   10 1    
    20   44   11 1    
    21   13   12 ar   
    22   45   12 1    
    23   46   13 1    
    24   15   14 1    
    25   47   14 1    
    26   16   15 2    
    27   19   15 1    
    28   17   16 1    
    29   48   16 1    
    30   18   17 2    
    31   24   17 1    
    32   19   18 1    
    33   20   19 1    
    34   25   20 ar   
    35   29   20 ar   
    36   24   21 1    
    37   66   21 1    
    38   67   21 1    
    39   68   21 1    
    40   24   22 1    
    41   69   22 1    
    42   70   22 1    
    43   71   22 1    
    44   24   23 1    
    45   72   23 1    
    46   73   23 1    
    47   74   23 1    
    48   26   25 ar   
    49   49   25 1    
    50   27   26 ar   
    51   50   26 1    
    52   28   27 ar   
    53   30   27 1    
    54   29   28 ar   
    55   51   28 1    
    56   52   29 1    
    57   75   30 1    
    58   76   30 1    
    59   77   30 1    
    60   32   31 1    
    61   33   32 1    
    62   53   32 1    
    63   54   32 1    
    64   34   33 1    
    65   55   33 1    
    66   56   33 1    
    67   35   34 1    
    68   39   34 1    
    69   57   34 1    
    70   36   35 1    
    71   58   35 1    
    72   59   35 1    
    73   37   36 1    
    74   60   36 1    
    75   61   36 1    
    76   38   37 1    
    77   39   38 1    
    78   62   38 1    
    79   63   38 1    
    80   64   39 1    
    81   65   39 1    
@<TRIPOS>SUBSTRUCTURE
     1 B96999      1 GROUP   
@<TRIPOS>SET

