#    Name: 3WN4_1_CAVITY_N1_6.mol2
#    Modification time : Tue Mar 11 13:36:04 2014

@<TRIPOS>MOLECULE
3WN4_1_CAVITY_N1_6.mol2
   60     0     5     0     0
SMALL
NO_CHARGES


@<TRIPOS>ATOM
      1 O          12.2317   24.5648   35.0880 O.2       2 ALA2        0.0000 
      2 CA         12.3928   23.6124   36.2355 C.3       4 GLY6        0.0000 
      3 N          10.6243   25.6990   34.2943 N.2       2 ALA2        0.0000 
      4 N          10.7854   24.7466   35.4419 N.2       2 ALA2        0.0000 
      5 N          13.3142   23.2386   33.8352 N.2       2 ALA2        0.0000 
      6 O          13.6365   21.3337   36.1303 O.2       2 ALA2        0.0000 
      7 N          11.8679   23.4204   34.1891 N.2       2 ALA2        0.0000 
      8 O          12.0291   22.4679   35.3367 O.2       2 ALA2        0.0000 
      9 O          12.1902   21.5155   36.4842 O.2       2 ALA2        0.0000 
     10 CA         10.2605   24.5546   33.3955 C.3       4 GLY6        0.0000 
     11 CA         10.4217   23.6021   34.5431 C.3       4 GLY6        0.0000 
     12 DU         10.5828   22.6497   35.6906 H         5 CUB7        0.0000 
     13 CA          8.8142   24.7363   33.7494 C.3       4 GLY6        0.0000 
     14 CZ          7.3680   24.9180   34.1033 C.ar      3 PHE5        0.0000 
     15 CZ          5.9217   25.0997   34.4572 C.ar      3 PHE5        0.0000 
     16 CZ          4.4754   25.2815   34.8112 C.ar      3 PHE5        0.0000 
     17 CZ         13.1116   21.1417   34.0840 C.ar      3 PHE5        0.0000 
     18 CZ         13.2727   20.1893   35.2315 C.ar      3 PHE5        0.0000 
     19 CZ         13.4339   19.2368   36.3791 C.ar      3 PHE5        0.0000 
     20 CA         11.5042   22.2759   33.2903 C.3       4 GLY6        0.0000 
     21 DU         11.6653   21.3235   34.4379 H         5 CUB7        0.0000 
     22 DU         11.8264   20.3710   35.5854 H         5 CUB7        0.0000 
     23 CA         10.0579   22.4576   33.6442 C.3       4 GLY6        0.0000 
     24 DU         10.2190   21.5052   34.7918 H         5 CUB7        0.0000 
     25 CA          8.6116   22.6394   33.9982 C.3       4 GLY6        0.0000 
     26 CA          7.0042   23.7735   33.2045 C.3       4 GLY6        0.0000 
     27 CA          5.5579   23.9553   33.5584 C.3       4 GLY6        0.0000 
     28 CA          4.1117   24.1370   33.9123 C.3       4 GLY6        0.0000 
     29 CZ         12.9090   19.0448   34.3327 C.ar      3 PHE5        0.0000 
     30 CZ         13.0701   18.0923   35.4802 C.ar      3 PHE5        0.0000 
     31 CA         11.1404   21.1314   32.3915 C.3       4 GLY6        0.0000 
     32 CZ         11.3016   20.1790   33.5391 C.ar      3 PHE5        0.0000 
     33 DU         11.4627   19.2265   34.6866 H         5 CUB7        0.0000 
     34 CA          9.6941   21.3132   32.7454 C.3       4 GLY6        0.0000 
     35 DU          9.8553   20.3607   33.8930 H         5 CUB7        0.0000 
     36 CZ         12.3841   18.8528   32.2863 C.ar      3 PHE5        0.0000 
     37 OG         12.5452   17.9003   33.4339 O.2       1 SER1        0.0000 
     38 CZ         12.7063   16.9479   34.5814 C.ar      3 PHE5        0.0000 
     39 CA         10.7767   19.9870   31.4927 C.3       4 GLY6        0.0000 
     40 DU         10.9378   19.0345   32.6402 H         5 CUB7        0.0000 
     41 DU         11.0989   18.0821   33.7878 H         5 CUB7        0.0000 
     42 CA          9.3304   20.1687   31.8466 C.3       4 GLY6        0.0000 
     43 CZ          9.4915   19.2162   32.9942 C.ar      3 PHE5        0.0000 
     44 DU          9.6527   18.2638   34.1417 H         5 CUB7        0.0000 
     45 CZ         11.8592   18.6608   30.2400 C.ar      3 PHE5        0.0000 
     46 CZ         12.0203   17.7083   31.3875 C.ar      3 PHE5        0.0000 
     47 OG         12.1815   16.7559   32.5351 O.2       1 SER1        0.0000 
     48 CA         10.4129   18.8425   30.5939 C.3       4 GLY6        0.0000 
     49 DU         10.5740   17.8900   31.7414 H         5 CUB7        0.0000 
     50 DU         10.7352   16.9376   32.8890 H         5 CUB7        0.0000 
     51 CZ          8.9666   19.0242   30.9478 C.ar      3 PHE5        0.0000 
     52 CZ          9.1278   18.0718   32.0953 C.ar      3 PHE5        0.0000 
     53 CZ         11.6566   16.5638   30.4887 C.ar      3 PHE5        0.0000 
     54 O          11.8177   15.6114   31.6362 O.2       2 ALA2        0.0000 
     55 CZ         10.0492   17.6980   29.6951 C.ar      3 PHE5        0.0000 
     56 CZ         10.2103   16.7456   30.8426 C.ar      3 PHE5        0.0000 
     57 CA          8.6029   17.8798   30.0490 C.3       4 GLY6        0.0000 
     58 CA          8.7640   16.9273   31.1965 C.3       4 GLY6        0.0000 
     59 CZ          7.3177   17.1090   31.5504 C.ar      3 PHE5        0.0000 
     60 CA          8.4003   15.7828   30.2977 C.3       4 GLY6        0.0000 
@<TRIPOS>BOND
@<TRIPOS>SUBSTRUCTURE
     1 SER1       37 GROUP   
     2 ALA2        1 GROUP   
     3 PHE5       14 GROUP   
     4 GLY6        2 GROUP   
     5 CUB7       12 GROUP   
@<TRIPOS>SET

