#    Name: 3wn4_D87_1_INTS_M
#    Modification time : Tue Mar 25 02:39:44 2014

@<TRIPOS>MOLECULE
3wn4_D87_1_INTS_M
   27     0     3     0     0
SMALL
NO_CHARGES


@<TRIPOS>ATOM
      1 CA         10.4415   16.9390   29.2295 C.3       1 GLC5        0.0000 
      2 CA         10.0030   18.0230   30.7570 C.3       3 GLL5        0.0000 
      3 CA         10.8800   15.8550   27.7020 C.3       2 GLP5        0.0000 
      4 CA          8.2615   17.4960   29.5020 C.3       1 GLC5        0.0000 
      5 CA          6.5200   16.9690   28.2470 C.3       2 GLP5        0.0000 
      6 CA          8.1495   18.9600   31.3000 C.3       1 GLC5        0.0000 
      7 CA          6.2960   19.8970   31.8430 C.3       2 GLP5        0.0000 
      8 CA         12.7880   18.4385   30.8600 C.3       1 GLC5        0.0000 
      9 CA         11.1110   18.6670   31.5380 C.3       3 GLL5        0.0000 
     10 CA         14.4650   18.2100   30.1820 C.3       2 GLP5        0.0000 
     11 CA         13.2150   18.1530   32.1755 C.3       1 GLC5        0.0000 
     12 CA         11.5580   18.0190   32.8340 C.3       3 GLL5        0.0000 
     13 CA         14.8720   18.2870   31.5170 C.3       2 GLP5        0.0000 
     14 CA         13.4005   19.3380   32.9445 C.3       1 GLC5        0.0000 
     15 CA         11.8410   19.1770   33.7470 C.3       3 GLL5        0.0000 
     16 CA         14.9600   19.4990   32.1420 C.3       2 GLP5        0.0000 
     17 CA          9.7625   22.5590   32.4485 C.3       1 GLC5        0.0000 
     18 CA          9.9690   21.0530   33.9120 C.3       3 GLL5        0.0000 
     19 CA          9.5560   24.0650   30.9850 C.3       2 GLP5        0.0000 
     20 CA         10.4090   20.2125   30.4218 C.3       1 GLC5        0.0000 
     21 CA         10.2610   22.0800   29.6960 C.3       2 GLP5        0.0000 
     22 CA          8.3942   23.8948   32.6268 C.3       1 GLC5        0.0000 
     23 CA          7.7770   23.2930   34.2020 C.3       3 GLL5        0.0000 
     24 CA          5.9413   23.5108   32.6822 C.3       1 GLC5        0.0000 
     25 CA          4.6500   23.2970   31.0960 C.3       2 GLP5        0.0000 
     26 CA          5.0200   23.2045   33.0965 C.3       1 GLC5        0.0000 
     27 CA          5.4720   23.7510   34.8840 C.3       3 GLL5        0.0000 
@<TRIPOS>BOND
@<TRIPOS>SUBSTRUCTURE
     1 GLC5        1 GROUP        1 X    GLC  0     ROOT GLC X 6
     2 GLP5        3 GROUP        1 Y    GLP  0     ROOT GLP Y 13
     3 GLL5        2 GROUP        1 Z    GLL  0     ROOT GLL Z 20
@<TRIPOS>SET

