#    Name: 3wn4_D87_1_ligand
#    Modification time : Tue Mar 25 02:39:45 2014

@<TRIPOS>MOLECULE
3wn4_D87_1_ligand
   34    36     1     0     0
SMALL
NO_CHARGES


@<TRIPOS>ATOM
      1 CAQ        10.0030   18.0230   30.7570 C.3       1 D87901      0.0000 
      2 CAP        11.1110   18.6670   31.5380 C.3       1 D87901      0.0000 
      3 CAO        11.5580   18.0190   32.8340 C.3       1 D87901      0.0000 
      4 CAN        11.8410   19.1770   33.7470 C.3       1 D87901      0.0000 
      5 CAL        10.4950   19.7630   34.1140 C.2       1 D87901      0.0000 
      6 CAM         9.9690   21.0530   33.9120 C.2       1 D87901      0.0000 
      7 OAK         9.4980   19.0100   34.6740 O.3       1 D87901      0.0000 
      8 CAH         8.4340   19.7890   34.8980 C.ar      1 D87901      0.0000 
      9 CAJ         8.6550   21.0520   34.4900 C.ar      1 D87901      0.0000 
     10 CAB         7.6230   21.9760   34.5960 C.ar      1 D87901      0.0000 
     11 CAD         7.7770   23.2930   34.2020 C.ar      1 D87901      0.0000 
     12 CAF         6.6880   24.1560   34.3350 C.ar      1 D87901      0.0000 
     13 CAE         5.4720   23.7510   34.8840 C.ar      1 D87901      0.0000 
     14 CAC         5.3080   22.4730   35.3100 C.ar      1 D87901      0.0000 
     15 CAA         6.4330   21.6110   35.1990 C.ar      1 D87901      0.0000 
     16 NAI         6.2360   20.3160   35.6020 N.ar      1 D87901      0.0000 
     17 CAG         7.2260   19.4370   35.4950 C.ar      1 D87901      0.0000 
     18 NAR         7.0350   18.1980   35.8570 N.pl3     1 D87901      0.0000 
     19 H          10.8234   19.7344   31.7609 H         1 D87901      0.0000 
     20 H          12.0127   18.7703   30.8686 H         1 D87901      0.0000 
     21 H          12.4472   17.4554   32.6655 H         1 D87901      0.0000 
     22 H          10.7673   17.4222   33.2283 H         1 D87901      0.0000 
     23 H          12.4284   19.9160   33.2344 H         1 D87901      0.0000 
     24 H          12.3390   18.8338   34.6347 H         1 D87901      0.0000 
     25 H          10.3757   21.7697   33.4925 H         1 D87901      0.0000 
     26 H           8.6592   23.6298   33.8242 H         1 D87901      0.0000 
     27 H           6.7886   25.1441   34.0102 H         1 D87901      0.0000 
     28 H           4.7031   24.4389   34.9596 H         1 D87901      0.0000 
     29 H           4.4444   22.1223   35.6908 H         1 D87901      0.0000 
     30 H           6.1756   18.0055   36.3306 H         1 D87901      0.0000 
     31 H           7.7656   17.5549   35.6276 H         1 D87901      0.0000 
     32 H           9.7913   18.5329   29.9232 H         1 D87901      0.0000 
     33 H          10.2372   17.0913   30.4793 H         1 D87901      0.0000 
     34 H           9.1579   17.9667   31.2887 H         1 D87901      0.0000 
@<TRIPOS>BOND
     1    2    1 1    
     2   32    1 1    
     3   33    1 1    
     4   34    1 1    
     5    3    2 1    
     6   19    2 1    
     7   20    2 1    
     8    4    3 1    
     9   21    3 1    
    10   22    3 1    
    11    5    4 1    
    12   23    4 1    
    13   24    4 1    
    14    6    5 2    
    15    7    5 1    
    16    9    6 1    
    17   25    6 1    
    18    8    7 1    
    19    9    8 ar   
    20   17    8 ar   
    21   10    9 ar   
    22   11   10 ar   
    23   15   10 ar   
    24   12   11 ar   
    25   26   11 1    
    26   13   12 ar   
    27   27   12 1    
    28   14   13 ar   
    29   28   13 1    
    30   15   14 ar   
    31   29   14 1    
    32   16   15 ar   
    33   17   16 ar   
    34   18   17 1    
    35   30   18 1    
    36   31   18 1    
@<TRIPOS>SUBSTRUCTURE
     1 D87901      1 GROUP   
@<TRIPOS>SET

