#    Name: 2a1u_AMP_2_INTS_M
#    Modification time : Mon Mar 24 18:13:52 2014

@<TRIPOS>MOLECULE
2a1u_AMP_2_INTS_M
   76     0     9     0     0
SMALL
NO_CHARGES


@<TRIPOS>ATOM
      1 N           6.5085   25.6360   18.4490 N.am      2 SEC2        0.0000 
      2 N           6.2550   27.0620   18.2720 N.am      8 SEL2        0.0000 
      3 N           6.7620   24.2100   18.6260 N.am      5 SEP2        0.0000 
      4 N           6.4170   26.1605   17.1385 N.am      2 SEC2        0.0000 
      5 N           6.5790   25.2590   16.0050 N.am      5 SEP2        0.0000 
      6 N           6.0230   27.4870   17.0125 N.am      2 SEC2        0.0000 
      7 N           5.7910   27.9120   15.7530 N.am      5 SEP2        0.0000 
      8 N           4.5010   29.2270   20.4830 N.am      2 SEC2        0.0000 
      9 N           5.0200   29.1590   19.2580 N.am      8 SEL2        0.0000 
     10 N           3.9820   29.2950   21.7080 N.am      5 SEP2        0.0000 
     11 N           7.6265   29.0335   21.1755 N.am      2 SEC2        0.0000 
     12 N           6.8840   28.0340   20.5010 N.am      8 SEL2        0.0000 
     13 N           8.3690   30.0330   21.8500 N.am      5 SEP2        0.0000 
     14 N           5.4330   28.6645   21.1045 N.am      2 SEC2        0.0000 
     15 N           6.8090   26.6835   20.9120 N.am      2 SEC2        0.0000 
     16 N           6.7340   25.3330   21.3230 N.am      5 SEP2        0.0000 
     17 CA          9.2895   28.5205   19.8265 C.3       3 GLC5        0.0000 
     18 CA          8.6540   28.8280   18.1460 C.3       9 GLL5        0.0000 
     19 CA          9.9250   28.2130   21.5070 C.3       6 GLP5        0.0000 
     20 CA         10.8185   29.3965   15.6880 C.3       3 GLC5        0.0000 
     21 CA          9.3890   29.7000   17.1400 C.3       9 GLL5        0.0000 
     22 CA         12.2480   29.0930   14.2360 C.3       6 GLP5        0.0000 
     23 N          10.7495   32.2620   19.6285 N.am      2 SEC2        0.0000 
     24 N          10.7980   31.4030   18.2810 N.am      8 SEL2        0.0000 
     25 N          10.7010   33.1210   20.9760 N.am      5 SEP2        0.0000 
     26 CA          8.4690   33.6535   17.0360 C.3       3 GLC5        0.0000 
     27 CA          9.5640   31.8930   16.2470 C.3       9 GLL5        0.0000 
     28 CA          7.3740   35.4140   17.8250 C.3       6 GLP5        0.0000 
     29 CA         10.9060   30.4930   15.2415 C.3       3 GLC5        0.0000 
     30 N          12.1340   31.1050   16.2245 N.am      2 SEC2        0.0000 
     31 N          10.8780   31.8780   15.6650 N.am      8 SEL2        0.0000 
     32 N          13.3900   30.3320   16.7840 N.am      5 SEP2        0.0000 
     33 CA          9.3840   29.7915   14.2095 C.3       3 GLC5        0.0000 
     34 CA          8.6130   31.0870   15.3860 C.3       9 GLL5        0.0000 
     35 CA         10.1550   28.4960   13.0330 C.3       6 GLP5        0.0000 
     36 CA          7.5440   29.6275   14.4155 C.3       3 GLC5        0.0000 
     37 CA          6.4750   28.1680   13.4450 C.3       6 GLP5        0.0000 
     38 CA          5.4730   34.9850   16.4850 C.3       3 GLC5        0.0000 
     39 CA          4.9790   34.3660   14.5870 C.3       9 GLL5        0.0000 
     40 CA          5.9670   35.6040   18.3830 C.3       6 GLP5        0.0000 
     41 CA          4.0065   34.9885   12.9255 C.3       3 GLC5        0.0000 
     42 CA          3.0340   35.6110   11.2640 C.3       6 GLP5        0.0000 
     43 CA          3.8450   32.9355   13.9875 C.3       3 GLC5        0.0000 
     44 CA          2.7110   31.5050   13.3880 C.3       6 GLP5        0.0000 
     45 O           3.2480   36.0250   14.3015 O.2       1 ALC1        0.0000 
     46 O           3.7390   34.7980   14.8680 O.2       7 ALL1        0.0000 
     47 O           2.7570   37.2520   13.7350 O.2       4 ALP1        0.0000 
     48 N           5.2940   36.1090   12.7230 N.am      2 SEC2        0.0000 
     49 N           5.7080   35.0240   13.6650 N.am      8 SEL2        0.0000 
     50 N           4.8800   37.1940   11.7810 N.am      5 SEP2        0.0000 
     51 CA          8.6205   33.6240   12.6490 C.3       3 GLC5        0.0000 
     52 CA          6.9620   34.6420   13.3340 C.3       9 GLL5        0.0000 
     53 CA         10.2790   32.6060   11.9640 C.3       6 GLP5        0.0000 
     54 CA          8.9040   35.4990   14.0400 C.3       3 GLC5        0.0000 
     55 CA         10.8460   36.3560   14.7460 C.3       6 GLP5        0.0000 
     56 CA          7.4180   35.6635   15.2365 C.3       3 GLC5        0.0000 
     57 CA          7.8740   36.6850   17.1390 C.3       6 GLP5        0.0000 
     58 CA          7.0470   36.3900   12.4840 C.3       3 GLC5        0.0000 
     59 CA          7.1320   38.1380   11.6340 C.3       6 GLP5        0.0000 
     60 CA          5.4425   34.6665   11.6765 C.3       3 GLC5        0.0000 
     61 CA          3.9230   34.6910   10.0190 C.3       6 GLP5        0.0000 
     62 CA          5.9350   32.8765   12.8225 C.3       3 GLC5        0.0000 
     63 CA          4.9080   31.1110   12.3110 C.3       6 GLP5        0.0000 
     64 CA          8.6090   32.7160   13.3880 C.3       3 GLC5        0.0000 
     65 CA          6.9390   32.8260   14.8120 C.3       9 GLL5        0.0000 
     66 CA          7.8842   28.3610   16.2200 C.3       3 GLC5        0.0000 
     67 CA          6.7470   27.4580   14.7970 C.3       6 GLP5        0.0000 
     68 CA         11.5762   30.2157   17.7668 C.3       3 GLC5        0.0000 
     69 CA         13.6690   30.0040   18.1780 C.3       6 GLP5        0.0000 
     70 CA         10.4105   32.9375   17.4320 C.3       3 GLC5        0.0000 
     71 CA          9.5780   31.1550   17.5710 C.3       9 GLL5        0.0000 
     72 CA         11.2500   34.3510   17.9550 C.3       6 GLP5        0.0000 
     73 CA          9.6837   32.0480   13.8902 C.3       3 GLC5        0.0000 
     74 CA          6.8160   34.2088   16.4260 C.3       3 GLC5        0.0000 
     75 CA          5.5830   32.0572   13.6690 C.3       3 GLC5        0.0000 
     76 CA          5.5770   33.1810   15.2420 C.3       9 GLL5        0.0000 
@<TRIPOS>BOND
@<TRIPOS>SUBSTRUCTURE
     1 ALC1       45 GROUP        1 X    ALC  0     ROOT ALC X 1
     2 SEC2        1 GROUP        1 X    SEC  0     **** SEC X 2
     3 GLC5       17 GROUP        1 X    GLC  0     **** GLC X 6
     4 ALP1       47 GROUP        1 Y    ALP  0     ROOT ALP Y 8
     5 SEP2        3 GROUP        1 Y    SEP  0     **** SEP Y 9
     6 GLP5       19 GROUP        1 Y    GLP  0     **** GLP Y 13
     7 ALL1       46 GROUP        1 Z    ALL  0     ROOT ALL Z 15
     8 SEL2        2 GROUP        1 Z    SEL  0     **** SEL Z 16
     9 GLL5       18 GROUP        1 Z    GLL  0     **** GLL Z 20
@<TRIPOS>SET

