#    Name: 2a1u_AMP_2_ligand
#    Modification time : Mon Mar 24 18:13:52 2014

@<TRIPOS>MOLECULE
2a1u_AMP_2_ligand
   35    37     1     0     0
SMALL
NO_CHARGES


@<TRIPOS>ATOM
      1 P           6.2850   28.3190   19.1490 P.3       1 AMP600      0.0000 
      2 O1P         6.2550   27.0620   18.2720 O.co2     1 AMP600      0.0000 
      3 O2P         5.0200   29.1590   19.2580 O.co2     1 AMP600      0.0000 
      4 O3P         6.8840   28.0340   20.5010 O.co2     1 AMP600      0.0000 
      5 O5'         7.3120   29.2960   18.3920 O.3       1 AMP600      0.0000 
      6 C5'         8.6540   28.8280   18.1460 C.3       1 AMP600      0.0000 
      7 C4'         9.3890   29.7000   17.1400 C.3       1 AMP600      0.0000 
      8 O4'         8.6080   29.7910   15.9540 O.3       1 AMP600      0.0000 
      9 C3'         9.5780   31.1550   17.5710 C.3       1 AMP600      0.0000 
     10 O3'        10.7980   31.4030   18.2810 O.3       1 AMP600      0.0000 
     11 C2'         9.5640   31.8930   16.2470 C.3       1 AMP600      0.0000 
     12 O2'        10.8780   31.8780   15.6650 O.3       1 AMP600      0.0000 
     13 C1'         8.6130   31.0870   15.3860 C.3       1 AMP600      0.0000 
     14 N9          7.2950   31.7400   15.5040 N.pl3     1 AMP600      0.0000 
     15 C8          6.2600   31.4120   16.3090 C.2       1 AMP600      0.0000 
     16 N7          5.2060   32.2560   16.1660 N.2       1 AMP600      0.0000 
     17 C5          5.5770   33.1810   15.2420 C.ar      1 AMP600      0.0000 
     18 C6          4.9790   34.3660   14.5870 C.ar      1 AMP600      0.0000 
     19 N6          3.7390   34.7980   14.8680 N.pl3     1 AMP600      0.0000 
     20 N1          5.7080   35.0240   13.6650 N.ar      1 AMP600      0.0000 
     21 C2          6.9620   34.6420   13.3340 C.ar      1 AMP600      0.0000 
     22 N3          7.5660   33.5790   13.8860 N.ar      1 AMP600      0.0000 
     23 C4          6.9390   32.8260   14.8120 C.ar      1 AMP600      0.0000 
     24 H           8.6484   27.7932   17.7585 H         1 AMP600      0.0000 
     25 H           9.2460   28.8128   19.0789 H         1 AMP600      0.0000 
     26 H          10.3491   29.2819   16.9216 H         1 AMP600      0.0000 
     27 H           8.7019   31.4522   18.1114 H         1 AMP600      0.0000 
     28 H           9.1742   32.8554   16.3890 H         1 AMP600      0.0000 
     29 H           8.9644   31.1063   14.3965 H         1 AMP600      0.0000 
     30 H           6.2664   30.6444   16.9331 H         1 AMP600      0.0000 
     31 H           3.2364   34.2752   15.5565 H         1 AMP600      0.0000 
     32 H           3.4290   35.6039   14.3636 H         1 AMP600      0.0000 
     33 H           7.4867   35.2098   12.6065 H         1 AMP600      0.0000 
     34 H          10.5176   31.5716   19.2260 H         1 AMP600      0.0000 
     35 H          10.7270   31.9879   14.6826 H         1 AMP600      0.0000 
@<TRIPOS>BOND
     1    2    1 ar   
     2    3    1 ar   
     3    4    1 ar   
     4    5    1 1    
     5    6    5 1    
     6    7    6 1    
     7   24    6 1    
     8   25    6 1    
     9    8    7 1    
    10    9    7 1    
    11   26    7 1    
    12   13    8 1    
    13   10    9 1    
    14   11    9 1    
    15   27    9 1    
    16   34   10 1    
    17   12   11 1    
    18   13   11 1    
    19   28   11 1    
    20   35   12 1    
    21   14   13 1    
    22   29   13 1    
    23   15   14 1    
    24   23   14 1    
    25   16   15 2    
    26   30   15 1    
    27   17   16 1    
    28   18   17 ar   
    29   23   17 ar   
    30   19   18 1    
    31   20   18 ar   
    32   31   19 1    
    33   32   19 1    
    34   21   20 ar   
    35   22   21 ar   
    36   33   21 1    
    37   23   22 ar   
@<TRIPOS>SUBSTRUCTURE
     1 AMP600      1 GROUP   
@<TRIPOS>SET

