#    Name: 3bpz_CMP_1_INTS_M
#    Modification time : Mon Mar 24 19:56:03 2014

@<TRIPOS>MOLECULE
3bpz_CMP_1_INTS_M
   63     0    12     0     0
SMALL
NO_CHARGES


@<TRIPOS>ATOM
      1 N          54.4240    6.6840   39.0340 N.am      2 SEC2        0.0000 
      2 N          54.0900    7.4170   40.1910 N.am     10 SEL2        0.0000 
      3 N          54.7580    5.9510   37.8770 N.am      6 SEP2        0.0000 
      4 N          54.4940    6.1320   40.3825 N.am      2 SEC2        0.0000 
      5 N          54.8980    4.8470   40.5740 N.am      6 SEP2        0.0000 
      6 NZ         52.0410   10.5835   40.0455 N.4       3 LYC4        0.0000 
      7 NZ         53.0030    9.7270   40.5920 N.4      11 LYL4        0.0000 
      8 NZ         50.4180   11.5250   38.3280 N.4       7 LYP4        0.0000 
      9 N          54.1620   10.6360   41.0285 N.am      2 SEC2        0.0000 
     10 N          53.0030    9.7270   40.5920 N.am     10 SEL2        0.0000 
     11 N          55.3210   11.5450   41.4650 N.am      6 SEP2        0.0000 
     12 N          52.0410   10.5835   40.0455 N.am      2 SEC2        0.0000 
     13 N          51.0790   11.4400   39.4990 N.am      6 SEP2        0.0000 
     14 CA         50.1225    7.0510   38.6190 C.3       4 GLC5        0.0000 
     15 CA         51.2180    6.3780   40.2350 C.3      12 GLL5        0.0000 
     16 CA         49.0270    7.7240   37.0030 C.3       8 GLP5        0.0000 
     17 CA         51.5135    8.0635   38.7790 C.3       4 GLC5        0.0000 
     18 CA         51.8090    9.7490   37.3230 C.3       8 GLP5        0.0000 
     19 CA         51.4235    4.3515   39.7655 C.3       4 GLC5        0.0000 
     20 CA         51.6290    2.3250   39.2960 C.3       8 GLP5        0.0000 
     21 N          50.5350    8.1620   44.1305 N.am      2 SEC2        0.0000 
     22 N          51.2910    7.0520   44.5790 N.am     10 SEL2        0.0000 
     23 N          49.7790    9.2720   43.6820 N.am      6 SEP2        0.0000 
     24 N          50.9560    6.7715   46.1650 N.am      2 SEC2        0.0000 
     25 N          50.6210    6.4910   47.7510 N.am      6 SEP2        0.0000 
     26 O          52.0820    7.5080   45.5650 O.2       1 ALC1        0.0000 
     27 O          51.2910    7.0520   44.5790 O.2       9 ALL1        0.0000 
     28 O          52.8730    7.9640   46.5510 O.2       5 ALP1        0.0000 
     29 CA         50.2460    3.1165   42.8730 C.3       4 GLC5        0.0000 
     30 CA         51.1130    4.8590   43.5770 C.3      12 GLL5        0.0000 
     31 CA         49.3790    1.3740   42.1690 C.3       8 GLP5        0.0000 
     32 CA         49.4270    6.0340   44.1955 C.3       4 GLC5        0.0000 
     33 CA         47.7410    7.2090   44.8140 C.3       8 GLP5        0.0000 
     34 CA         53.6850    2.6520   45.8615 C.3       4 GLC5        0.0000 
     35 CA         52.3780    1.6200   44.7170 C.3      12 GLL5        0.0000 
     36 CA         54.9920    3.6840   47.0060 C.3       8 GLP5        0.0000 
     37 CA         54.3255    1.1160   43.7150 C.3       4 GLC5        0.0000 
     38 CA         56.2730    0.6120   42.7130 C.3       8 GLP5        0.0000 
     39 CA         50.6465   -0.6380   45.5260 C.3       4 GLC5        0.0000 
     40 CA         52.2570    0.5900   45.7730 C.3      12 GLL5        0.0000 
     41 CA         49.0360   -1.8660   45.2790 C.3       8 GLP5        0.0000 
     42 CA         53.0445    2.1400   46.8740 C.3       4 GLC5        0.0000 
     43 CA         53.8320    3.6900   47.9750 C.3       8 GLP5        0.0000 
     44 CA         49.3540    0.7390   46.3570 C.3       4 GLC5        0.0000 
     45 CA         50.5660    1.9160   46.7990 C.3      12 GLL5        0.0000 
     46 CA         48.1420   -0.4380   45.9150 C.3       8 GLP5        0.0000 
     47 CA         48.7430    2.9760   46.7810 C.3       4 GLC5        0.0000 
     48 CA         46.9200    4.0360   46.7630 C.3       8 GLP5        0.0000 
     49 CA         51.6995    3.3540   47.2650 C.3       4 GLC5        0.0000 
     50 CA         52.8330    4.7920   47.7310 C.3       8 GLP5        0.0000 
     51 CA         52.1645    3.7885   46.2875 C.3       4 GLC5        0.0000 
     52 CA         51.4960    2.7850   44.8440 C.3      12 GLL5        0.0000 
     53 CA         49.2138    5.6325   40.6702 C.3       4 GLC5        0.0000 
     54 CA         51.0590    6.2520   41.7440 C.3      12 GLL5        0.0000 
     55 CA         47.2890    4.9500   40.3510 C.3       8 GLP5        0.0000 
     56 CA         50.9835    8.2963   42.3815 C.3       4 GLC5        0.0000 
     57 CA         50.2550   10.2120   42.6560 C.3       8 GLP5        0.0000 
     58 CA         54.0093    6.3407   43.5120 C.3       4 GLC5        0.0000 
     59 CA         52.3650    6.5090   42.4700 C.3      12 GLL5        0.0000 
     60 CA         55.8140    6.4010   43.8540 C.3       8 GLP5        0.0000 
     61 CA         52.2057    5.1237   45.7272 C.3       4 GLC5        0.0000 
     62 CA         52.0440    6.0520   43.8700 C.3      12 GLL5        0.0000 
     63 CA         50.6580    1.7883   43.4748 C.3       4 GLC5        0.0000 
@<TRIPOS>BOND
@<TRIPOS>SUBSTRUCTURE
     1 ALC1       26 GROUP        1 X    ALC  0     ROOT ALC X 1
     2 SEC2        1 GROUP        1 X    SEC  0     **** SEC X 2
     3 LYC4        6 GROUP        1 X    LYC  0     **** LYC X 4
     4 GLC5       14 GROUP        1 X    GLC  0     **** GLC X 6
     5 ALP1       28 GROUP        1 Y    ALP  0     ROOT ALP Y 8
     6 SEP2        3 GROUP        1 Y    SEP  0     **** SEP Y 9
     7 LYP4        8 GROUP        1 Y    LYP  0     **** LYP Y 11
     8 GLP5       16 GROUP        1 Y    GLP  0     **** GLP Y 13
     9 ALL1       27 GROUP        1 Z    ALL  0     ROOT ALL Z 15
    10 SEL2        2 GROUP        1 Z    SEL  0     **** SEL Z 16
    11 LYL4        7 GROUP        1 Z    LYL  0     **** LYL Z 18
    12 GLL5       15 GROUP        1 Z    GLL  0     **** GLL Z 20
@<TRIPOS>SET

