#    Name: 3bpz_CMP_1_ligand
#    Modification time : Mon Mar 24 19:56:03 2014

@<TRIPOS>MOLECULE
3bpz_CMP_1_ligand
   33    36     1     0     0
SMALL
NO_CHARGES


@<TRIPOS>ATOM
      1 P          52.9620    8.2610   40.7230 P.3       1 CMP641      0.0000 
      2 O1P        54.0900    7.4170   40.1910 O.co2     1 CMP641      0.0000 
      3 O2P        53.0030    9.7270   40.5920 O.co2     1 CMP641      0.0000 
      4 O5'        51.5920    7.7490   40.0370 O.3       1 CMP641      0.0000 
      5 C5'        51.2180    6.3780   40.2350 C.3       1 CMP641      0.0000 
      6 C4'        51.0590    6.2520   41.7440 C.3       1 CMP641      0.0000 
      7 O4'        50.7560    4.9440   42.2000 O.3       1 CMP641      0.0000 
      8 C3'        52.3650    6.5090   42.4700 C.3       1 CMP641      0.0000 
      9 O3'        52.7160    7.8740   42.2740 O.3       1 CMP641      0.0000 
     10 C2'        52.0440    6.0520   43.8700 C.3       1 CMP641      0.0000 
     11 O2'        51.2910    7.0520   44.5790 O.3       1 CMP641      0.0000 
     12 C1'        51.1130    4.8590   43.5770 C.3       1 CMP641      0.0000 
     13 N9         51.7800    3.5660   43.8130 N.pl3     1 CMP641      0.0000 
     14 C8         52.7500    3.0070   43.0550 C.2       1 CMP641      0.0000 
     15 N7         53.1110    1.8030   43.6040 N.2       1 CMP641      0.0000 
     16 C5         52.3780    1.6200   44.7170 C.ar      1 CMP641      0.0000 
     17 C6         52.2570    0.5900   45.7730 C.ar      1 CMP641      0.0000 
     18 N6         53.0210   -0.5290   45.7260 N.pl3     1 CMP641      0.0000 
     19 N1         51.3460    0.8130   46.7460 N.ar      1 CMP641      0.0000 
     20 C2         50.5660    1.9160   46.7990 C.ar      1 CMP641      0.0000 
     21 N3         50.6150    2.8940   45.8710 N.ar      1 CMP641      0.0000 
     22 C4         51.4960    2.7850   44.8440 C.ar      1 CMP641      0.0000 
     23 H          51.9865    5.7000   39.9162 H         1 CMP641      0.0000 
     24 H          50.2774    6.1456   39.7734 H         1 CMP641      0.0000 
     25 H          50.3472    6.9623   42.1106 H         1 CMP641      0.0000 
     26 H          53.0794    5.8215   42.0406 H         1 CMP641      0.0000 
     27 H          52.8885    5.7078   44.3444 H         1 CMP641      0.0000 
     28 H          50.2468    4.9562   44.2004 H         1 CMP641      0.0000 
     29 H          53.1342    3.3853   42.2543 H         1 CMP641      0.0000 
     30 H          53.6246   -0.6167   44.9336 H         1 CMP641      0.0000 
     31 H          52.9133   -1.1676   46.4879 H         1 CMP641      0.0000 
     32 H          49.8850    2.0159   47.6073 H         1 CMP641      0.0000 
     33 H          51.8891    7.3460   45.3245 H         1 CMP641      0.0000 
@<TRIPOS>BOND
     1    2    1 ar   
     2    3    1 ar   
     3    4    1 1    
     4    9    1 1    
     5    5    4 1    
     6    6    5 1    
     7   23    5 1    
     8   24    5 1    
     9    7    6 1    
    10    8    6 1    
    11   25    6 1    
    12   12    7 1    
    13    9    8 1    
    14   10    8 1    
    15   26    8 1    
    16   11   10 1    
    17   12   10 1    
    18   27   10 1    
    19   33   11 1    
    20   13   12 1    
    21   28   12 1    
    22   14   13 1    
    23   22   13 1    
    24   15   14 2    
    25   29   14 1    
    26   16   15 1    
    27   17   16 ar   
    28   22   16 ar   
    29   18   17 1    
    30   19   17 ar   
    31   30   18 1    
    32   31   18 1    
    33   20   19 ar   
    34   21   20 ar   
    35   32   20 1    
    36   22   21 ar   
@<TRIPOS>SUBSTRUCTURE
     1 CMP641      1 GROUP   
@<TRIPOS>SET

