#    Name: 1dkf_BMS_1_INTS_M
#    Modification time : Mon Mar 24 22:04:14 2014

@<TRIPOS>MOLECULE
1dkf_BMS_1_INTS_M
   92     0     6     0     0
SMALL
NO_CHARGES


@<TRIPOS>ATOM
      1 CA        -23.0015   79.2650   -1.6360 C.3       2 GLC5        0.0000 
      2 CA        -22.0590   79.3960    0.0140 C.3       6 GLL5        0.0000 
      3 CA        -23.9440   79.1340   -3.2860 C.3       4 GLP5        0.0000 
      4 N         -22.8900   75.2450   -0.4630 N.am      1 SEC2        0.0000 
      5 N         -23.2700   76.6500   -0.2670 N.am      5 SEL2        0.0000 
      6 N         -22.5100   73.8400   -0.6590 N.am      3 SEP2        0.0000 
      7 N         -21.2955   74.6005    1.7685 N.am      1 SEC2        0.0000 
      8 N         -22.1170   75.9310    1.6330 N.am      5 SEL2        0.0000 
      9 N         -20.4740   73.2700    1.9040 N.am      3 SEP2        0.0000 
     10 N         -22.3135   74.8855    0.4870 N.am      1 SEC2        0.0000 
     11 N         -23.0745   74.9555    1.8195 N.am      1 SEC2        0.0000 
     12 N         -24.0320   73.9800    2.0060 N.am      3 SEP2        0.0000 
     13 CA        -19.6280   83.1795    3.5400 C.3       2 GLC5        0.0000 
     14 CA        -18.4270   83.7530    1.8290 C.3       6 GLL5        0.0000 
     15 CA        -20.8290   82.6060    5.2510 C.3       4 GLP5        0.0000 
     16 CA        -19.3680   88.3910   -2.5605 C.3       2 GLC5        0.0000 
     17 CA        -18.9370   88.3650   -0.4320 C.3       6 GLL5        0.0000 
     18 CA        -19.7990   88.4170   -4.6890 C.3       4 GLP5        0.0000 
     19 CA        -16.1620   90.2325   -0.9440 C.3       2 GLC5        0.0000 
     20 CA        -17.4470   88.4840   -0.5240 C.3       6 GLL5        0.0000 
     21 CA        -14.8770   91.9810   -1.3640 C.3       4 GLP5        0.0000 
     22 CA        -17.9155   87.8885    3.3745 C.3       2 GLC5        0.0000 
     23 CA        -16.8140   88.7880    1.9260 C.3       6 GLL5        0.0000 
     24 CA        -19.0170   86.9890    4.8230 C.3       4 GLP5        0.0000 
     25 CA        -15.9070   89.6995    3.1005 C.3       2 GLC5        0.0000 
     26 CA        -15.0000   90.6110    4.2750 C.3       4 GLP5        0.0000 
     27 CA        -18.4620   90.1125    1.7995 C.3       2 GLC5        0.0000 
     28 CA        -20.1100   91.4370    1.6730 C.3       4 GLP5        0.0000 
     29 CA        -14.0725   87.0880   -1.2480 C.3       2 GLC5        0.0000 
     30 CA        -15.1860   87.7190    0.2480 C.3       6 GLL5        0.0000 
     31 CA        -12.9590   86.4570   -2.7440 C.3       4 GLP5        0.0000 
     32 CA        -13.7625   88.8790    1.0325 C.3       2 GLC5        0.0000 
     33 CA        -12.3390   90.0390    1.8170 C.3       4 GLP5        0.0000 
     34 CA        -14.3815   89.5230   -0.7725 C.3       2 GLC5        0.0000 
     35 CA        -13.5770   91.3270   -1.7930 C.3       4 GLP5        0.0000 
     36 CA        -20.3090   87.1880    3.2070 C.3       2 GLC5        0.0000 
     37 CA        -21.6010   87.3870    1.5910 C.3       6 GLL5        0.0000 
     38 CA        -22.2975   89.3700    0.9330 C.3       2 GLC5        0.0000 
     39 CA        -22.9940   91.3530    0.2750 C.3       4 GLP5        0.0000 
     40 CA        -23.4300   89.3710    0.4770 C.3       2 GLC5        0.0000 
     41 CA        -23.8660   87.3890    0.6790 C.3       6 GLL5        0.0000 
     42 CA        -22.3385   89.2845   -1.2460 C.3       2 GLC5        0.0000 
     43 CA        -21.8230   87.2590   -0.9880 C.3       6 GLL5        0.0000 
     44 CA        -22.8540   91.3100   -1.5040 C.3       4 GLP5        0.0000 
     45 CA        -27.0615   85.5490   -0.2010 C.3       2 GLC5        0.0000 
     46 CA        -26.1650   87.3960   -0.3480 C.3       6 GLL5        0.0000 
     47 CA        -27.9580   83.7020   -0.0540 C.3       4 GLP5        0.0000 
     48 CA        -21.5040   81.4348    3.4125 C.3       2 GLC5        0.0000 
     49 CA        -20.8010   80.9800    1.6000 C.3       6 GLL5        0.0000 
     50 CA        -22.2660   82.4450    4.7430 C.3       4 GLP5        0.0000 
     51 CA        -22.5415   78.8490    3.2978 C.3       2 GLC5        0.0000 
     52 CA        -20.6830   79.8690    2.5640 C.3       6 GLL5        0.0000 
     53 CA        -24.1260   78.4890    4.1740 C.3       4 GLP5        0.0000 
     54 CA        -18.9955   78.8470    2.5263 C.3       2 GLC5        0.0000 
     55 CA        -21.2310   78.5490    2.2790 C.3       6 GLL5        0.0000 
     56 CA        -17.0340   78.4850    2.6310 C.3       4 GLP5        0.0000 
     57 CA        -22.9931   81.2972    0.1050 C.3       2 GLC5        0.0000 
     58 CA        -24.3850   82.4670   -0.2800 C.3       4 GLP5        0.0000 
     59 CA        -23.3335   79.6485    1.6886 C.3       2 GLC5        0.0000 
     60 CA        -21.4860   80.7380    0.3320 C.3       6 GLL5        0.0000 
     61 CA        -24.9270   79.5130    2.9570 C.3       4 GLP5        0.0000 
     62 CA        -18.9393   85.6240    3.1750 C.3       2 GLC5        0.0000 
     63 CA        -18.4992   86.6248    2.9055 C.3       2 GLC5        0.0000 
     64 CA        -18.7300   86.1160    0.8550 C.3       6 GLL5        0.0000 
     65 CA        -17.8502   85.8433    3.3703 C.3       2 GLC5        0.0000 
     66 CA        -16.3960   85.3350    1.7470 C.3       6 GLL5        0.0000 
     67 CA        -16.4748   84.5197    3.9347 C.3       2 GLC5        0.0000 
     68 CA        -16.2660   84.3420    5.9520 C.3       4 GLP5        0.0000 
     69 CA        -19.6807   89.6255    0.7810 C.3       2 GLC5        0.0000 
     70 CA        -19.5660   87.2630    0.2100 C.3       6 GLL5        0.0000 
     71 CA        -18.0240   89.8208   -1.8940 C.3       2 GLC5        0.0000 
     72 CA        -17.8560   91.2170   -3.3100 C.3       4 GLP5        0.0000 
     73 CA        -18.6356   86.6430   -1.6338 C.3       2 GLC5        0.0000 
     74 CA        -18.9220   85.1370   -2.9500 C.3       4 GLP5        0.0000 
     75 CA        -22.5168   85.5300   -0.4527 C.3       2 GLC5        0.0000 
     76 CA        -20.9640   87.2990    0.2130 C.3       6 GLL5        0.0000 
     77 CA        -23.6400   83.7810   -0.5180 C.3       4 GLP5        0.0000 
     78 CA        -20.6962   89.3900    1.2875 C.3       2 GLC5        0.0000 
     79 CA        -23.5953   85.5635   -0.2903 C.3       2 GLC5        0.0000 
     80 CA        -24.6872   85.5990   -0.1270 C.3       2 GLC5        0.0000 
     81 CA        -25.1103   89.0405   -0.8385 C.3       2 GLC5        0.0000 
     82 CA        -25.3040   87.4380    0.8760 C.3       6 GLL5        0.0000 
     83 CA        -24.4860   90.6640   -1.9410 C.3       4 GLP5        0.0000 
     84 CA        -25.5915   86.2239    1.7084 C.3       2 GLC5        0.0000 
     85 CA        -25.8080   85.0430    3.2020 C.3       4 GLP5        0.0000 
     86 CA        -24.3845   86.1945   -3.2700 C.3       2 GLC5        0.0000 
     87 CA        -25.5490   87.3130   -1.7790 C.3       6 GLL5        0.0000 
     88 CA        -23.9630   85.1000   -4.6650 C.3       4 GLP5        0.0000 
     89 CA        -24.2230   85.5350   -1.1965 C.3       2 GLC5        0.0000 
     90 CA        -24.0630   87.2650   -1.9710 C.3       6 GLL5        0.0000 
     91 CA        -24.5425   88.9812   -1.7621 C.3       2 GLC5        0.0000 
     92 CA        -23.2350   87.3030   -0.8040 C.3       6 GLL5        0.0000 
@<TRIPOS>BOND
@<TRIPOS>SUBSTRUCTURE
     1 SEC2        4 GROUP        1 X    SEC  0     ROOT SEC X 2
     2 GLC5        1 GROUP        1 X    GLC  0     **** GLC X 6
     3 SEP2        6 GROUP        1 Y    SEP  0     ROOT SEP Y 9
     4 GLP5        3 GROUP        1 Y    GLP  0     **** GLP Y 13
     5 SEL2        5 GROUP        1 Z    SEL  0     ROOT SEL Z 16
     6 GLL5        2 GROUP        1 Z    GLL  0     **** GLL Z 20
@<TRIPOS>SET

