#    Name: 1dkf_BMS_1_ligand
#    Modification time : Mon Mar 24 22:04:14 2014

@<TRIPOS>MOLECULE
1dkf_BMS_1_ligand
   59    63     1     0     0
SMALL
NO_CHARGES


@<TRIPOS>ATOM
      1 C5        -20.8010   80.9800    1.6000 C.ar      1 BMS600      0.0000 
      2 C6        -20.6830   79.8690    2.5640 C.ar      1 BMS600      0.0000 
      3 C7        -21.2310   78.5490    2.2790 C.ar      1 BMS600      0.0000 
      4 C2        -21.9290   78.2640    1.0030 C.ar      1 BMS600      0.0000 
      5 C3        -22.0590   79.3960    0.0140 C.ar      1 BMS600      0.0000 
      6 C4        -21.4860   80.7380    0.3320 C.ar      1 BMS600      0.0000 
      7 C1        -22.4750   76.8750    0.7720 C.2       1 BMS600      0.0000 
      8 O1        -23.2700   76.6500   -0.2670 O.co2     1 BMS600      0.0000 
      9 O2        -22.1170   75.9310    1.6330 O.co2     1 BMS600      0.0000 
     10 N1        -20.2690   82.2240    1.9010 N.am      1 BMS600      0.0000 
     11 C8        -18.9210   82.4760    2.1780 C.2       1 BMS600      0.0000 
     12 C9        -18.4270   83.7530    1.8290 C.ar      1 BMS600      0.0000 
     13 C10       -19.2960   84.7650    1.2250 C.ar      1 BMS600      0.0000 
     14 C11       -18.7300   86.1160    0.8550 C.ar      1 BMS600      0.0000 
     15 C12       -17.2330   86.4050    1.1210 C.ar      1 BMS600      0.0000 
     16 C13       -16.3960   85.3350    1.7470 C.ar      1 BMS600      0.0000 
     17 C14       -16.9710   84.0600    2.0880 C.ar      1 BMS600      0.0000 
     18 O3        -18.1280   81.6230    2.7080 O.2       1 BMS600      0.0000 
     19 C15       -19.5660   87.2630    0.2100 C.3       1 BMS600      0.0000 
     20 C16       -18.9370   88.3650   -0.4320 C.3       1 BMS600      0.0000 
     21 C17       -17.4470   88.4840   -0.5240 C.3       1 BMS600      0.0000 
     22 C18       -16.6670   87.8190    0.7180 C.3       1 BMS600      0.0000 
     23 C19       -16.8140   88.7880    1.9260 C.3       1 BMS600      0.0000 
     24 C20       -15.1860   87.7190    0.2480 C.3       1 BMS600      0.0000 
     25 C21       -20.9640   87.2990    0.2130 C.ar      1 BMS600      0.0000 
     26 C22       -21.6010   87.3870    1.5910 C.ar      1 BMS600      0.0000 
     27 N2        -22.9850   87.4320    1.7790 N.ar      1 BMS600      0.0000 
     28 C23       -23.8660   87.3890    0.6790 C.ar      1 BMS600      0.0000 
     29 C24       -23.2350   87.3030   -0.8040 C.ar      1 BMS600      0.0000 
     30 C25       -21.8230   87.2590   -0.9880 C.ar      1 BMS600      0.0000 
     31 C26       -25.3040   87.4380    0.8760 C.ar      1 BMS600      0.0000 
     32 C27       -26.1650   87.3960   -0.3480 C.ar      1 BMS600      0.0000 
     33 C28       -25.5490   87.3130   -1.7790 C.ar      1 BMS600      0.0000 
     34 C29       -24.0630   87.2650   -1.9710 C.ar      1 BMS600      0.0000 
     35 H         -20.2072   80.0360    3.4448 H         1 BMS600      0.0000 
     36 H         -21.1386   77.8055    2.9588 H         1 BMS600      0.0000 
     37 H         -22.5271   79.2419   -0.8472 H         1 BMS600      0.0000 
     38 H         -21.5800   81.4764   -0.3448 H         1 BMS600      0.0000 
     39 H         -20.9328   83.0547    1.9245 H         1 BMS600      0.0000 
     40 H         -20.2582   84.5835    1.0507 H         1 BMS600      0.0000 
     41 H         -15.4237   85.5320    1.9218 H         1 BMS600      0.0000 
     42 H         -16.4103   83.3315    2.5130 H         1 BMS600      0.0000 
     43 H         -19.5734   86.5413   -1.0431 H         1 BMS600      0.0000 
     44 H         -19.3198   89.3507    0.0303 H         1 BMS600      0.0000 
     45 H         -19.3443   88.4692   -1.5067 H         1 BMS600      0.0000 
     46 H         -17.1386   89.5356   -0.5592 H         1 BMS600      0.0000 
     47 H         -17.0691   87.9932   -1.4288 H         1 BMS600      0.0000 
     48 H         -20.9463   87.4115    2.3806 H         1 BMS600      0.0000 
     49 H         -21.4045   87.2029   -1.8883 H         1 BMS600      0.0000 
     50 H         -25.7140   87.4962    1.7643 H         1 BMS600      0.0000 
     51 H         -27.1572   87.4203   -0.2748 H         1 BMS600      0.0000 
     52 H         -26.1663   87.2932   -2.5498 H         1 BMS600      0.0000 
     53 H         -23.6969   87.2090   -2.8875 H         1 BMS600      0.0000 
     54 H         -16.3120   88.4618    2.7270 H         1 BMS600      0.0000 
     55 H         -16.4661   89.7013    1.7140 H         1 BMS600      0.0000 
     56 H         -17.7691   88.8950    2.2022 H         1 BMS600      0.0000 
     57 H         -14.8184   88.6113   -0.0139 H         1 BMS600      0.0000 
     58 H         -14.5921   87.3567    0.9663 H         1 BMS600      0.0000 
     59 H         -15.0877   87.1174   -0.5447 H         1 BMS600      0.0000 
@<TRIPOS>BOND
     1    2    1 ar   
     2    6    1 ar   
     3   10    1 1    
     4    3    2 ar   
     5   35    2 1    
     6    4    3 ar   
     7   36    3 1    
     8    5    4 ar   
     9    7    4 1    
    10    6    5 ar   
    11   37    5 1    
    12   38    6 1    
    13    8    7 ar   
    14    9    7 ar   
    15   11   10 am   
    16   39   10 1    
    17   12   11 1    
    18   18   11 2    
    19   13   12 ar   
    20   17   12 ar   
    21   14   13 ar   
    22   40   13 1    
    23   15   14 ar   
    24   19   14 1    
    25   16   15 ar   
    26   22   15 1    
    27   17   16 ar   
    28   41   16 1    
    29   42   17 1    
    30   20   19 1    
    31   25   19 1    
    32   43   19 1    
    33   21   20 1    
    34   44   20 1    
    35   45   20 1    
    36   22   21 1    
    37   46   21 1    
    38   47   21 1    
    39   23   22 1    
    40   24   22 1    
    41   54   23 1    
    42   55   23 1    
    43   56   23 1    
    44   57   24 1    
    45   58   24 1    
    46   59   24 1    
    47   26   25 ar   
    48   30   25 ar   
    49   27   26 ar   
    50   48   26 1    
    51   28   27 ar   
    52   29   28 ar   
    53   31   28 ar   
    54   30   29 ar   
    55   34   29 ar   
    56   49   30 1    
    57   32   31 ar   
    58   50   31 1    
    59   33   32 ar   
    60   51   32 1    
    61   34   33 ar   
    62   52   33 1    
    63   53   34 1    
@<TRIPOS>SUBSTRUCTURE
     1 BMS600      1 GROUP   
@<TRIPOS>SET

