#    Name: 4FYT_1_CAVITY_N1_6.mol2
#    Modification time : Mon Mar 10 22:04:14 2014

@<TRIPOS>MOLECULE
4FYT_1_CAVITY_N1_6.mol2
  146     0     6     0     0
SMALL
NO_CHARGES


@<TRIPOS>ATOM
      1 CA        109.9140   17.0815   21.8375 C.3       5 GLY6        0.0000 
      2 CA        109.0473   16.1975   20.9906 C.3       5 GLY6        0.0000 
      3 N         108.3183   17.3280   23.2133 N.2       2 ALA2        0.0000 
      4 N         108.7804   18.0527   21.9840 N.2       2 ALA2        0.0000 
      5 N         109.2424   18.7774   20.7547 N.2       2 ALA2        0.0000 
      6 CZ        107.4516   16.4440   22.3664 C.ar      4 PHE5        0.0000 
      7 CA        107.9136   17.1687   21.1371 C.3       5 GLY6        0.0000 
      8 N         108.3756   17.8934   19.9077 N.2       2 ALA2        0.0000 
      9 CA        106.5848   15.5600   21.5195 C.3       5 GLY6        0.0000 
     10 CA        107.5088   17.0094   19.0608 C.3       5 GLY6        0.0000 
     11 CA        104.8513   13.7920   19.8257 C.3       5 GLY6        0.0000 
     12 OG        107.6467   19.0239   22.1305 O.2       1 SER1        0.0000 
     13 OG        108.1087   19.7487   20.9011 O.2       1 SER1        0.0000 
     14 CZ        106.3179   17.4152   22.5129 C.ar      4 PHE5        0.0000 
     15 OG        106.7799   18.1399   21.2836 O.2       1 SER1        0.0000 
     16 OG        107.2419   18.8647   20.0542 O.2       1 SER1        0.0000 
     17 N         107.7040   19.5894   18.8249 N.2       2 ALA2        0.0000 
     18 CZ        105.4511   16.5312   21.6660 C.ar      4 PHE5        0.0000 
     19 CA        105.9131   17.2559   20.4367 C.3       5 GLY6        0.0000 
     20 OG        106.3752   17.9807   19.2073 O.2       1 SER1        0.0000 
     21 N         106.8372   18.7054   17.9780 N.2       2 ALA2        0.0000 
     22 NZ        107.2992   19.4301   16.7486 N.2       3 LYS4        0.0000 
     23 NZ        107.7612   20.1549   15.5193 N.2       3 LYS4        0.0000 
     24 CA        104.5843   15.6472   20.8191 C.3       5 GLY6        0.0000 
     25 CA        105.0464   16.3719   19.5898 C.3       5 GLY6        0.0000 
     26 O         105.5084   17.0967   18.3604 O.2       2 ALA2        0.0000 
     27 O         105.9704   17.8214   17.1311 O.2       2 ALA2        0.0000 
     28 CA        106.4324   18.5461   15.9017 C.3       5 GLY6        0.0000 
     29 CA        106.8945   19.2709   14.6724 C.3       5 GLY6        0.0000 
     30 CA        103.2555   14.0385   21.2015 C.3       5 GLY6        0.0000 
     31 CA        103.7176   14.7632   19.9722 C.3       5 GLY6        0.0000 
     32 O         104.1796   15.4879   18.7429 O.2       2 ALA2        0.0000 
     33 O         104.6416   16.2127   17.5135 O.2       2 ALA2        0.0000 
     34 CA        105.1037   16.9374   16.2842 C.3       5 GLY6        0.0000 
     35 CA        105.5657   17.6621   15.0548 C.3       5 GLY6        0.0000 
     36 OG        105.1842   18.3864   22.6594 O.2       1 SER1        0.0000 
     37 OG        106.5703   20.5606   18.9714 O.2       1 SER1        0.0000 
     38 N         107.0323   21.2854   17.7420 N.2       2 ALA2        0.0000 
     39 CA        103.8554   16.7777   23.0419 C.3       5 GLY6        0.0000 
     40 OG        104.3174   17.5024   21.8125 O.2       1 SER1        0.0000 
     41 OG        104.7794   18.2272   20.5832 O.2       1 SER1        0.0000 
     42 OG        105.2415   18.9519   19.3538 O.2       1 SER1        0.0000 
     43 CZ        105.7035   19.6766   18.1245 C.ar      4 PHE5        0.0000 
     44 DU        106.1655   20.4014   16.8951 H         6 CUB7        0.0000 
     45 CA        106.6276   21.1261   15.6658 C.3       5 GLY6        0.0000 
     46 CA        107.0896   21.8509   14.4365 C.3       5 GLY6        0.0000 
     47 CA        103.4507   16.6184   20.9656 C.3       5 GLY6        0.0000 
     48 DU        103.9127   17.3432   19.7363 H         6 CUB7        0.0000 
     49 DU        104.3747   18.0679   18.5069 H         6 CUB7        0.0000 
     50 DU        104.8367   18.7926   17.2776 H         6 CUB7        0.0000 
     51 DU        105.2988   19.5174   16.0482 H         6 CUB7        0.0000 
     52 CA        105.7608   20.2421   14.8189 C.3       5 GLY6        0.0000 
     53 CA        102.1219   15.0097   21.3480 C.3       5 GLY6        0.0000 
     54 DU        102.5839   15.7344   20.1187 H         6 CUB7        0.0000 
     55 DU        103.0459   16.4592   18.8894 H         6 CUB7        0.0000 
     56 DU        103.5079   17.1839   17.6600 H         6 CUB7        0.0000 
     57 DU        103.9700   17.9086   16.4307 H         6 CUB7        0.0000 
     58 O         104.4320   18.6334   15.2013 O.2       2 ALA2        0.0000 
     59 O         104.8940   19.3581   13.9720 O.2       2 ALA2        0.0000 
     60 CA        101.2551   14.1257   20.5011 C.3       5 GLY6        0.0000 
     61 DU        101.7171   14.8504   19.2718 H         6 CUB7        0.0000 
     62 DU        102.6412   16.2999   16.8131 H         6 CUB7        0.0000 
     63 DU        103.1032   17.0246   15.5838 H         6 CUB7        0.0000 
     64 O         103.5652   17.7494   14.3544 O.2       2 ALA2        0.0000 
     65 N         103.1837   18.4737   21.9590 N.2       2 ALA2        0.0000 
     66 OG        103.6458   19.1984   20.7297 O.2       1 SER1        0.0000 
     67 CZ        104.1078   19.9231   19.5003 C.ar      4 PHE5        0.0000 
     68 CZ        104.5698   20.6479   18.2710 C.ar      4 PHE5        0.0000 
     69 CZ        105.0318   21.3726   17.0416 C.ar      4 PHE5        0.0000 
     70 O         105.4939   22.0973   15.8123 O.2       2 ALA2        0.0000 
     71 O         105.9559   22.8221   14.5829 O.2       2 ALA2        0.0000 
     72 N         101.8549   16.8649   22.3414 N.2       2 ALA2        0.0000 
     73 N         102.3170   17.5897   21.1121 N.2       2 ALA2        0.0000 
     74 DU        102.7790   18.3144   19.8828 H         6 CUB7        0.0000 
     75 CZ        103.2410   19.0391   18.6534 C.ar      4 PHE5        0.0000 
     76 CZ        103.7030   19.7639   17.4241 C.ar      4 PHE5        0.0000 
     77 DU        104.1651   20.4886   16.1947 H         6 CUB7        0.0000 
     78 DU        104.6271   21.2133   14.9654 H         6 CUB7        0.0000 
     79 CA        105.0891   21.9381   13.7360 C.3       5 GLY6        0.0000 
     80 N         100.9882   15.9809   21.4945 N.2       2 ALA2        0.0000 
     81 DU        101.4502   16.7057   20.2652 H         6 CUB7        0.0000 
     82 DU        103.2983   19.6046   15.3478 H         6 CUB7        0.0000 
     83 O         103.7603   20.3293   14.1185 O.2       2 ALA2        0.0000 
     84 CA        104.2224   21.0541   12.8891 C.3       5 GLY6        0.0000 
     85 CA        104.6844   21.7788   11.6598 C.3       5 GLY6        0.0000 
     86 O         100.1214   15.0969   20.6476 O.2       2 ALA2        0.0000 
     87 O         100.5834   15.8217   19.4183 O.2       2 ALA2        0.0000 
     88 DU        101.0455   16.5464   18.1889 H         6 CUB7        0.0000 
     89 DU        101.9695   17.9959   15.7303 H         6 CUB7        0.0000 
     90 O         102.4315   18.7206   14.5009 O.2       2 ALA2        0.0000 
     91 O         102.8936   19.4453   13.2716 O.2       2 ALA2        0.0000 
     92 O         103.3556   20.1701   12.0422 O.2       2 ALA2        0.0000 
     93 OG        103.8176   20.8948   10.8129 O.2       1 SER1        0.0000 
     94 CA        102.9509   20.0108    9.9660 C.3       5 GLY6        0.0000 
     95 CZ        103.8982   22.3438   17.1881 C.ar      4 PHE5        0.0000 
     96 O         104.3602   23.0686   15.9588 O.2       2 ALA2        0.0000 
     97 N         101.1833   18.5609   21.2586 N.2       2 ALA2        0.0000 
     98 DU        101.6453   19.2856   20.0293 H         6 CUB7        0.0000 
     99 CZ        102.1073   20.0104   18.7999 C.ar      4 PHE5        0.0000 
    100 CZ        102.5694   20.7351   17.5706 C.ar      4 PHE5        0.0000 
    101 DU        103.0314   21.4598   16.3412 H         6 CUB7        0.0000 
    102 DU        103.4934   22.1846   15.1119 H         6 CUB7        0.0000 
    103 NZ        103.9554   22.9093   13.8825 N.2       3 LYS4        0.0000 
    104 N          99.3925   16.2274   22.8704 N.2       2 ALA2        0.0000 
    105 N          99.8545   16.9522   21.6410 N.2       2 ALA2        0.0000 
    106 DU        100.3165   17.6769   20.4117 H         6 CUB7        0.0000 
    107 DU        102.6266   21.3006   14.2650 H         6 CUB7        0.0000 
    108 DU        103.0887   22.0253   13.0356 H         6 CUB7        0.0000 
    109 OG        103.5507   22.7500   11.8063 O.2       1 SER1        0.0000 
    110 O          99.4497   16.7929   19.5648 O.2       2 ALA2        0.0000 
    111 DU         99.9118   17.5176   18.3354 H         6 CUB7        0.0000 
    112 DU        101.2979   19.6918   14.6474 H         6 CUB7        0.0000 
    113 DU        101.7599   20.4166   13.4181 H         6 CUB7        0.0000 
    114 DU        102.2219   21.1413   12.1887 H         6 CUB7        0.0000 
    115 OG        102.6839   21.8660   10.9594 O.2       1 SER1        0.0000 
    116 O         100.8931   19.5326   12.5712 O.2       2 ALA2        0.0000 
    117 O         101.3551   20.2573   11.3418 O.2       2 ALA2        0.0000 
    118 CZ        102.7645   23.3151   17.3346 C.ar      4 PHE5        0.0000 
    119 NZ        103.2265   24.0398   16.1053 N.2       3 LYS4        0.0000 
    120 N         100.0496   19.5321   21.4051 N.2       2 ALA2        0.0000 
    121 CZ        100.5116   20.2569   20.1758 C.ar      4 PHE5        0.0000 
    122 CZ        100.9736   20.9816   18.9464 C.ar      4 PHE5        0.0000 
    123 CZ        101.4357   21.7063   17.7171 C.ar      4 PHE5        0.0000 
    124 CZ        101.8977   22.4311   16.4877 C.ar      4 PHE5        0.0000 
    125 DU        102.3597   23.1558   15.2584 H         6 CUB7        0.0000 
    126 NZ        102.8218   23.8805   14.0290 N.2       3 LYS4        0.0000 
    127 N          98.2588   17.1986   23.0169 N.2       2 ALA2        0.0000 
    128 N          98.7208   17.9234   21.7875 N.2       2 ALA2        0.0000 
    129 DU         99.1828   18.6481   20.5582 H         6 CUB7        0.0000 
    130 DU         99.6449   19.3729   19.3288 H         6 CUB7        0.0000 
    131 O         100.1069   20.0976   18.0995 O.2       2 ALA2        0.0000 
    132 DU        100.5689   20.8223   16.8702 H         6 CUB7        0.0000 
    133 DU        101.0309   21.5471   15.6408 H         6 CUB7        0.0000 
    134 DU        101.4930   22.2718   14.4115 H         6 CUB7        0.0000 
    135 NZ        101.9550   22.9965   13.1821 N.2       3 LYS4        0.0000 
    136 O          98.3161   17.7641   19.7113 O.2       2 ALA2        0.0000 
    137 O          98.7781   18.4889   18.4819 O.2       2 ALA2        0.0000 
    138 O          99.2401   19.2136   17.2526 O.2       2 ALA2        0.0000 
    139 DU         99.7021   19.9383   16.0233 H         6 CUB7        0.0000 
    140 O          98.9159   20.5034   21.5516 O.2       2 ALA2        0.0000 
    141 O          99.3779   21.2281   20.3222 O.2       2 ALA2        0.0000 
    142 CA         97.5871   18.8946   21.9340 C.3       5 GLY6        0.0000 
    143 O          98.0491   19.6194   20.7047 O.2       2 ALA2        0.0000 
    144 O          98.5112   20.3441   19.4753 O.2       2 ALA2        0.0000 
    145 N          96.7203   18.0106   21.0871 N.2       2 ALA2        0.0000 
    146 O          97.1824   18.7353   19.8578 O.2       2 ALA2        0.0000 
@<TRIPOS>BOND
@<TRIPOS>SUBSTRUCTURE
     1 SER1       12 GROUP   
     2 ALA2        3 GROUP   
     3 LYS4       22 GROUP   
     4 PHE5        6 GROUP   
     5 GLY6        1 GROUP   
     6 CUB7       44 GROUP   
@<TRIPOS>SET

