#    Name: 4fyt_VAL_VAL_ASP_L2O_1_INTS_M
#    Modification time : Mon Mar 24 21:06:02 2014

@<TRIPOS>MOLECULE
4fyt_VAL_VAL_ASP_L2O_1_INTS_M
   89     0    18     0     0
SMALL
NO_CHARGES


@<TRIPOS>ATOM
      1 O         108.9255   18.3125   18.2495 O.2       1 ALC1        0.0000 
      2 O         107.6130   19.2560   18.2040 O.2      13 ALL1        0.0000 
      3 O         110.2380   17.3690   18.2950 O.2       7 ALP1        0.0000 
      4 N         106.7960   15.7440   17.5250 N.am      2 SEC2        0.0000 
      5 N         106.4660   16.8530   18.1890 N.am     14 SEL2        0.0000 
      6 N         107.1260   14.6350   16.8610 N.am      8 SEP2        0.0000 
      7 CA        107.9570   20.1795   14.1240 C.3       6 GLC5        0.0000 
      8 CA        106.6470   20.7710   15.7580 C.3      18 GLL5        0.0000 
      9 CA        109.2670   19.5880   12.4900 C.3      12 GLP5        0.0000 
     10 CA        107.7050   22.2405   16.4245 C.3       6 GLC5        0.0000 
     11 CA        108.7630   23.7100   17.0910 C.3      12 GLP5        0.0000 
     12 CA        102.9375   14.9445   22.3035 C.3       6 GLC5        0.0000 
     13 CA        102.1000   15.5150   20.6430 C.3      18 GLL5        0.0000 
     14 CA        103.7750   14.3740   23.9640 C.3      12 GLP5        0.0000 
     15 CA        101.2730   13.5935   21.0370 C.3       6 GLC5        0.0000 
     16 CA        100.4460   11.6720   21.4310 C.3      12 GLP5        0.0000 
     17 CA        103.4035   18.2565   23.2950 C.3       6 GLC5        0.0000 
     18 CA        103.2260   17.6120   21.3560 C.3      18 GLL5        0.0000 
     19 CA        103.5810   18.9010   25.2340 C.3      12 GLP5        0.0000 
     20 CA        103.9105   19.6630   21.3885 C.3       6 GLC5        0.0000 
     21 CA        104.5950   21.7140   21.4210 C.3      12 GLP5        0.0000 
     22 CA        103.5005   15.9930   22.6600 C.3       6 GLC5        0.0000 
     23 CA        105.6575   14.8280   15.3115 C.3       6 GLC5        0.0000 
     24 CA        103.9490   14.6490   15.1540 C.3      18 GLL5        0.0000 
     25 CA        107.3660   15.0070   15.4690 C.3      12 GLP5        0.0000 
     26 NZ        104.2295   15.2470   12.0735 N.4       4 LYC4        0.0000 
     27 NZ        103.7810   13.9890   12.8700 N.4      16 LYL4        0.0000 
     28 NZ        104.6780   16.5050   11.2770 N.4      10 LYP4        0.0000 
     29 NZ        104.6305   11.0785   14.7120 N.4       4 LYC4        0.0000 
     30 NZ        103.7100   12.3910   14.3600 N.4      16 LYL4        0.0000 
     31 NZ        105.5510    9.7660   15.0640 N.4      10 LYP4        0.0000 
     32 OD1       111.2550   20.7890   21.6035 O.co2     3 ASC3        0.0000 
     33 OD1       110.0620   20.4440   22.1520 O.co2    15 ASL3        0.0000 
     34 OD1       112.4480   21.1340   21.0550 O.co2     9 ASP3        0.0000 
     35 OD1       111.3915   21.4700   22.4545 O.co2     3 ASC3        0.0000 
     36 OD1       112.7210   22.4960   22.7570 O.co2     9 ASP3        0.0000 
     37 OD1       109.2670   21.5630   22.5350 O.co2     3 ASC3        0.0000 
     38 OD1       108.4720   22.6820   22.9180 O.co2     9 ASP3        0.0000 
     39 O         110.3480   19.7785   23.2960 O.2       1 ALC1        0.0000 
     40 O         110.0620   20.4440   22.1520 O.2      13 ALL1        0.0000 
     41 O         110.6340   19.1130   24.4400 O.2       7 ALP1        0.0000 
     42 O         111.2550   20.7890   21.6035 O.2       1 ALC1        0.0000 
     43 O         112.4480   21.1340   21.0550 O.2       7 ALP1        0.0000 
     44 O         111.3915   21.4700   22.4545 O.2       1 ALC1        0.0000 
     45 O         112.7210   22.4960   22.7570 O.2       7 ALP1        0.0000 
     46 O         109.2670   21.5630   22.5350 O.2       1 ALC1        0.0000 
     47 O         108.4720   22.6820   22.9180 O.2       7 ALP1        0.0000 
     48 O         110.3795   21.7380   23.2835 O.2       1 ALC1        0.0000 
     49 O         110.6970   23.0320   24.4150 O.2       7 ALP1        0.0000 
     50 CA        107.8230   18.8250   23.9935 C.3       6 GLC5        0.0000 
     51 CA        108.4140   17.6890   22.5020 C.3      18 GLL5        0.0000 
     52 CA        107.2320   19.9610   25.4850 C.3      12 GLP5        0.0000 
     53 CA        108.0310   16.2480   24.1185 C.3       6 GLC5        0.0000 
     54 CA        107.6480   14.8070   25.7350 C.3      12 GLP5        0.0000 
     55 CA        106.4445   18.5655   23.5945 C.3       6 GLC5        0.0000 
     56 CA        106.9350   17.4290   22.2170 C.3      18 GLL5        0.0000 
     57 CA        105.9540   19.7020   24.9720 C.3      12 GLP5        0.0000 
     58 CA        106.0345   15.9830   23.3930 C.3       6 GLC5        0.0000 
     59 CA        105.1340   14.5370   24.5690 C.3      12 GLP5        0.0000 
     60 CA        110.6655   16.7850   24.4385 C.3       6 GLC5        0.0000 
     61 CA        109.0890   16.3670   22.9260 C.3      18 GLL5        0.0000 
     62 CA        112.2420   17.2030   25.9510 C.3      12 GLP5        0.0000 
     63 CA        108.5105   15.3410   21.2755 C.3       6 GLC5        0.0000 
     64 CA        107.9320   14.3150   19.6250 C.3      12 GLP5        0.0000 
     65 CA        108.2730   15.1325   23.8135 C.3       6 GLC5        0.0000 
     66 CA        107.4570   13.8980   24.7010 C.3      12 GLP5        0.0000 
     67 CA        111.1345   19.0305   19.3825 C.3       6 GLC5        0.0000 
     68 CA        109.3260   20.2270   19.7660 C.3      18 GLL5        0.0000 
     69 CA        112.9430   17.8340   18.9990 C.3      12 GLP5        0.0000 
     70 CA        109.0445   21.9685   18.4285 C.3       6 GLC5        0.0000 
     71 CA        110.3125   22.2345   19.7340 C.3       6 GLC5        0.0000 
     72 CA        111.2990   24.2420   19.7020 C.3      12 GLP5        0.0000 
     73 Zn        109.1550   22.3105   19.7780 Zn        5 ZIC7        0.0000 
     74 Zn        109.7850   21.5780   19.6340 Zn       17 ZIL7        0.0000 
     75 Zn        108.5250   23.0430   19.9220 Zn       11 ZIP7        0.0000 
     76 N         110.7065   21.5500   18.7420 N.am      2 SEC2        0.0000 
     77 N         109.7850   21.5780   19.6340 N.am     14 SEL2        0.0000 
     78 N         111.6280   21.5220   17.8500 N.am      8 SEP2        0.0000 
     79 O         111.1165   21.3560   20.3445 O.2       1 ALC1        0.0000 
     80 O         109.7850   21.5780   19.6340 O.2      13 ALL1        0.0000 
     81 Zn        107.8745   22.1235   19.7030 Zn        5 ZIC7        0.0000 
     82 Zn        107.2240   21.2040   19.4840 Zn       17 ZIL7        0.0000 
     83 CA        106.5397   17.0267   15.6058 C.3       6 GLC5        0.0000 
     84 CA        106.3420   19.2980   16.0950 C.3      18 GLL5        0.0000 
     85 CA        110.9718   18.4387   21.7470 C.3       6 GLC5        0.0000 
     86 CA        109.1130   18.2280   21.2440 C.3      18 GLL5        0.0000 
     87 CA        112.8340   17.8690   22.2630 C.3      12 GLP5        0.0000 
     88 CA        110.7927   17.4485   22.4885 C.3       6 GLC5        0.0000 
     89 CA        107.8906   16.0044   20.8350 C.3       6 GLC5        0.0000 
@<TRIPOS>BOND
@<TRIPOS>SUBSTRUCTURE
     1 ALC1        1 GROUP        1 X    ALC  0     ROOT ALC X 1
     2 SEC2        4 GROUP        1 X    SEC  0     **** SEC X 2
     3 ASC3       32 GROUP        1 X    ASC  0     **** ASC X 3
     4 LYC4       26 GROUP        1 X    LYC  0     **** LYC X 4
     5 ZIC7       73 GROUP        1 X    ZIC  0     **** ZIC X 5
     6 GLC5        7 GROUP        1 X    GLC  0     **** GLC X 6
     7 ALP1        3 GROUP        1 Y    ALP  0     ROOT ALP Y 8
     8 SEP2        6 GROUP        1 Y    SEP  0     **** SEP Y 9
     9 ASP3       34 GROUP        1 Y    ASP  0     **** ASP Y 10
    10 LYP4       28 GROUP        1 Y    LYP  0     **** LYP Y 11
    11 ZIP7       75 GROUP        1 Y    ZIP  0     **** ZIP Y 12
    12 GLP5        9 GROUP        1 Y    GLP  0     **** GLP Y 13
    13 ALL1        2 GROUP        1 Z    ALL  0     ROOT ALL Z 15
    14 SEL2        5 GROUP        1 Z    SEL  0     **** SEL Z 16
    15 ASL3       33 GROUP        1 Z    ASL  0     **** ASL Z 17
    16 LYL4       27 GROUP        1 Z    LYL  0     **** LYL Z 18
    17 ZIL7       74 GROUP        1 Z    ZIL  0     **** ZIL Z 19
    18 GLL5        8 GROUP        1 Z    GLL  0     **** GLL Z 20
@<TRIPOS>SET

