#    Name: 4fyt_VAL_VAL_ASP_L2O_1_ligand
#    Modification time : Mon Mar 24 21:06:02 2014

@<TRIPOS>MOLECULE
4fyt_VAL_VAL_ASP_L2O_1_ligand
   70    69     4     0     0
SMALL
NO_CHARGES


@<TRIPOS>ATOM
      1 N         107.6130   19.2560   18.2040 N.am      1 VAL2        0.0000
      2 CA        106.2460   19.1500   17.6260 C.3       1 VAL2        0.0000
      3 C         105.7170   17.8130   18.1320 C.2       1 VAL2        0.0000
      4 O         106.4660   16.8530   18.1890 O.2       1 VAL2        0.0000
      5 CB        106.3420   19.2980   16.0950 C.3       1 VAL2        0.0000
      6 CG1       105.0850   18.7950   15.3900 C.3       1 VAL2        0.0000
      7 CG2       106.6470   20.7710   15.7580 C.3       1 VAL2        0.0000
      8 HNCA      108.3017   18.5567   17.9056 H         1 VAL2        0.0000
      9 HA        105.6458   19.9423   18.0308 H         1 VAL2        0.0000
     10 HB        107.1951   18.7027   15.7617 H         1 VAL2        0.0000
     11 H         105.1534   18.8892   14.3968 H         1 VAL2        0.0000
     12 H         104.9132   17.8287   15.5817 H         1 VAL2        0.0000
     13 H         104.2710   19.3000   15.6769 H         1 VAL2        0.0000
     14 HG21      107.5099   21.0736   16.1627 H         1 VAL2        0.0000
     15 HG22      106.7179   20.9193   14.7716 H         1 VAL2        0.0000
     16 HG23      105.9336   21.3848   16.0961 H         1 VAL2        0.0000
     17 N         104.4550   17.7610   18.5630 N.am      2 VAL3        0.0000
     18 CA        103.9380   16.5400   19.1940 C.3       2 VAL3        0.0000
     19 C         103.6080   15.4470   18.1670 C.2       2 VAL3        0.0000
     20 O         103.9640   14.2710   18.3780 O.2       2 VAL3        0.0000
     21 CB        102.7490   16.8140   20.1600 C.3       2 VAL3        0.0000
     22 CG1       102.1000   15.5150   20.6430 C.3       2 VAL3        0.0000
     23 CG2       103.2260   17.6120   21.3560 C.3       2 VAL3        0.0000
     24 HNCA      103.7960   18.5461   18.4804 H         2 VAL3        0.0000
     25 HA        104.7553   16.1134   19.8420 H         2 VAL3        0.0000
     26 HB        102.0098   17.3947   19.6274 H         2 VAL3        0.0000
     27 H         102.7508   14.9341   21.1320 H         2 VAL3        0.0000
     28 H         101.3377   15.6900   21.2661 H         2 VAL3        0.0000
     29 H         101.7390   14.9751   19.8826 H         2 VAL3        0.0000
     30 HG21      103.9372   17.1279   21.8658 H         2 VAL3        0.0000
     31 HG22      103.6094   18.4948   21.0845 H         2 VAL3        0.0000
     32 HG23      102.4823   17.8003   21.9974 H         2 VAL3        0.0000
     33 N         102.9500   15.8280   17.0700 N.am      3 ASP4        0.0000
     34 CA        102.6660   14.8860   15.9800 C.3       3 ASP4        0.0000
     35 C         102.0810   13.5910   16.5760 C.2       3 ASP4        0.0000
     36 O         100.8790   13.5300   16.8660 O.2       3 ASP4        0.0000
     37 CB        103.9490   14.6490   15.1540 C.3       3 ASP4        0.0000
     38 CG        103.7890   13.6020   14.0560 C.2       3 ASP4        0.0000
     39 OD1       103.7810   13.9890   12.8700 O.co2     3 ASP4        0.0000
     40 OD2       103.7100   12.3910   14.3600 O.co2     3 ASP4        0.0000
     41 OXT       102.7860   12.6000   16.8320 O.2       3 ASP4        0.0000
     42 HNCA      102.6082   16.7968   16.9297 H         3 ASP4        0.0000
     43 HA        101.9169   15.3191   15.3200 H         3 ASP4        0.0000
     44 HB2       104.7524   14.3376   15.8379 H         3 ASP4        0.0000
     45 HB3       104.2554   15.6042   14.7026 H         3 ASP4        0.0000
     46 N         110.0620   20.4440   22.1520 N.4       4 L2O1        0.0000
     47 C1        109.1060   19.7890   21.2180 C.3       4 L2O1        0.0000
     48 C2        109.1130   18.2280   21.2440 C.3       4 L2O1        0.0000
     49 C3        108.4140   17.6890   22.5020 C.3       4 L2O1        0.0000
     50 C4        106.9350   17.4290   22.2170 C.3       4 L2O1        0.0000
     51 C5        109.0890   16.3670   22.9260 C.3       4 L2O1        0.0000
     52 C6        109.3260   20.2270   19.7660 C.3       4 L2O1        0.0000
     53 O1        109.7850   21.5780   19.6340 O.3       4 L2O1        0.0000
     54 C         107.9760   20.2730   19.1320 C.2       4 L2O1        0.0000
     55 O         107.2240   21.2040   19.4840 O.co2     4 L2O1        0.0000
     56 H         108.0715   20.0938   21.4754 H         4 L2O1        0.0000
     57 H         110.1437   17.8865   21.2267 H         4 L2O1        0.0000
     58 H         108.5987   17.8651   20.3591 H         4 L2O1        0.0000
     59 H         108.5103   18.3947   23.2914 H         4 L2O1        0.0000
     60 H         109.9211   19.5361   19.2562 H         4 L2O1        0.0000
     61 H         110.9524   20.5988   21.7239 H         4 L2O1        0.0000
     62 H         109.7274   21.3338   22.4623 H         4 L2O1        0.0000
     63 H         110.2219   19.8898   22.9688 H         4 L2O1        0.0000
     64 H         106.8100   16.7609   21.4835 H         4 L2O1        0.0000
     65 H         106.4586   17.0739   23.0213 H         4 L2O1        0.0000
     66 H         106.4583   18.2627   21.9384 H         4 L2O1        0.0000
     67 H         110.0585   16.4953   23.1348 H         4 L2O1        0.0000
     68 H         108.6625   15.9773   23.7422 H         4 L2O1        0.0000
     69 H         109.0332   15.6742   22.2070 H         4 L2O1        0.0000
     70 H         110.5426   21.6583   20.2818 H         4 L2O1        0.0000
@<TRIPOS>BOND
     1    2    1 1
     2    8    1 1
     3    3    2 1
     4    5    2 1
     5    9    2 1
     6    4    3 2
     7    6    5 1
     8    7    5 1
     9   10    5 1
    10   11    6 1
    11   12    6 1
    12   13    6 1
    13   14    7 1
    14   15    7 1
    15   16    7 1
    16   18   17 1
    17   24   17 1
    18   19   18 1
    19   21   18 1
    20   25   18 1
    21   20   19 2
    22   22   21 1
    23   23   21 1
    24   26   21 1
    25   27   22 1
    26   28   22 1
    27   29   22 1
    28   30   23 1
    29   31   23 1
    30   32   23 1
    31   34   33 1
    32   42   33 1
    33   35   34 1
    34   37   34 1
    35   43   34 1
    36   36   35 2
    37   41   35 2
    38   38   37 1
    39   44   37 1
    40   45   37 1
    41   39   38 ar
    42   40   38 ar
    43   47   46 1
    44   61   46 1
    45   62   46 1
    46   63   46 1
    47   48   47 1
    48   52   47 1
    49   56   47 1
    50   49   48 1
    51   57   48 1
    52   58   48 1
    53   50   49 1
    54   51   49 1
    55   59   49 1
    56   64   50 1
    57   65   50 1
    58   66   50 1
    59   67   51 1
    60   68   51 1
    61   69   51 1
    62   53   52 1
    63   54   52 1
    64   60   52 1
    65   70   53 1
    66   55   54 ar
    67   54    1 1 
    68   17    3 am
    69   33   19 am
@<TRIPOS>SUBSTRUCTURE
     1 VAL2        1 RESIDUE
     2 VAL3       17 RESIDUE
     3 ASP4       33 RESIDUE
     4 L2O1       46 GROUP
@<TRIPOS>SET

