#    Name: 4br2_UNP_1_INTS_M
#    Modification time : Tue Mar 25 08:09:02 2014

@<TRIPOS>MOLECULE
4br2_UNP_1_INTS_M
   55     0     9     0     0
SMALL
NO_CHARGES


@<TRIPOS>ATOM
      1 N          19.8970   32.0845   25.8670 N.am      2 SEC2        0.0000 
      2 N          19.6840   32.2840   24.4840 N.am      8 SEL2        0.0000 
      3 N          20.1100   31.8850   27.2500 N.am      5 SEP2        0.0000 
      4 N          19.0765   31.1120   25.3535 N.am      2 SEC2        0.0000 
      5 N          18.4690   29.9400   26.2230 N.am      5 SEP2        0.0000 
      6 N          20.6855   31.0925   22.2770 N.am      2 SEC2        0.0000 
      7 N          20.9030   32.5420   22.2110 N.am      8 SEL2        0.0000 
      8 N          20.4680   29.6430   22.3430 N.am      5 SEP2        0.0000 
      9 N          19.6385   35.5440   23.5620 N.am      2 SEC2        0.0000 
     10 N          19.3360   34.3100   23.1210 N.am      8 SEL2        0.0000 
     11 N          19.9410   36.7780   24.0030 N.am      5 SEP2        0.0000 
     12 N          18.9195   34.5665   21.9120 N.am      2 SEC2        0.0000 
     13 N          18.5030   34.8230   20.7030 N.am      5 SEP2        0.0000 
     14 N          17.6500   34.1245   22.9560 N.am      2 SEC2        0.0000 
     15 N          15.9640   33.9390   22.7910 N.am      5 SEP2        0.0000 
     16 N          20.7915   35.3425   24.1130 N.am      2 SEC2        0.0000 
     17 N          21.6420   33.9070   24.2230 N.am      8 SEL2        0.0000 
     18 N          22.1075   32.8920   25.1075 N.am      2 SEC2        0.0000 
     19 N          22.5730   31.8770   25.9920 N.am      5 SEP2        0.0000 
     20 N          22.7070   36.7780   24.8740 N.am      2 SEC2        0.0000 
     21 N          23.3320   35.8280   24.0590 N.am      8 SEL2        0.0000 
     22 N          22.0820   37.7280   25.6890 N.am      5 SEP2        0.0000 
     23 N          24.1345   36.2365   24.9710 N.am      2 SEC2        0.0000 
     24 N          24.9370   36.6450   25.8830 N.am      5 SEP2        0.0000 
     25 N          24.0095   36.6370   23.0340 N.am      2 SEC2        0.0000 
     26 N          24.6870   37.4460   22.0090 N.am      5 SEP2        0.0000 
     27 CA         24.6125   31.0895   24.7720 C.3       3 GLC5        0.0000 
     28 CA         26.1770   31.9450   25.3030 C.3       9 GLL5        0.0000 
     29 CA         23.0480   30.2340   24.2410 C.3       6 GLP5        0.0000 
     30 N          26.9460   32.9300   29.9225 N.am      2 SEC2        0.0000 
     31 N          25.9770   33.1960   28.6460 N.am      8 SEL2        0.0000 
     32 N          27.9150   32.6640   31.1990 N.am      5 SEP2        0.0000 
     33 O          24.9875   33.8730   29.1170 O.2       1 ALC1        0.0000 
     34 O          25.9770   33.1960   28.6460 O.2       7 ALL1        0.0000 
     35 O          23.9980   34.5500   29.5880 O.2       4 ALP1        0.0000 
     36 N          29.3245   35.8415   28.3180 N.am      2 SEC2        0.0000 
     37 N          27.7920   35.1450   28.3410 N.am      8 SEL2        0.0000 
     38 N          30.8570   36.5380   28.2950 N.am      5 SEP2        0.0000 
     39 CA         28.2720   31.7540   28.4860 C.3       3 GLC5        0.0000 
     40 CA         28.7590   33.3300   27.1810 C.3       9 GLL5        0.0000 
     41 CA         27.7850   30.1780   29.7910 C.3       6 GLP5        0.0000 
     42 CA         29.8330   32.1310   25.8340 C.3       3 GLC5        0.0000 
     43 CA         30.9070   30.9320   24.4870 C.3       6 GLP5        0.0000 
     44 CA         27.2675   30.3012   26.1425 C.3       3 GLC5        0.0000 
     45 CA         28.0560   28.5630   26.2960 C.3       6 GLP5        0.0000 
     46 CA         27.1773   31.4880   28.3822 C.3       3 GLC5        0.0000 
     47 CA         26.7810   32.1340   26.6750 C.3       9 GLL5        0.0000 
     48 CA         25.6217   35.6235   27.0917 C.3       3 GLC5        0.0000 
     49 CA         26.3580   33.4620   27.2720 C.3       9 GLL5        0.0000 
     50 CA         24.2570   37.3360   26.9680 C.3       6 GLP5        0.0000 
     51 CA         24.4608   32.5604   26.9948 C.3       3 GLC5        0.0000 
     52 CA         22.5030   32.3700   27.3590 C.3       6 GLP5        0.0000 
     53 CA         30.4195   33.2360   24.2787 C.3       3 GLC5        0.0000 
     54 CA         29.9230   34.6170   25.4230 C.3       9 GLL5        0.0000 
     55 CA         30.3320   31.6530   23.4540 C.3       6 GLP5        0.0000 
@<TRIPOS>BOND
@<TRIPOS>SUBSTRUCTURE
     1 ALC1       33 GROUP        1 X    ALC  0     ROOT ALC X 1
     2 SEC2        1 GROUP        1 X    SEC  0     **** SEC X 2
     3 GLC5       27 GROUP        1 X    GLC  0     **** GLC X 6
     4 ALP1       35 GROUP        1 Y    ALP  0     ROOT ALP Y 8
     5 SEP2        3 GROUP        1 Y    SEP  0     **** SEP Y 9
     6 GLP5       29 GROUP        1 Y    GLP  0     **** GLP Y 13
     7 ALL1       34 GROUP        1 Z    ALL  0     ROOT ALL Z 15
     8 SEL2        2 GROUP        1 Z    SEL  0     **** SEL Z 16
     9 GLL5       28 GROUP        1 Z    GLL  0     **** GLL Z 20
@<TRIPOS>SET

