#    Name: 4br2_UNP_1_ligand
#    Modification time : Tue Mar 25 08:09:02 2014

@<TRIPOS>MOLECULE
4br2_UNP_1_ligand
   40    41     1     0     0
SMALL
NO_CHARGES


@<TRIPOS>ATOM
      1 O2G        19.6840   32.2840   24.4840 O.co2     1 UNP1501     0.0000 
      2 PG         20.3240   33.1650   23.4580 P.3       1 UNP1501     0.0000 
      3 O3G        20.9030   32.5420   22.2110 O.co2     1 UNP1501     0.0000 
      4 O1G        19.3360   34.3100   23.1210 O.co2     1 UNP1501     0.0000 
      5 N2B        21.6420   33.9070   24.2230 N.3       1 UNP1501     0.0000 
      6 PB         23.0430   34.5460   23.2780 P.3       1 UNP1501     0.0000 
      7 O1B        23.3320   35.8280   24.0590 O.co2     1 UNP1501     0.0000 
      8 O3B        23.0560   34.5410   21.7210 O.co2     1 UNP1501     0.0000 
      9 O3A        24.2300   33.5400   23.7890 O.3       1 UNP1501     0.0000 
     10 PA         25.7260   33.4120   23.1620 P.3       1 UNP1501     0.0000 
     11 O1A        26.1890   34.7810   22.6980 O.co2     1 UNP1501     0.0000 
     12 O2A        25.7460   32.2010   22.2470 O.co2     1 UNP1501     0.0000 
     13 O5'        26.5040   33.0890   24.5340 O.3       1 UNP1501     0.0000 
     14 C5'        26.1770   31.9450   25.3030 C.3       1 UNP1501     0.0000 
     15 C4'        26.7810   32.1340   26.6750 C.3       1 UNP1501     0.0000 
     16 C3'        26.3580   33.4620   27.2720 C.3       1 UNP1501     0.0000 
     17 O3'        25.9770   33.1960   28.6460 O.3       1 UNP1501     0.0000 
     18 C2'        27.6150   34.3600   27.1590 C.3       1 UNP1501     0.0000 
     19 O2'        27.7920   35.1450   28.3410 O.3       1 UNP1501     0.0000 
     20 O4'        28.2260   32.1270   26.5740 O.3       1 UNP1501     0.0000 
     21 C1'        28.7590   33.3300   27.1810 C.3       1 UNP1501     0.0000 
     22 N1         29.9840   33.7470   26.4530 N.am      1 UNP1501     0.0000 
     23 C2         31.2240   33.1760   26.8620 C.2       1 UNP1501     0.0000 
     24 O2         31.2110   32.3160   27.7850 O.2       1 UNP1501     0.0000 
     25 C6         29.9230   34.6170   25.4230 C.2       1 UNP1501     0.0000 
     26 C5         31.0910   35.0210   24.7840 C.2       1 UNP1501     0.0000 
     27 C4         32.2860   34.4240   25.1880 C.2       1 UNP1501     0.0000 
     28 N3         32.3660   33.5230   26.2190 N.am      1 UNP1501     0.0000 
     29 O4         33.2980   34.7880   24.5840 O.2       1 UNP1501     0.0000 
     30 H          26.5881   31.0318   24.8729 H         1 UNP1501     0.0000 
     31 H          25.1000   31.8241   25.4188 H         1 UNP1501     0.0000 
     32 H          26.4455   31.3445   27.3210 H         1 UNP1501     0.0000 
     33 H          25.5858   33.8648   26.6923 H         1 UNP1501     0.0000 
     34 H          27.6242   34.8630   26.2759 H         1 UNP1501     0.0000 
     35 H          28.9933   33.1245   28.2203 H         1 UNP1501     0.0000 
     36 H          29.0169   34.9942   25.0945 H         1 UNP1501     0.0000 
     37 H          31.0767   35.7198   24.0551 H         1 UNP1501     0.0000 
     38 H          33.2720   33.1253   26.4915 H         1 UNP1501     0.0000 
     39 H          25.6028   34.0601   28.9826 H         1 UNP1501     0.0000 
     40 H          26.9004   35.5660   28.5078 H         1 UNP1501     0.0000 
@<TRIPOS>BOND
     1    2    1 ar   
     2    3    2 ar   
     3    4    2 ar   
     4    5    2 1    
     5    6    5 1    
     6    7    6 ar   
     7    8    6 ar   
     8    9    6 1    
     9   10    9 1    
    10   11   10 ar   
    11   12   10 ar   
    12   13   10 1    
    13   14   13 1    
    14   15   14 1    
    15   30   14 1    
    16   31   14 1    
    17   16   15 1    
    18   20   15 1    
    19   32   15 1    
    20   17   16 1    
    21   18   16 1    
    22   33   16 1    
    23   39   17 1    
    24   19   18 1    
    25   21   18 1    
    26   34   18 1    
    27   40   19 1    
    28   21   20 1    
    29   22   21 1    
    30   35   21 1    
    31   23   22 1    
    32   25   22 1    
    33   24   23 2    
    34   28   23 1    
    35   26   25 2    
    36   36   25 1    
    37   27   26 1    
    38   37   26 1    
    39   28   27 1    
    40   29   27 2    
    41   38   28 1    
@<TRIPOS>SUBSTRUCTURE
     1 UNP1501     1 GROUP   
@<TRIPOS>SET

