#    Name: 2e9u_A25_1_INTS_M
#    Modification time : Tue Mar 25 10:47:04 2014

@<TRIPOS>MOLECULE
2e9u_A25_1_INTS_M
   64     0     9     0     0
SMALL
NO_CHARGES


@<TRIPOS>ATOM
      1 CA         -0.1730    8.3790  -16.2655 C.3       3 GLC5        0.0000 
      2 CA         -0.7220    8.0620  -18.4090 C.3       9 GLL5        0.0000 
      3 CA          0.3760    8.6960  -14.1220 C.3       6 GLP5        0.0000 
      4 CA         -2.2535    9.8335  -16.6590 C.3       3 GLC5        0.0000 
      5 CA         -2.0890    8.4990  -18.2990 C.3       9 GLL5        0.0000 
      6 CA         -2.4180   11.1680  -15.0190 C.3       6 GLP5        0.0000 
      7 CA         -3.5000   10.8130  -17.6195 C.3       3 GLC5        0.0000 
      8 CA         -2.5220    9.6350  -19.0550 C.3       9 GLL5        0.0000 
      9 CA         -4.4780   11.9910  -16.1840 C.3       6 GLP5        0.0000 
     10 CA         -2.6375    9.5225  -21.3185 C.3       3 GLC5        0.0000 
     11 CA         -1.5840   10.3100  -19.9000 C.3       9 GLL5        0.0000 
     12 CA         -3.6910    8.7350  -22.7370 C.3       6 GLP5        0.0000 
     13 CA         -1.2370    7.7215  -20.4760 C.3       3 GLC5        0.0000 
     14 CA          0.1910    8.7380  -19.2490 C.3       9 GLL5        0.0000 
     15 CA         -2.6650    6.7050  -21.7030 C.3       6 GLP5        0.0000 
     16 CA         -0.5360   11.3195  -22.5480 C.3       3 GLC5        0.0000 
     17 CA          0.8580   10.6870  -21.0100 C.3       9 GLL5        0.0000 
     18 CA         -1.9300   11.9520  -24.0860 C.3       6 GLP5        0.0000 
     19 CA          0.8045   12.6000  -21.6620 C.3       3 GLC5        0.0000 
     20 CA          0.7510   14.5130  -22.3140 C.3       6 GLP5        0.0000 
     21 CA          1.3985   11.3050  -19.3890 C.3       3 GLC5        0.0000 
     22 CA          1.9390   11.9230  -17.7680 C.3       6 GLP5        0.0000 
     23 CA         -1.1235    7.9060  -15.2515 C.3       3 GLC5        0.0000 
     24 CA         -2.6230    7.1160  -16.3810 C.3       9 GLL5        0.0000 
     25 CA         -2.5205    9.1420  -15.7000 C.3       3 GLC5        0.0000 
     26 O          -6.4915   12.4630  -20.0045 O.2       1 ALC1        0.0000 
     27 O          -5.7980   11.2770  -19.4340 O.2       7 ALL1        0.0000 
     28 O          -7.1850   13.6490  -20.5750 O.2       4 ALP1        0.0000 
     29 N          -3.7370   13.0460  -20.8685 N.am      2 SEC2        0.0000 
     30 N          -3.9380   11.6280  -20.6380 N.am      8 SEL2        0.0000 
     31 N          -3.5360   14.4640  -21.0990 N.am      5 SEP2        0.0000 
     32 CA         -6.8825    7.6650  -18.7700 C.3       3 GLC5        0.0000 
     33 CA         -7.1220    8.9440  -17.0440 C.3       9 GLL5        0.0000 
     34 CA         -6.6430    6.3860  -20.4960 C.3       6 GLP5        0.0000 
     35 CA         -9.9065    9.6835  -17.5865 C.3       3 GLC5        0.0000 
     36 CA         -8.2790    9.6390  -16.5680 C.3       9 GLL5        0.0000 
     37 CA        -11.5340    9.7280  -18.6050 C.3       6 GLP5        0.0000 
     38 CA         -7.7645   10.8480  -15.1370 C.3       3 GLC5        0.0000 
     39 CA         -7.2500   12.0570  -13.7060 C.3       6 GLP5        0.0000 
     40 CA         -8.7095   12.9395  -17.6495 C.3       3 GLC5        0.0000 
     41 CA         -7.7980   11.4260  -17.9880 C.3       9 GLL5        0.0000 
     42 CA         -9.6210   14.4530  -17.3110 C.3       6 GLP5        0.0000 
     43 CA         -9.3715   11.5680  -18.9970 C.3       3 GLC5        0.0000 
     44 CA        -10.9450   11.7100  -20.0060 C.3       6 GLP5        0.0000 
     45 CA         -7.5240   11.7415  -15.8470 C.3       3 GLC5        0.0000 
     46 CA         -7.0955    6.0880  -16.9940 C.3       3 GLC5        0.0000 
     47 CA         -6.7320    7.3930  -15.2070 C.3       9 GLL5        0.0000 
     48 CA         -7.4590    4.7830  -18.7810 C.3       6 GLP5        0.0000 
     49 CA         -3.9205    9.5165  -14.7840 C.3       3 GLC5        0.0000 
     50 CA         -5.4230    7.8650  -14.5490 C.3       9 GLL5        0.0000 
     51 CA         -2.3144    7.8314  -20.2037 C.3       3 GLC5        0.0000 
     52 CA         -0.5423    9.1365  -21.9440 C.3       3 GLC5        0.0000 
     53 CA         -0.2530    9.8530  -19.9820 C.3       9 GLL5        0.0000 
     54 CA         -1.3870    8.0030  -23.3920 C.3       6 GLP5        0.0000 
     55 CA          0.7876   10.6664  -18.6815 C.3       3 GLC5        0.0000 
     56 CA         -3.0152    5.0555  -17.4532 C.3       3 GLC5        0.0000 
     57 CA         -2.8440    3.4510  -18.7610 C.3       6 GLP5        0.0000 
     58 CA         -7.2335   10.7312  -20.2383 C.3       3 GLC5        0.0000 
     59 CA         -6.6400   10.7530  -18.4770 C.3       9 GLL5        0.0000 
     60 CA         -7.2480   10.3730  -22.2440 C.3       6 GLP5        0.0000 
     61 CA         -5.8485   11.5403  -17.2082 C.3       3 GLC5        0.0000 
     62 CA         -6.0892   10.6412  -16.4950 C.3       3 GLC5        0.0000 
     63 CA         -7.5587    7.9660  -13.3965 C.3       3 GLC5        0.0000 
     64 CA         -9.0400    8.3030  -11.9150 C.3       6 GLP5        0.0000 
@<TRIPOS>BOND
@<TRIPOS>SUBSTRUCTURE
     1 ALC1       26 GROUP        1 X    ALC  0     ROOT ALC X 1
     2 SEC2       29 GROUP        1 X    SEC  0     **** SEC X 2
     3 GLC5        1 GROUP        1 X    GLC  0     **** GLC X 6
     4 ALP1       28 GROUP        1 Y    ALP  0     ROOT ALP Y 8
     5 SEP2       31 GROUP        1 Y    SEP  0     **** SEP Y 9
     6 GLP5        3 GROUP        1 Y    GLP  0     **** GLP Y 13
     7 ALL1       27 GROUP        1 Z    ALL  0     ROOT ALL Z 15
     8 SEL2       30 GROUP        1 Z    SEL  0     **** SEL Z 16
     9 GLL5        2 GROUP        1 Z    GLL  0     **** GLL Z 20
@<TRIPOS>SET

