#    Name: 2e9u_A25_1_ligand
#    Modification time : Tue Mar 25 10:47:04 2014

@<TRIPOS>MOLECULE
2e9u_A25_1_ligand
   41    43     1     0     0
SMALL
NO_CHARGES


@<TRIPOS>ATOM
      1 C1         -0.7220    8.0620  -18.4090 C.ar      1 A251001     0.0000 
      2 C2         -2.0890    8.4990  -18.2990 C.ar      1 A251001     0.0000 
      3 C3         -2.5220    9.6350  -19.0550 C.ar      1 A251001     0.0000 
      4 C4         -1.5840   10.3100  -19.9000 C.ar      1 A251001     0.0000 
      5 C5         -0.2530    9.8530  -19.9820 C.ar      1 A251001     0.0000 
      6 C6          0.1910    8.7380  -19.2490 C.ar      1 A251001     0.0000 
      7 CL7         0.8580   10.6870  -21.0100 Cl        1 A251001     0.0000 
      8 O8         -3.0670    7.8880  -17.4890 O.3       1 A251001     0.0000 
      9 C9         -2.6230    7.1160  -16.3810 C.3       1 A251001     0.0000 
     10 N10        -3.8570   10.0630  -18.9460 N.am      1 A251001     0.0000 
     11 C11        -4.4910   11.0210  -19.7270 C.2       1 A251001     0.0000 
     12 N12        -5.7980   11.2770  -19.4340 N.am      1 A251001     0.0000 
     13 O13        -3.9380   11.6280  -20.6380 O.2       1 A251001     0.0000 
     14 C14        -6.6400   10.7530  -18.4770 C.ar      1 A251001     0.0000 
     15 N15        -6.3130    9.5120  -17.9960 N.ar      1 A251001     0.0000 
     16 C16        -7.1220    8.9440  -17.0440 C.ar      1 A251001     0.0000 
     17 C17        -8.2790    9.6390  -16.5680 C.ar      1 A251001     0.0000 
     18 N18        -8.6090   10.8730  -17.0400 N.ar      1 A251001     0.0000 
     19 C19        -7.7980   11.4260  -17.9880 C.ar      1 A251001     0.0000 
     20 O20        -6.7120    7.6720  -16.6140 O.3       1 A251001     0.0000 
     21 C21        -6.7320    7.3930  -15.2070 C.3       1 A251001     0.0000 
     22 C22        -5.4230    7.8650  -14.5490 C.3       1 A251001     0.0000 
     23 C23        -3.7500    6.2040  -15.9100 C.3       1 A251001     0.0000 
     24 C24        -4.3770    6.7850  -14.6370 C.3       1 A251001     0.0000 
     25 H          -0.4184    7.2493  -17.8666 H         1 A251001     0.0000 
     26 H          -1.8878   11.1195  -20.4380 H         1 A251001     0.0000 
     27 H           1.1527    8.4212  -19.3203 H         1 A251001     0.0000 
     28 H          -2.3280    7.7475  -15.5344 H         1 A251001     0.0000 
     29 H          -1.7666    6.4823  -16.6409 H         1 A251001     0.0000 
     30 H          -4.4432    9.5960  -18.1755 H         1 A251001     0.0000 
     31 H          -6.2764   12.0494  -20.0836 H         1 A251001     0.0000 
     32 H          -8.8584    9.1681  -15.8491 H         1 A251001     0.0000 
     33 H          -8.0088   12.3662  -18.3823 H         1 A251001     0.0000 
     34 H          -6.8336    6.3194  -15.0073 H         1 A251001     0.0000 
     35 H          -7.5592    7.9071  -14.7028 H         1 A251001     0.0000 
     36 H          -5.6233    8.1055  -13.5076 H         1 A251001     0.0000 
     37 H          -5.0782    8.7600  -15.0614 H         1 A251001     0.0000 
     38 H          -3.3541    5.2198  -15.6948 H         1 A251001     0.0000 
     39 H          -4.5071    6.1355  -16.6806 H         1 A251001     0.0000 
     40 H          -4.7636    5.8748  -14.0164 H         1 A251001     0.0000 
     41 H          -3.4889    7.1039  -13.9495 H         1 A251001     0.0000 
@<TRIPOS>BOND
     1    2    1 ar   
     2    6    1 ar   
     3   25    1 1    
     4    3    2 ar   
     5    8    2 1    
     6    4    3 ar   
     7   10    3 1    
     8    5    4 ar   
     9   26    4 1    
    10    6    5 ar   
    11    7    5 1    
    12   27    6 1    
    13    9    8 1    
    14   23    9 1    
    15   28    9 1    
    16   29    9 1    
    17   11   10 am   
    18   30   10 1    
    19   12   11 am   
    20   13   11 2    
    21   14   12 1    
    22   31   12 1    
    23   15   14 ar   
    24   19   14 ar   
    25   16   15 ar   
    26   17   16 ar   
    27   20   16 1    
    28   18   17 ar   
    29   32   17 1    
    30   19   18 ar   
    31   33   19 1    
    32   21   20 1    
    33   22   21 1    
    34   34   21 1    
    35   35   21 1    
    36   24   22 1    
    37   36   22 1    
    38   37   22 1    
    39   24   23 1    
    40   38   23 1    
    41   39   23 1    
    42   40   24 1    
    43   41   24 1    
@<TRIPOS>SUBSTRUCTURE
     1 A251001     1 GROUP   
@<TRIPOS>SET

