#    Name: 4fwj_FAD_1_INTS_M
#    Modification time : Mon Mar 24 20:56:28 2014

@<TRIPOS>MOLECULE
4fwj_FAD_1_INTS_M
  139     0    12     0     0
SMALL
NO_CHARGES


@<TRIPOS>ATOM
      1 N         -54.5735   -2.1015   44.1760 N.am      2 SEC2        0.0000 
      2 N         -54.6640   -0.9430   43.5130 N.am     10 SEL2        0.0000 
      3 N         -54.4830   -3.2600   44.8390 N.am      6 SEP2        0.0000 
      4 NZ        -56.1610   -1.6960   41.0550 N.4       3 LYC4        0.0000 
      5 NZ        -56.3210   -0.5680   41.6480 N.4      11 LYL4        0.0000 
      6 NZ        -56.1010   -2.2820   39.2560 N.4       7 LYP4        0.0000 
      7 N         -56.1610   -1.6960   41.0550 N.am      2 SEC2        0.0000 
      8 N         -56.3210   -0.5680   41.6480 N.am     10 SEL2        0.0000 
      9 N         -56.0010   -2.8240   40.4620 N.am      6 SEP2        0.0000 
     10 N         -56.3445   -0.7765   40.3790 N.am      2 SEC2        0.0000 
     11 N         -56.3680   -0.9850   39.1100 N.am      6 SEP2        0.0000 
     12 CA        -55.3400    1.8155   45.1875 C.3       4 GLC5        0.0000 
     13 CA        -57.1260    1.7140   44.2410 C.3      12 GLL5        0.0000 
     14 CA        -53.5540    1.9170   46.1340 C.3       8 GLP5        0.0000 
     15 CA        -58.7890    1.3355   42.9745 C.3       4 GLC5        0.0000 
     16 CA        -60.4520    0.9570   41.7080 C.3       8 GLP5        0.0000 
     17 CA        -56.9445   -0.8020   46.3630 C.3       4 GLC5        0.0000 
     18 CA        -58.3930    0.3350   46.1270 C.3      12 GLL5        0.0000 
     19 CA        -55.4960   -1.9390   46.5990 C.3       8 GLP5        0.0000 
     20 O         -58.7395    0.4735   48.5355 O.2       1 ALC1        0.0000 
     21 O         -57.9090    0.2620   47.4790 O.2       9 ALL1        0.0000 
     22 O         -59.5700    0.6850   49.5920 O.2       5 ALP1        0.0000 
     23 CA        -60.1850    0.6425   43.9070 C.3       4 GLC5        0.0000 
     24 CA        -59.9180    0.3280   46.1060 C.3      12 GLL5        0.0000 
     25 CA        -61.7830   -0.6405   46.2430 C.3       4 GLC5        0.0000 
     26 CA        -63.6480   -1.6090   46.3800 C.3       8 GLP5        0.0000 
     27 O         -59.9895    0.1595   48.4240 O.2       1 ALC1        0.0000 
     28 O         -60.4090   -0.3660   47.2560 O.2       9 ALL1        0.0000 
     29 CA        -59.2690    3.4900   46.4830 C.3       4 GLC5        0.0000 
     30 CA        -60.1720    1.8340   46.1380 C.3      12 GLL5        0.0000 
     31 CA        -58.3660    5.1460   46.8280 C.3       8 GLP5        0.0000 
     32 CA        -65.3405    4.1395   48.2845 C.3       4 GLC5        0.0000 
     33 CA        -64.4240    4.2490   46.2340 C.3      12 GLL5        0.0000 
     34 CA        -66.2570    4.0300   50.3350 C.3       8 GLP5        0.0000 
     35 CA        -65.2165    6.1315   46.8535 C.3       4 GLC5        0.0000 
     36 CA        -66.0090    8.0140   47.4730 C.3       8 GLP5        0.0000 
     37 CA        -64.9560    5.6820   44.7270 C.3       4 GLC5        0.0000 
     38 CA        -65.4880    7.1150   43.2200 C.3       8 GLP5        0.0000 
     39 O         -66.8780    5.1510   46.1260 O.2       1 ALC1        0.0000 
     40 O         -65.5970    4.4010   45.6330 O.2       9 ALL1        0.0000 
     41 O         -68.1590    5.9010   46.6190 O.2       5 ALP1        0.0000 
     42 N         -65.2525    5.4550   48.0890 N.am      2 SEC2        0.0000 
     43 N         -64.1230    4.9650   47.3310 N.am     10 SEL2        0.0000 
     44 N         -66.3820    5.9450   48.8470 N.am      6 SEP2        0.0000 
     45 CA        -62.5195    6.1755   46.8995 C.3       4 GLC5        0.0000 
     46 CA        -62.9470    4.8180   47.9430 C.3      12 GLL5        0.0000 
     47 CA        -62.0920    7.5330   45.8560 C.3       8 GLP5        0.0000 
     48 CA        -61.6035    4.5615   49.4730 C.3       4 GLC5        0.0000 
     49 CA        -60.2600    4.3050   51.0030 C.3       8 GLP5        0.0000 
     50 CA        -63.3500    3.1150   48.6245 C.3       4 GLC5        0.0000 
     51 CA        -63.7530    1.4120   49.3060 C.3       8 GLP5        0.0000 
     52 CA        -64.6020    4.4240   49.1390 C.3       4 GLC5        0.0000 
     53 CA        -63.9210    6.6870   48.1510 C.3       4 GLC5        0.0000 
     54 CA        -64.8950    8.5560   48.3590 C.3       8 GLP5        0.0000 
     55 N         -62.0250    3.3550   48.9610 N.am      2 SEC2        0.0000 
     56 N         -62.0310    3.9690   47.5020 N.am     10 SEL2        0.0000 
     57 N         -62.0190    2.7410   50.4200 N.am      6 SEP2        0.0000 
     58 CA        -60.3160    4.1835   46.6200 C.3       4 GLC5        0.0000 
     59 CA        -62.2660    3.2210   46.4120 C.3      12 GLL5        0.0000 
     60 N         -47.1345   -2.8360   38.6080 N.am      2 SEC2        0.0000 
     61 N         -46.4860   -4.0770   38.4390 N.am     10 SEL2        0.0000 
     62 N         -47.7830   -1.5950   38.7770 N.am      6 SEP2        0.0000 
     63 O         -45.0250   -6.2960   39.0405 O.2       1 ALC1        0.0000 
     64 O         -46.4360   -6.3460   38.7150 O.2       9 ALL1        0.0000 
     65 O         -43.6140   -6.2460   39.3660 O.2       5 ALP1        0.0000 
     66 N         -46.4230   -8.5965   40.7500 N.am      2 SEC2        0.0000 
     67 N         -46.5450   -8.5940   39.0170 N.am     10 SEL2        0.0000 
     68 N         -46.3010   -8.5990   42.4830 N.am      6 SEP2        0.0000 
     69 N         -45.2710   -8.5725   39.9515 N.am      2 SEC2        0.0000 
     70 N         -43.9970   -8.5510   40.8860 N.am      6 SEP2        0.0000 
     71 CA        -50.4155  -11.4370   40.7415 C.3       4 GLC5        0.0000 
     72 CA        -51.3230   -9.7010   39.9420 C.3      12 GLL5        0.0000 
     73 CA        -49.5080  -13.1730   41.5410 C.3       8 GLP5        0.0000 
     74 CA        -53.5235  -11.4165   39.0140 C.3       4 GLC5        0.0000 
     75 CA        -53.3240  -10.8850   40.8930 C.3      12 GLL5        0.0000 
     76 CA        -53.7230  -11.9480   37.1350 C.3       8 GLP5        0.0000 
     77 CA        -51.9875  -12.2895   41.6395 C.3       4 GLC5        0.0000 
     78 CA        -50.6510  -13.6940   42.3860 C.3       8 GLP5        0.0000 
     79 CA        -54.9025  -10.8930   41.8735 C.3       4 GLC5        0.0000 
     80 CA        -56.4810  -10.9010   42.8540 C.3       8 GLP5        0.0000 
     81 CA        -55.1435   -6.4355   41.5125 C.3       4 GLC5        0.0000 
     82 CA        -54.7560   -8.3110   40.8720 C.3      12 GLL5        0.0000 
     83 CA        -55.5310   -4.5600   42.1530 C.3       8 GLP5        0.0000 
     84 CA        -55.6185   -9.6060   41.8630 C.3       4 GLC5        0.0000 
     85 CA        -53.3900   -5.7750   41.2715 C.3       4 GLC5        0.0000 
     86 CA        -52.6560   -7.2480   39.8910 C.3      12 GLL5        0.0000 
     87 CA        -54.1240   -4.3020   42.6520 C.3       8 GLP5        0.0000 
     88 CA        -51.9725   -5.9280   37.2220 C.3       4 GLC5        0.0000 
     89 CA        -51.3120   -4.9090   38.6180 C.3      12 GLL5        0.0000 
     90 CA        -52.6330   -6.9470   35.8260 C.3       8 GLP5        0.0000 
     91 CA        -49.7445   -4.9745   40.8900 C.3       4 GLC5        0.0000 
     92 CA        -51.1000   -3.8420   39.6840 C.3      12 GLL5        0.0000 
     93 CA        -48.3890   -6.1070   42.0960 C.3       8 GLP5        0.0000 
     94 CA        -49.4245   -3.2700   40.6075 C.3       4 GLC5        0.0000 
     95 CA        -47.7490   -2.6980   41.5310 C.3       8 GLP5        0.0000 
     96 CA        -52.6695   -1.0025   38.1585 C.3       4 GLC5        0.0000 
     97 CA        -52.0510   -2.6660   39.5210 C.3      12 GLL5        0.0000 
     98 CA        -53.2880    0.6610   36.7960 C.3       8 GLP5        0.0000 
     99 O         -51.4485   -2.5490   37.0545 O.2       1 ALC1        0.0000 
    100 O         -52.0020   -2.2220   38.1860 O.2       9 ALL1        0.0000 
    101 O         -50.8950   -2.8760   35.9230 O.2       5 ALP1        0.0000 
    102 CA        -50.8840   -0.4820   42.0975 C.3       4 GLC5        0.0000 
    103 CA        -51.6450   -1.4900   40.3930 C.3      12 GLL5        0.0000 
    104 CA        -50.1230    0.5260   43.8020 C.3       8 GLP5        0.0000 
    105 CA        -49.6275   -1.1150   40.1720 C.3       4 GLC5        0.0000 
    106 CA        -47.6100   -0.7400   39.9510 C.3       8 GLP5        0.0000 
    107 CA        -52.0115    0.2605   42.1750 C.3       4 GLC5        0.0000 
    108 CA        -52.4930   -0.2670   40.0710 C.3      12 GLL5        0.0000 
    109 CA        -51.5300    0.7880   44.2790 C.3       8 GLP5        0.0000 
    110 CA        -52.8905    0.1970   38.4335 C.3       4 GLC5        0.0000 
    111 N         -52.0420    3.4450   42.3410 N.am      2 SEC2        0.0000 
    112 N         -52.8250    2.4460   41.5350 N.am     10 SEL2        0.0000 
    113 N         -51.2590    4.4440   43.1470 N.am      6 SEP2        0.0000 
    114 N         -54.2920    2.4415   38.6620 N.am      2 SEC2        0.0000 
    115 N         -54.8650    1.9080   40.0460 N.am     10 SEL2        0.0000 
    116 N         -53.7190    2.9750   37.2780 N.am      6 SEP2        0.0000 
    117 CA        -57.9750    3.4267   45.8480 C.3       4 GLC5        0.0000 
    118 CA        -59.4823   -1.5657   45.3083 C.3       4 GLC5        0.0000 
    119 CA        -59.8090   -3.4630   44.5000 C.3       8 GLP5        0.0000 
    120 CA        -62.6008    5.5205   46.0289 C.3       4 GLC5        0.0000 
    121 CA        -63.4820    3.3410   45.7490 C.3      12 GLL5        0.0000 
    122 CA        -63.4313    2.4600   47.7539 C.3       4 GLC5        0.0000 
    123 CA        -62.6393    4.2515   44.6654 C.3       4 GLC5        0.0000 
    124 CA        -62.1690    4.9950   43.1290 C.3       8 GLP5        0.0000 
    125 CA        -52.0160  -10.7334   38.5994 C.3       4 GLC5        0.0000 
    126 CA        -52.6340   -9.6210   40.3850 C.3      12 GLL5        0.0000 
    127 CA        -52.2140  -12.0920   37.1530 C.3       8 GLP5        0.0000 
    128 CA        -52.1346   -9.7415   42.1931 C.3       4 GLC5        0.0000 
    129 CA        -51.6180   -9.2100   43.8580 C.3       8 GLP5        0.0000 
    130 CA        -52.8242   -8.7818   42.2385 C.3       4 GLC5        0.0000 
    131 CA        -53.3050   -8.3960   40.3660 C.3      12 GLL5        0.0000 
    132 CA        -54.5132   -8.2869   38.8617 C.3       4 GLC5        0.0000 
    133 CA        -55.7670   -8.6200   37.4660 C.3       8 GLP5        0.0000 
    134 CA        -49.8423   -7.9036   40.9776 C.3       4 GLC5        0.0000 
    135 CA        -51.3310   -7.3200   39.4400 C.3      12 GLL5        0.0000 
    136 CA        -48.5180   -7.5830   42.3820 C.3       8 GLP5        0.0000 
    137 CA        -52.8671   -3.3370   41.3249 C.3       4 GLC5        0.0000 
    138 CA        -51.1950    0.7047   39.9475 C.3       4 GLC5        0.0000 
    139 CA        -50.3210    2.2880   39.6630 C.3       8 GLP5        0.0000 
@<TRIPOS>BOND
@<TRIPOS>SUBSTRUCTURE
     1 ALC1       20 GROUP        1 X    ALC  0     ROOT ALC X 1
     2 SEC2        1 GROUP        1 X    SEC  0     **** SEC X 2
     3 LYC4        4 GROUP        1 X    LYC  0     **** LYC X 4
     4 GLC5       12 GROUP        1 X    GLC  0     **** GLC X 6
     5 ALP1       22 GROUP        1 Y    ALP  0     ROOT ALP Y 8
     6 SEP2        3 GROUP        1 Y    SEP  0     **** SEP Y 9
     7 LYP4        6 GROUP        1 Y    LYP  0     **** LYP Y 11
     8 GLP5       14 GROUP        1 Y    GLP  0     **** GLP Y 13
     9 ALL1       21 GROUP        1 Z    ALL  0     ROOT ALL Z 15
    10 SEL2        2 GROUP        1 Z    SEL  0     **** SEL Z 16
    11 LYL4        5 GROUP        1 Z    LYL  0     **** LYL Z 18
    12 GLL5       13 GROUP        1 Z    GLL  0     **** GLL Z 20
@<TRIPOS>SET

