#    Name: 3ko8_NAD_1_INTS_M
#    Modification time : Mon Mar 24 19:58:13 2014

@<TRIPOS>MOLECULE
3ko8_NAD_1_INTS_M
  110     0     9     0     0
SMALL
NO_CHARGES


@<TRIPOS>ATOM
      1 N           7.0780   13.7180   16.0235 N.am      2 SEC2        0.0000 
      2 N           6.3310   14.1170   17.1830 N.am      8 SEL2        0.0000 
      3 N           7.8250   13.3190   14.8640 N.am      5 SEP2        0.0000 
      4 N           5.7330   15.5680   17.2425 N.am      2 SEC2        0.0000 
      5 N           5.1350   17.0190   17.3020 N.am      5 SEP2        0.0000 
      6 N           4.4360   12.9935   19.6475 N.am      2 SEC2        0.0000 
      7 N           5.4380   13.8770   19.3120 N.am      8 SEL2        0.0000 
      8 N           3.4340   12.1100   19.9830 N.am      5 SEP2        0.0000 
      9 CA          8.6060    9.9855   21.2800 C.3       3 GLC5        0.0000 
     10 CA          7.2250   10.4730   19.7320 C.3       9 GLL5        0.0000 
     11 CA          9.9870    9.4980   22.8280 C.3       6 GLP5        0.0000 
     12 O           6.5915    8.2685   17.9745 O.2       1 ALC1        0.0000 
     13 O           5.9870    9.4630   17.9520 O.2       7 ALL1        0.0000 
     14 O           7.1960    7.0740   17.9970 O.2       4 ALP1        0.0000 
     15 N           3.5460    9.3255   18.4730 N.am      2 SEC2        0.0000 
     16 N           4.1800    8.6680   19.7240 N.am      8 SEL2        0.0000 
     17 N           2.9120    9.9830   17.2220 N.am      5 SEP2        0.0000 
     18 N           2.6870    8.0330   19.8430 N.am      2 SEC2        0.0000 
     19 N           1.1940    7.3980   19.9620 N.am      5 SEP2        0.0000 
     20 N           3.1265    8.8145   20.9685 N.am      2 SEC2        0.0000 
     21 N           2.0730    8.9610   22.2130 N.am      5 SEP2        0.0000 
     22 N           2.8350    9.4000   19.5960 N.am      2 SEC2        0.0000 
     23 N           1.4900   10.1320   19.4680 N.am      5 SEP2        0.0000 
     24 O           4.6845    7.5200   19.1340 O.2       1 ALC1        0.0000 
     25 O           4.1800    8.6680   19.7240 O.2       7 ALL1        0.0000 
     26 O           5.1890    6.3720   18.5440 O.2       4 ALP1        0.0000 
     27 CA          8.0275    8.4150   20.1570 C.3       3 GLC5        0.0000 
     28 CA          6.3110    8.8090   20.9110 C.3       9 GLL5        0.0000 
     29 CA          9.7440    8.0210   19.4030 C.3       6 GLP5        0.0000 
     30 CA          7.9795    8.4340   22.0565 C.3       3 GLC5        0.0000 
     31 CA          9.6480    8.0590   23.2020 C.3       6 GLP5        0.0000 
     32 CA          5.2565    4.1745   25.3635 C.3       3 GLC5        0.0000 
     33 CA          5.6720    6.3280   25.0180 C.3       9 GLL5        0.0000 
     34 CA          4.8410    2.0210   25.7090 C.3       6 GLP5        0.0000 
     35 CA          7.2255    5.4020   26.0740 C.3       3 GLC5        0.0000 
     36 CA          8.7790    4.4760   27.1300 C.3       6 GLP5        0.0000 
     37 O           4.5750    5.1675   26.8620 O.2       1 ALC1        0.0000 
     38 O           5.2570    6.3830   26.2480 O.2       7 ALL1        0.0000 
     39 O           3.8930    3.9520   27.4760 O.2       4 ALP1        0.0000 
     40 O           4.7830    7.5310   26.9555 O.2       1 ALC1        0.0000 
     41 O           4.3090    8.6790   27.6630 O.2       4 ALP1        0.0000 
     42 N           6.4670    4.1805   25.5905 N.am      2 SEC2        0.0000 
     43 N           6.1440    5.2020   24.5390 N.am      8 SEL2        0.0000 
     44 N           6.7900    3.1590   26.6420 N.am      5 SEP2        0.0000 
     45 CA          6.7235    4.6010   21.4255 C.3       3 GLC5        0.0000 
     46 CA          6.5550    5.1360   23.2960 C.3       9 GLL5        0.0000 
     47 CA          6.8920    4.0660   19.5550 C.3       6 GLP5        0.0000 
     48 CA          4.8465    4.6425   22.9200 C.3       3 GLC5        0.0000 
     49 CA          3.1380    4.1490   22.5440 C.3       6 GLP5        0.0000 
     50 CA          5.6980    3.5785   24.5025 C.3       3 GLC5        0.0000 
     51 CA          8.0020    4.2355   24.1395 C.3       3 GLC5        0.0000 
     52 CA          9.4490    3.3350   24.9830 C.3       6 GLP5        0.0000 
     53 CA          8.1015    6.5975   23.2490 C.3       3 GLC5        0.0000 
     54 N           5.6600    5.2120   21.5955 N.am      2 SEC2        0.0000 
     55 N           6.5400    6.1410   22.4840 N.am      8 SEL2        0.0000 
     56 N           4.7800    4.2830   20.7070 N.am      5 SEP2        0.0000 
     57 N           9.9550   14.8140   16.2320 N.am      2 SEC2        0.0000 
     58 N           9.2420   14.9560   17.5170 N.am      8 SEL2        0.0000 
     59 N          10.6680   14.6720   14.9470 N.am      5 SEP2        0.0000 
     60 CA         11.7510   14.9040   17.9510 C.3       3 GLC5        0.0000 
     61 CA         10.6560   14.5420   19.8370 C.3       9 GLL5        0.0000 
     62 CA         12.8460   15.2660   16.0650 C.3       6 GLP5        0.0000 
     63 CA         13.2755   13.7830   19.9560 C.3       3 GLC5        0.0000 
     64 CA         11.6810   14.7930   20.9850 C.3       9 GLL5        0.0000 
     65 CA         14.8700   12.7730   18.9270 C.3       6 GLP5        0.0000 
     66 CA          9.9365   13.9385   23.8010 C.3       3 GLC5        0.0000 
     67 CA         10.9930   14.7830   22.3720 C.3       9 GLL5        0.0000 
     68 CA          8.8800   13.0940   25.2300 C.3       6 GLP5        0.0000 
     69 N          12.0215   14.4410   24.7080 N.am      2 SEC2        0.0000 
     70 N          11.7170   14.0970   23.3120 N.am      8 SEL2        0.0000 
     71 N          12.3260   14.7850   26.1040 N.am      5 SEP2        0.0000 
     72 CA         11.3735   16.1620   24.6965 C.3       3 GLC5        0.0000 
     73 CA         10.8770   16.2720   22.6130 C.3       9 GLL5        0.0000 
     74 CA         11.8700   16.0520   26.7800 C.3       6 GLP5        0.0000 
     75 N          11.5980   15.7365   25.0155 N.am      2 SEC2        0.0000 
     76 N          10.8700   16.6880   23.9270 N.am      8 SEL2        0.0000 
     77 O           9.6480   16.8075   24.5340 O.2       1 ALC1        0.0000 
     78 O          10.8700   16.6880   23.9270 O.2       7 ALL1        0.0000 
     79 O           8.4260   16.9270   25.1410 O.2       4 ALP1        0.0000 
     80 CA         13.6345   15.4785   22.1540 C.3       3 GLC5        0.0000 
     81 CA         12.1180   16.7950   21.9100 C.3       9 GLL5        0.0000 
     82 CA         15.1510   14.1620   22.3980 C.3       6 GLP5        0.0000 
     83 CA         14.1540   17.4285   21.2230 C.3       3 GLC5        0.0000 
     84 CA         16.1900   18.0620   20.5360 C.3       6 GLP5        0.0000 
     85 N          11.5655   22.2965   17.5625 N.am      2 SEC2        0.0000 
     86 N          10.7800   21.6060   18.5280 N.am      8 SEL2        0.0000 
     87 N          12.3510   22.9870   16.5970 N.am      5 SEP2        0.0000 
     88 CA          8.1460    9.1873   19.4100 C.3       3 GLC5        0.0000 
     89 CA          6.9266   10.9045   17.5087 C.3       3 GLC5        0.0000 
     90 CA          5.8710   10.2340   19.1020 C.3       9 GLL5        0.0000 
     91 CA          7.2690   11.0680   15.5550 C.3       6 GLP5        0.0000 
     92 CA          3.8598   11.1980   19.5440 C.3       3 GLC5        0.0000 
     93 CA          2.2090   12.5190   19.4320 C.3       6 GLP5        0.0000 
     94 CA          4.5602    9.7530   17.8235 C.3       3 GLC5        0.0000 
     95 CA          5.1500    9.5200   20.2100 C.3       9 GLL5        0.0000 
     96 CA          3.6100    9.6290   15.9910 C.3       6 GLP5        0.0000 
     97 CA          7.7635    7.7162   23.3623 C.3       3 GLC5        0.0000 
     98 CA          5.6530    7.4390   24.1770 C.3       9 GLL5        0.0000 
     99 CA          4.5109    5.6224   23.1384 C.3       3 GLC5        0.0000 
    100 CA          6.1050    7.3080   22.8680 C.3       9 GLL5        0.0000 
    101 CA         13.2440   14.4750   22.0382 C.3       3 GLC5        0.0000 
    102 CA         12.2165   18.3300   18.8650 C.3       3 GLC5        0.0000 
    103 CA         11.4300   18.6040   20.4400 C.3       9 GLL5        0.0000 
    104 CA         13.0560   17.3900   17.4510 C.3       6 GLP5        0.0000 
    105 CA         12.9945   20.1975   24.1290 C.3       3 GLC5        0.0000 
    106 CA         12.4270   20.4520   22.1580 C.3       9 GLL5        0.0000 
    107 CA         13.5140   20.6100   25.9500 C.3       6 GLP5        0.0000 
    108 CA         14.0609   20.2101   21.2935 C.3       3 GLC5        0.0000 
    109 CA         12.5230   19.1180   22.4580 C.3       9 GLL5        0.0000 
    110 CA         15.7940   20.5350   20.5700 C.3       6 GLP5        0.0000 
@<TRIPOS>BOND
@<TRIPOS>SUBSTRUCTURE
     1 ALC1       12 GROUP        1 X    ALC  0     ROOT ALC X 1
     2 SEC2        1 GROUP        1 X    SEC  0     **** SEC X 2
     3 GLC5        9 GROUP        1 X    GLC  0     **** GLC X 6
     4 ALP1       14 GROUP        1 Y    ALP  0     ROOT ALP Y 8
     5 SEP2        3 GROUP        1 Y    SEP  0     **** SEP Y 9
     6 GLP5       11 GROUP        1 Y    GLP  0     **** GLP Y 13
     7 ALL1       13 GROUP        1 Z    ALL  0     ROOT ALL Z 15
     8 SEL2        2 GROUP        1 Z    SEL  0     **** SEL Z 16
     9 GLL5       10 GROUP        1 Z    GLL  0     **** GLL Z 20
@<TRIPOS>SET

