#    Name: 3ko8_NAD_1_ligand
#    Modification time : Mon Mar 24 19:58:13 2014

@<TRIPOS>MOLECULE
3ko8_NAD_1_ligand
   70    74     1     0     0
SMALL
NO_CHARGES


@<TRIPOS>ATOM
      1 PA          6.5680   13.9760   18.5330 P.3       1 NAD901      0.0000 
      2 O1A         6.3310   14.1170   17.1830 O.co2     1 NAD901      0.0000 
      3 O2A         5.4380   13.8770   19.3120 O.co2     1 NAD901      0.0000 
      4 O5B         7.3750   12.8000   18.7380 O.3       1 NAD901      0.0000 
      5 C5B         7.3700   12.0230   19.9140 C.3       1 NAD901      0.0000 
      6 C4B         7.2250   10.4730   19.7320 C.3       1 NAD901      0.0000 
      7 O4B         7.3080    9.7030   20.8690 O.3       1 NAD901      0.0000 
      8 C3B         5.8710   10.2340   19.1020 C.3       1 NAD901      0.0000 
      9 O3B         5.9870    9.4630   17.9520 O.3       1 NAD901      0.0000 
     10 C2B         5.1500    9.5200   20.2100 C.3       1 NAD901      0.0000 
     11 O2B         4.1800    8.6680   19.7240 O.3       1 NAD901      0.0000 
     12 C1B         6.3110    8.8090   20.9110 C.3       1 NAD901      0.0000 
     13 N9A         5.9680    8.4500   22.2790 N.pl3     1 NAD901      0.0000 
     14 C8A         5.4690    9.2670   23.1830 C.2       1 NAD901      0.0000 
     15 N7A         5.2820    8.6780   24.3300 N.2       1 NAD901      0.0000 
     16 C5A         5.6530    7.4390   24.1770 C.ar      1 NAD901      0.0000 
     17 C6A         5.6720    6.3280   25.0180 C.ar      1 NAD901      0.0000 
     18 N6A         5.2570    6.3830   26.2480 N.pl3     1 NAD901      0.0000 
     19 N1A         6.1440    5.2020   24.5390 N.ar      1 NAD901      0.0000 
     20 C2A         6.5550    5.1360   23.2960 C.ar      1 NAD901      0.0000 
     21 N3A         6.5400    6.1410   22.4840 N.ar      1 NAD901      0.0000 
     22 C4A         6.1050    7.3080   22.8680 C.ar      1 NAD901      0.0000 
     23 O3          7.4320   15.1390   19.0940 O.3       1 NAD901      0.0000 
     24 PN          8.8110   15.7060   18.5580 P.3       1 NAD901      0.0000 
     25 O1N         8.6740   17.0230   18.4360 O.co2     1 NAD901      0.0000 
     26 O2N         9.2420   14.9560   17.5170 O.co2     1 NAD901      0.0000 
     27 O5D         9.7180   15.5490   19.6960 O.3       1 NAD901      0.0000 
     28 C5D        10.6560   14.5420   19.8370 C.3       1 NAD901      0.0000 
     29 C4D        11.6810   14.7930   20.9850 C.3       1 NAD901      0.0000 
     30 O4D        12.3150   16.0110   20.8390 O.3       1 NAD901      0.0000 
     31 C3D        10.9930   14.7830   22.3720 C.3       1 NAD901      0.0000 
     32 O3D        11.7170   14.0970   23.3120 O.3       1 NAD901      0.0000 
     33 C2D        10.8770   16.2720   22.6130 C.3       1 NAD901      0.0000 
     34 O2D        10.8700   16.6880   23.9270 O.3       1 NAD901      0.0000 
     35 C1D        12.1180   16.7950   21.9100 C.3       1 NAD901      0.0000 
     36 N1N        12.0300   18.2020   21.5970 N.pl3     1 NAD901      0.0000 
     37 C2N        11.4300   18.6040   20.4400 C.ar      1 NAD901      0.0000 
     38 C3N        11.3240   19.9360   20.1180 C.ar      1 NAD901      0.0000 
     39 C7N        10.6890   20.4470   18.8180 C.2       1 NAD901      0.0000 
     40 O7N        10.7800   21.6060   18.5280 O.2       1 NAD901      0.0000 
     41 N7N        10.0930   19.5760   18.0850 N.am      1 NAD901      0.0000 
     42 C4N        11.8380   20.8530   20.9940 C.ar      1 NAD901      0.0000 
     43 C5N        12.4270   20.4520   22.1580 C.ar      1 NAD901      0.0000 
     44 C6N        12.5230   19.1180   22.4580 C.ar      1 NAD901      0.0000 
     45 H           6.5432   12.3266   20.6136 H         1 NAD901      0.0000 
     46 H           8.3060   12.1727   20.5195 H         1 NAD901      0.0000 
     47 H           7.9623   10.1844   18.9691 H         1 NAD901      0.0000 
     48 H           5.4108   11.1838   18.9628 H         1 NAD901      0.0000 
     49 H           4.7925   10.2735   20.8904 H         1 NAD901      0.0000 
     50 H           6.5232    7.9254   20.3264 H         1 NAD901      0.0000 
     51 H           5.2590   10.2329   23.0016 H         1 NAD901      0.0000 
     52 H           5.3464    7.2688   26.7033 H         1 NAD901      0.0000 
     53 H           4.8865    5.5344   26.6258 H         1 NAD901      0.0000 
     54 H           6.9255    4.1849   22.9380 H         1 NAD901      0.0000 
     55 H          11.2645   14.3853   18.9142 H         1 NAD901      0.0000 
     56 H          10.1949   13.5483   20.0523 H         1 NAD901      0.0000 
     57 H          12.3853   13.9634   20.9783 H         1 NAD901      0.0000 
     58 H           9.9944   14.4150   22.1920 H         1 NAD901      0.0000 
     59 H          10.0375   16.6298   22.0263 H         1 NAD901      0.0000 
     60 H          12.9449   16.6479   22.6512 H         1 NAD901      0.0000 
     61 H          11.0427   17.8905   19.7839 H         1 NAD901      0.0000 
     62 H           9.6666   19.9220   17.2492 H         1 NAD901      0.0000 
     63 H          10.1112   18.6335   18.4188 H         1 NAD901      0.0000 
     64 H          11.7783   21.8679   20.7685 H         1 NAD901      0.0000 
     65 H          12.8039   21.1566   22.8192 H         1 NAD901      0.0000 
     66 H          12.9733   18.8233   23.3434 H         1 NAD901      0.0000 
     67 H           6.5048    8.6551   18.2333 H         1 NAD901      0.0000 
     68 H           4.6846    7.9045   19.3210 H         1 NAD901      0.0000 
     69 H          12.6268   14.5116   23.2910 H         1 NAD901      0.0000 
     70 H           9.9064   16.6840   24.1945 H         1 NAD901      0.0000 
@<TRIPOS>BOND
     1    2    1 ar   
     2    3    1 ar   
     3    4    1 1    
     4   23    1 1    
     5    5    4 1    
     6    6    5 1    
     7   45    5 1    
     8   46    5 1    
     9    7    6 1    
    10    8    6 1    
    11   47    6 1    
    12   12    7 1    
    13    9    8 1    
    14   10    8 1    
    15   48    8 1    
    16   67    9 1    
    17   11   10 1    
    18   12   10 1    
    19   49   10 1    
    20   68   11 1    
    21   13   12 1    
    22   50   12 1    
    23   14   13 1    
    24   22   13 1    
    25   15   14 2    
    26   51   14 1    
    27   16   15 1    
    28   17   16 ar   
    29   22   16 ar   
    30   18   17 1    
    31   19   17 ar   
    32   52   18 1    
    33   53   18 1    
    34   20   19 ar   
    35   21   20 ar   
    36   54   20 1    
    37   22   21 ar   
    38   24   23 1    
    39   25   24 ar   
    40   26   24 ar   
    41   27   24 1    
    42   28   27 1    
    43   29   28 1    
    44   55   28 1    
    45   56   28 1    
    46   30   29 1    
    47   31   29 1    
    48   57   29 1    
    49   35   30 1    
    50   32   31 1    
    51   33   31 1    
    52   58   31 1    
    53   69   32 1    
    54   34   33 1    
    55   35   33 1    
    56   59   33 1    
    57   70   34 1    
    58   36   35 1    
    59   60   35 1    
    60   37   36 ar   
    61   44   36 ar   
    62   38   37 ar   
    63   61   37 1    
    64   39   38 1    
    65   42   38 ar   
    66   40   39 2    
    67   41   39 am   
    68   62   41 1    
    69   63   41 1    
    70   43   42 ar   
    71   64   42 1    
    72   44   43 ar   
    73   65   43 1    
    74   66   44 1    
@<TRIPOS>SUBSTRUCTURE
     1 NAD901      1 GROUP   
@<TRIPOS>SET

