#    Name: 3TG6_2_CAVITY_N1_6.mol2
#    Modification time : Tue Mar 11 03:50:09 2014

@<TRIPOS>MOLECULE
3TG6_2_CAVITY_N1_6.mol2
  150     0     7     0     0
SMALL
NO_CHARGES


@<TRIPOS>ATOM
      1 CZ          5.0920  -26.7502   10.7308 C.ar      5 PHE5        0.0000 
      2 CZ          4.2323  -27.7939   10.0815 C.ar      5 PHE5        0.0000 
      3 CA          4.1632  -28.5440   11.3787 C.3       6 GLY6        0.0000 
      4 CA          4.0941  -29.2940   12.6758 C.3       6 GLY6        0.0000 
      5 CZ          3.3726  -28.8377    9.4322 C.ar      5 PHE5        0.0000 
      6 DU          3.3035  -29.5877   10.7294 H         7 CUB7        0.0000 
      7 DU          3.2344  -30.3378   12.0266 H         7 CUB7        0.0000 
      8 CZ          3.1653  -31.0878   13.3237 C.ar      5 PHE5        0.0000 
      9 CZ          3.0962  -31.8379   14.6209 C.ar      5 PHE5        0.0000 
     10 CA          2.5128  -29.8814    8.7829 C.3       6 GLY6        0.0000 
     11 DU          2.4438  -30.6314   10.0801 H         7 CUB7        0.0000 
     12 CZ          2.3056  -32.1315   12.6745 C.ar      5 PHE5        0.0000 
     13 CZ          2.2365  -32.8816   13.9716 C.ar      5 PHE5        0.0000 
     14 CA          1.6531  -30.9251    8.1337 C.3       6 GLY6        0.0000 
     15 DU          1.5841  -31.6751    9.4308 H         7 CUB7        0.0000 
     16 DU          1.5150  -32.4252   10.7280 H         7 CUB7        0.0000 
     17 CZ          1.4459  -33.1752   12.0252 C.ar      5 PHE5        0.0000 
     18 CZ          1.3768  -33.9253   13.3223 C.ar      5 PHE5        0.0000 
     19 N           0.7934  -31.9688    7.4844 N.2       2 ALA2        0.0000 
     20 O           0.7243  -32.7188    8.7816 O.2       2 ALA2        0.0000 
     21 O           0.6553  -33.4689   10.0787 O.2       2 ALA2        0.0000 
     22 O           0.5171  -34.9690   12.6731 O.2       2 ALA2        0.0000 
     23 CZ          0.4480  -35.7190   13.9702 C.ar      5 PHE5        0.0000 
     24 CZ          0.3789  -36.4691   15.2674 C.ar      5 PHE5        0.0000 
     25 O           0.0028  -32.2625    5.5379 O.2       2 ALA2        0.0000 
     26 N          -0.0663  -33.0125    6.8351 N.2       2 ALA2        0.0000 
     27 O          -0.1354  -33.7626    8.1323 O.2       2 ALA2        0.0000 
     28 CA         -0.4117  -36.7627   13.3210 C.3       6 GLY6        0.0000 
     29 OG         -0.4808  -37.5128   14.6181 O.2       1 SER1        0.0000 
     30 DU         -0.9260  -34.0562    6.1858 H         7 CUB7        0.0000 
     31 O          -0.9951  -34.8063    7.4830 O.2       2 ALA2        0.0000 
     32 N           6.3192  -27.5236   10.3489 N.2       2 ALA2        0.0000 
     33 OG          5.4595  -28.5673    9.6997 O.2       1 SER1        0.0000 
     34 CA          5.3904  -29.3174   10.9968 C.3       6 GLY6        0.0000 
     35 OG          4.5307  -30.3611   10.3476 O.2       1 SER1        0.0000 
     36 CZ          4.4616  -31.1111   11.6447 C.ar      5 PHE5        0.0000 
     37 CZ          4.3926  -31.8612   12.9419 C.ar      5 PHE5        0.0000 
     38 OG          3.6710  -31.4048    9.6983 O.2       1 SER1        0.0000 
     39 N           3.6019  -32.1548   10.9955 N.2       2 ALA2        0.0000 
     40 N           3.5329  -32.9049   12.2926 N.2       2 ALA2        0.0000 
     41 CZ          3.4638  -33.6549   13.5898 C.ar      5 PHE5        0.0000 
     42 CZ          3.3947  -34.4050   14.8870 C.ar      5 PHE5        0.0000 
     43 N           2.8113  -32.4485    9.0490 N.2       2 ALA2        0.0000 
     44 N           2.7422  -33.1985   10.3462 N.2       2 ALA2        0.0000 
     45 O           2.6731  -33.9486   11.6434 O.2       2 ALA2        0.0000 
     46 O           2.6041  -34.6986   12.9405 O.2       2 ALA2        0.0000 
     47 CZ          2.5350  -35.4487   14.2377 C.ar      5 PHE5        0.0000 
     48 CA          2.4659  -36.1987   15.5349 C.3       6 GLY6        0.0000 
     49 N           1.9516  -33.4922    8.3997 N.2       2 ALA2        0.0000 
     50 O           1.8825  -34.2423    9.6969 O.2       2 ALA2        0.0000 
     51 O           1.8134  -34.9923   10.9941 O.2       2 ALA2        0.0000 
     52 O           1.7443  -35.7424   12.2913 O.2       2 ALA2        0.0000 
     53 CA          1.6753  -36.4924   13.5884 C.3       6 GLY6        0.0000 
     54 N           1.1609  -33.7859    6.4533 N.2       2 ALA2        0.0000 
     55 O           1.0919  -34.5359    7.7505 O.2       2 ALA2        0.0000 
     56 O           0.2322  -35.5796    7.1012 O.2       2 ALA2        0.0000 
     57 CZ          5.6889  -31.8845   11.2629 C.ar      5 PHE5        0.0000 
     58 CZ          4.8983  -32.1782    9.3165 C.ar      5 PHE5        0.0000 
     59 N           4.8292  -32.9282   10.6136 N.2       2 ALA2        0.0000 
     60 N           4.0385  -33.2219    8.6672 N.2       2 ALA2        0.0000 
     61 N           3.9695  -33.9719    9.9644 N.2       2 ALA2        0.0000 
     62 N           3.1788  -34.2656    8.0179 N.2       2 ALA2        0.0000 
     63 O           3.1097  -35.0156    9.3151 O.2       2 ALA2        0.0000 
     64 N           2.3191  -35.3093    7.3686 N.2       2 ALA2        0.0000 
     65 O           2.2500  -36.0593    8.6658 O.2       2 ALA2        0.0000 
     66 O           1.4594  -36.3530    6.7194 O.2       2 ALA2        0.0000 
     67 CZ          5.2658  -33.9952    8.2854 C.ar      5 PHE5        0.0000 
     68 N           4.4061  -35.0389    7.6361 N.2       2 ALA2        0.0000 
     69 N           4.3370  -35.7890    8.9333 N.2       2 ALA2        0.0000 
     70 N           3.5463  -36.0827    6.9868 N.2       2 ALA2        0.0000 
     71 O           3.4773  -36.8327    8.2840 O.2       2 ALA2        0.0000 
     72 O           3.4082  -37.5827    9.5812 O.2       2 ALA2        0.0000 
     73 DU          2.6866  -37.1264    6.3375 H         7 CUB7        0.0000 
     74 O           2.6176  -37.8764    7.6347 O.2       2 ALA2        0.0000 
     75 CA          2.5485  -38.6265    8.9319 C.3       6 GLY6        0.0000 
     76 OG          5.5642  -36.5624    8.5515 O.2       1 SER1        0.0000 
     77 OG          4.7736  -36.8560    6.6050 O.2       1 SER1        0.0000 
     78 OG          4.7045  -37.6061    7.9022 O.2       1 SER1        0.0000 
     79 CA          4.6354  -38.3561    9.1993 C.3       6 GLY6        0.0000 
     80 N          -1.2514  -25.1336   16.5314 N.2       2 ALA2        0.0000 
     81 NZ          0.9046  -24.1132   15.5017 N.2       4 LYS4        0.0000 
     82 N           0.8355  -24.8632   16.7988 N.2       2 ALA2        0.0000 
     83 N           0.7664  -25.6133   18.0960 N.2       2 ALA2        0.0000 
     84 N           0.0449  -25.1569   14.8524 N.2       2 ALA2        0.0000 
     85 N          -0.0242  -25.9069   16.1496 N.2       2 ALA2        0.0000 
     86 CA         -0.8839  -26.9506   15.5003 C.3       6 GLY6        0.0000 
     87 N          -0.9530  -27.7007   16.7975 N.2       2 ALA2        0.0000 
     88 NZ         -1.7436  -27.9943   14.8510 N.2       4 LYS4        0.0000 
     89 N           2.0627  -25.6366   16.4170 N.2       2 ALA2        0.0000 
     90 NZ          1.2721  -25.9302   14.4706 N.2       4 LYS4        0.0000 
     91 N           1.2030  -26.6803   15.7677 N.2       2 ALA2        0.0000 
     92 CA          0.4124  -26.9739   13.8213 C.3       6 GLY6        0.0000 
     93 N           0.3433  -27.7240   15.1185 N.2       2 ALA2        0.0000 
     94 NZ         -0.5164  -28.7677   14.4692 N.2       4 LYS4        0.0000 
     95 NZ         -0.5855  -29.5178   15.7664 N.2       4 LYS4        0.0000 
     96 NZ         -4.0243  -33.6926   13.1693 N.2       4 LYS4        0.0000 
     97 NZ         -4.8840  -34.7363   12.5200 N.2       4 LYS4        0.0000 
     98 O          -5.8128  -36.5301   13.1679 O.2       2 ALA2        0.0000 
     99 O          -6.6726  -37.5738   12.5186 O.2       2 ALA2        0.0000 
    100 NZ          2.5684  -25.9536   12.7916 N.2       4 LYS4        0.0000 
    101 NZ          2.4994  -26.7036   14.0887 N.2       4 LYS4        0.0000 
    102 N           2.4303  -27.4537   15.3859 N.2       2 ALA2        0.0000 
    103 CA          1.7087  -26.9973   12.1423 C.3       6 GLY6        0.0000 
    104 CA          1.6396  -27.7473   13.4395 C.3       6 GLY6        0.0000 
    105 N           1.5706  -28.4974   14.7366 N.2       2 ALA2        0.0000 
    106 CA          0.7799  -28.7910   12.7902 C.3       6 GLY6        0.0000 
    107 CZ          0.7108  -29.5411   14.0874 C.ar      5 PHE5        0.0000 
    108 O          -0.0798  -29.8347   12.1409 O.2       2 ALA2        0.0000 
    109 CZ         -0.1489  -30.5848   13.4381 C.ar      5 PHE5        0.0000 
    110 O          -0.9395  -30.8784   11.4916 O.2       2 ALA2        0.0000 
    111 CZ         -1.0086  -31.6285   12.7888 C.ar      5 PHE5        0.0000 
    112 O          -1.8683  -32.6722   12.1395 O.2       2 ALA2        0.0000 
    113 O          -2.4517  -30.7157    6.3016 O.2       2 ALA2        0.0000 
    114 O          -2.7280  -33.7159   11.4903 O.2       2 ALA2        0.0000 
    115 OG         -2.7971  -34.4660   12.7874 O.2       1 SER1        0.0000 
    116 O          -3.5877  -34.7596   10.8410 O.2       2 ALA2        0.0000 
    117 O          -3.6568  -35.5097   12.1382 O.2       2 ALA2        0.0000 
    118 OG         -3.7259  -36.2597   13.4353 O.2       1 SER1        0.0000 
    119 O          -4.5165  -36.5534   11.4889 O.2       2 ALA2        0.0000 
    120 O          -4.5856  -37.3034   12.7861 O.2       2 ALA2        0.0000 
    121 O          -5.3762  -37.5971   10.8396 O.2       2 ALA2        0.0000 
    122 CA          3.7957  -26.7269   12.4098 C.3       6 GLY6        0.0000 
    123 CA          3.7266  -27.4770   13.7069 C.3       6 GLY6        0.0000 
    124 CZ          3.0050  -27.0206   10.4633 C.ar      5 PHE5        0.0000 
    125 DU          2.9360  -27.7706   11.7605 H         7 CUB7        0.0000 
    126 CA          2.8669  -28.5207   13.0576 C.3       6 GLY6        0.0000 
    127 CZ          2.7978  -29.2707   14.3548 C.ar      5 PHE5        0.0000 
    128 CA          2.0762  -28.8143   11.1112 C.3       6 GLY6        0.0000 
    129 DU          2.0072  -29.5644   12.4084 H         7 CUB7        0.0000 
    130 CZ          1.9381  -30.3144   13.7055 C.ar      5 PHE5        0.0000 
    131 CZ          1.2856  -29.1080    9.1648 C.ar      5 PHE5        0.0000 
    132 O           1.2165  -29.8581   10.4619 O.2       2 ALA2        0.0000 
    133 DU          1.1475  -30.6081   11.7591 H         7 CUB7        0.0000 
    134 CZ          1.0784  -31.3582   13.0563 C.ar      5 PHE5        0.0000 
    135 O           0.4259  -30.1517    8.5155 O.2       2 ALA2        0.0000 
    136 OD1         0.3568  -30.9018    9.8127 O.3       3 ASP3        0.0000 
    137 DU          0.2877  -31.6518   11.1098 H         7 CUB7        0.0000 
    138 CZ          0.2187  -32.4019   12.4070 C.ar      5 PHE5        0.0000 
    139 O          -0.3647  -30.4454    6.5690 O.2       2 ALA2        0.0000 
    140 O          -0.4338  -31.1954    7.8662 O.2       2 ALA2        0.0000 
    141 O          -0.5029  -31.9455    9.1634 O.2       2 ALA2        0.0000 
    142 O          -0.5720  -32.6955   10.4605 O.2       2 ALA2        0.0000 
    143 O          -0.6411  -33.4456   11.7577 O.2       2 ALA2        0.0000 
    144 CZ         -0.7101  -34.1956   13.0549 C.ar      5 PHE5        0.0000 
    145 CA         -1.2245  -31.4891    5.9198 C.3       6 GLY6        0.0000 
    146 DU         -1.2935  -32.2391    7.2169 H         7 CUB7        0.0000 
    147 OG         -2.4986  -37.0331   13.0535 O.2       1 SER1        0.0000 
    148 NZ         -2.5677  -37.7831   14.3507 N.2       4 LYS4        0.0000 
    149 O          -3.3584  -38.0768   12.4042 O.2       2 ALA2        0.0000 
    150 CA         -4.2181  -39.1205   11.7550 C.3       6 GLY6        0.0000 
@<TRIPOS>BOND
@<TRIPOS>SUBSTRUCTURE
     1 SER1       29 GROUP   
     2 ALA2       19 GROUP   
     3 ASP3      136 GROUP   
     4 LYS4       81 GROUP   
     5 PHE5        1 GROUP   
     6 GLY6        3 GROUP   
     7 CUB7        6 GROUP   
@<TRIPOS>SET

