#    Name: 3tg6_0MM_2_INTS_M
#    Modification time : Mon Mar 24 20:05:06 2014

@<TRIPOS>MOLECULE
3tg6_0MM_2_INTS_M
   53     0     6     0     0
SMALL
NO_CHARGES


@<TRIPOS>ATOM
      1 CA          1.2670  -30.0760   16.6920 C.3       2 GLC5        0.0000 
      2 CA          0.9430  -29.5530   14.7370 C.3       6 GLL5        0.0000 
      3 CA          1.5910  -30.5990   18.6470 C.3       4 GLP5        0.0000 
      4 CA          4.1650  -28.5795   13.8840 C.3       2 GLC5        0.0000 
      5 CA          1.9660  -28.9830   13.9840 C.3       6 GLL5        0.0000 
      6 CA          6.3640  -28.1760   13.7840 C.3       4 GLP5        0.0000 
      7 CA          0.5385  -27.5755   12.2495 C.3       2 GLC5        0.0000 
      8 CA          1.9740  -29.1350   12.6060 C.3       6 GLL5        0.0000 
      9 CA         -0.8970  -26.0160   11.8930 C.3       4 GLP5        0.0000 
     10 CA          2.2030  -38.0370   14.9965 C.3       2 GLC5        0.0000 
     11 CA          0.6320  -36.6810   14.6090 C.3       6 GLL5        0.0000 
     12 CA          3.7740  -39.3930   15.3840 C.3       4 GLP5        0.0000 
     13 CA          4.1060  -31.6635   14.7195 C.3       2 GLC5        0.0000 
     14 CA          2.9610  -32.4150   13.2450 C.3       6 GLL5        0.0000 
     15 CA          5.2510  -30.9120   16.1940 C.3       4 GLP5        0.0000 
     16 CA          1.8910  -32.5905   14.7105 C.3       2 GLC5        0.0000 
     17 CA          0.8210  -32.7660   16.1760 C.3       4 GLP5        0.0000 
     18 CA          5.1345  -30.4940   13.5490 C.3       2 GLC5        0.0000 
     19 CA          3.9790  -31.4920   12.5750 C.3       6 GLL5        0.0000 
     20 CA          6.2900  -29.4960   14.5230 C.3       4 GLP5        0.0000 
     21 CA          5.7990  -32.8720   10.0195 C.3       2 GLC5        0.0000 
     22 CA          4.0500  -32.9900   10.6330 C.3       6 GLL5        0.0000 
     23 CA          7.5480  -32.7540    9.4060 C.3       4 GLP5        0.0000 
     24 CA          6.0760  -28.0805   11.6485 C.3       2 GLC5        0.0000 
     25 CA          5.7880  -27.9850    9.5130 C.3       6 GLL5        0.0000 
     26 CA          6.2865  -27.2045    7.7875 C.3       2 GLC5        0.0000 
     27 CA          6.7850  -26.4240    6.0620 C.3       4 GLP5        0.0000 
     28 CA          4.5280  -26.7345    8.9625 C.3       2 GLC5        0.0000 
     29 CA          3.2680  -25.4840    8.4120 C.3       4 GLP5        0.0000 
     30 CA          7.1520  -28.8320    8.4540 C.3       2 GLC5        0.0000 
     31 CA          8.5160  -29.6790    7.3950 C.3       4 GLP5        0.0000 
     32 N           4.2425  -30.1550    7.8610 N.am      1 SEC2        0.0000 
     33 N           3.9250  -30.5550    9.0550 N.am      5 SEL2        0.0000 
     34 N           4.5600  -29.7550    6.6670 N.am      3 SEP2        0.0000 
     35 CA          4.9810  -33.2150   15.6710 C.3       2 GLC5        0.0000 
     36 CA          3.8400  -34.4920   15.4720 C.3       6 GLL5        0.0000 
     37 CA          6.1220  -31.9380   15.8700 C.3       4 GLP5        0.0000 
     38 CA          2.3305  -33.6290   15.8240 C.3       2 GLC5        0.0000 
     39 CA          4.0315  -36.0060   16.6340 C.3       2 GLC5        0.0000 
     40 CA          4.2230  -37.5200   17.7960 C.3       4 GLP5        0.0000 
     41 CA          3.1662  -36.5773   16.3672 C.3       2 GLC5        0.0000 
     42 CA          1.7260  -36.1190   15.2590 C.3       6 GLL5        0.0000 
     43 CA          5.3200  -28.3985   12.2270 C.3       2 GLC5        0.0000 
     44 CA          3.8610  -29.1340   10.8580 C.3       6 GLL5        0.0000 
     45 CA          0.7260  -37.9085   12.9585 C.3       2 GLC5        0.0000 
     46 CA          1.0710  -35.3020   12.6780 C.3       6 GLL5        0.0000 
     47 CA          0.7930  -39.5820   12.1140 C.3       4 GLP5        0.0000 
     48 CA          4.8882  -35.4000   14.0310 C.3       2 GLC5        0.0000 
     49 CA          2.4930  -35.1500   14.6180 C.3       6 GLL5        0.0000 
     50 CA          6.6100  -35.9790   13.0170 C.3       4 GLP5        0.0000 
     51 CA         -0.0968  -28.3723   10.8890 C.3       2 GLC5        0.0000 
     52 CA          0.9410  -29.8540   12.0420 C.3       6 GLL5        0.0000 
     53 CA         -1.0780  -26.7620   10.5850 C.3       4 GLP5        0.0000 
@<TRIPOS>BOND
@<TRIPOS>SUBSTRUCTURE
     1 SEC2       32 GROUP        1 X    SEC  0     ROOT SEC X 2
     2 GLC5        1 GROUP        1 X    GLC  0     **** GLC X 6
     3 SEP2       34 GROUP        1 Y    SEP  0     ROOT SEP Y 9
     4 GLP5        3 GROUP        1 Y    GLP  0     **** GLP Y 13
     5 SEL2       33 GROUP        1 Z    SEL  0     ROOT SEL Z 16
     6 GLL5        2 GROUP        1 Z    GLL  0     **** GLL Z 20
@<TRIPOS>SET

