#    Name: 3tg6_0MM_2_ligand
#    Modification time : Mon Mar 24 20:05:06 2014

@<TRIPOS>MOLECULE
3tg6_0MM_2_ligand
   48    51     1     0     0
SMALL
NO_CHARGES


@<TRIPOS>ATOM
      1 C1          0.9430  -29.5530   14.7370 C.ar      1 0MM1        0.0000 
      2 C2          1.9660  -28.9830   13.9840 C.ar      1 0MM1        0.0000 
      3 C3          1.0710  -35.3020   12.6780 C.ar      1 0MM1        0.0000 
      4 C4          0.3010  -36.2760   13.3160 C.ar      1 0MM1        0.0000 
      5 C5          1.7260  -36.1190   15.2590 C.ar      1 0MM1        0.0000 
      6 C6         -0.0460  -30.2600   14.0750 C.ar      1 0MM1        0.0000 
      7 C7          1.9740  -29.1350   12.6060 C.ar      1 0MM1        0.0000 
      8 C8          3.8610  -29.1340   10.8580 C.2       1 0MM1        0.0000 
      9 C9          2.1690  -34.7370   13.3260 C.ar      1 0MM1        0.0000 
     10 C10         0.6320  -36.6810   14.6090 C.ar      1 0MM1        0.0000 
     11 C11         2.4930  -35.1500   14.6180 C.ar      1 0MM1        0.0000 
     12 C12         3.0380  -28.5440   11.8400 C.2       1 0MM1        0.0000 
     13 C13         4.6910  -28.1080   10.4820 C.2       1 0MM1        0.0000 
     14 C14         0.9410  -29.8540   12.0420 C.ar      1 0MM1        0.0000 
     15 C15         3.9160  -30.4920   10.2850 C.2       1 0MM1        0.0000 
     16 C16         2.9610  -32.4150   13.2450 C.3       1 0MM1        0.0000 
     17 C17         2.8900  -33.8040   11.1880 C.3       1 0MM1        0.0000 
     18 C18         3.9790  -31.4920   12.5750 C.3       1 0MM1        0.0000 
     19 C19         4.0500  -32.9900   10.6330 C.3       1 0MM1        0.0000 
     20 C20         5.7880  -27.9850    9.5130 C.3       1 0MM1        0.0000 
     21 N21        -0.0710  -30.4230   12.7360 N.ar      1 0MM1        0.0000 
     22 N22         3.3490  -27.2630   12.0480 N.2       1 0MM1        0.0000 
     23 N23         2.9170  -33.7650   12.6510 N.3       1 0MM1        0.0000 
     24 N24         3.9750  -31.6130   11.1190 N.am      1 0MM1        0.0000 
     25 N25        -0.1300  -37.6700   15.2810 N.pl3     1 0MM1        0.0000 
     26 O26        -1.1210  -38.1900   14.7070 O.2       1 0MM1        0.0000 
     27 O27         3.9250  -30.5550    9.0550 O.2       1 0MM1        0.0000 
     28 O28         0.2180  -37.9940   16.4440 O.2       1 0MM1        0.0000 
     29 O29         4.4000  -26.9870   11.1820 O.3       1 0MM1        0.0000 
     30 CL30        3.8400  -34.4920   15.4720 Cl        1 0MM1        0.0000 
     31 CL31        0.8280  -30.1110   10.3440 Cl        1 0MM1        0.0000 
     32 H           0.9260  -29.4503   15.7495 H         1 0MM1        0.0000 
     33 H           2.7114  -28.4519   14.4505 H         1 0MM1        0.0000 
     34 H           0.8268  -35.0000   11.7252 H         1 0MM1        0.0000 
     35 H          -0.5035  -36.6912   12.8363 H         1 0MM1        0.0000 
     36 H           1.9682  -36.4186   16.2117 H         1 0MM1        0.0000 
     37 H          -0.8160  -30.6894   14.6627 H         1 0MM1        0.0000 
     38 H           1.9671  -31.9359   13.1793 H         1 0MM1        0.0000 
     39 H           3.2097  -32.4784   14.3201 H         1 0MM1        0.0000 
     40 H           2.9818  -34.8297   10.8252 H         1 0MM1        0.0000 
     41 H           1.9577  -33.3837   10.8055 H         1 0MM1        0.0000 
     42 H           4.9765  -31.7320   12.9830 H         1 0MM1        0.0000 
     43 H           3.7516  -30.4556   12.8803 H         1 0MM1        0.0000 
     44 H           4.0019  -33.0200    9.5406 H         1 0MM1        0.0000 
     45 H           4.9852  -33.4627   10.9467 H         1 0MM1        0.0000 
     46 H           6.1759  -27.0633    9.5062 H         1 0MM1        0.0000 
     47 H           6.5362  -28.6164    9.7169 H         1 0MM1        0.0000 
     48 H           5.4840  -28.1820    8.5809 H         1 0MM1        0.0000 
@<TRIPOS>BOND
     1    2    1 ar   
     2    6    1 ar   
     3   32    1 1    
     4    7    2 ar   
     5   33    2 1    
     6    4    3 ar   
     7    9    3 ar   
     8   34    3 1    
     9   10    4 ar   
    10   35    4 1    
    11   10    5 ar   
    12   11    5 ar   
    13   36    5 1    
    14   21    6 ar   
    15   37    6 1    
    16   12    7 1    
    17   14    7 ar   
    18   12    8 1    
    19   13    8 2    
    20   15    8 1    
    21   11    9 ar   
    22   23    9 1    
    23   25   10 1    
    24   30   11 1    
    25   22   12 2    
    26   20   13 1    
    27   29   13 1    
    28   21   14 ar   
    29   31   14 1    
    30   24   15 am   
    31   27   15 2    
    32   18   16 1    
    33   23   16 1    
    34   38   16 1    
    35   39   16 1    
    36   19   17 1    
    37   23   17 1    
    38   40   17 1    
    39   41   17 1    
    40   24   18 1    
    41   42   18 1    
    42   43   18 1    
    43   24   19 1    
    44   44   19 1    
    45   45   19 1    
    46   46   20 1    
    47   47   20 1    
    48   48   20 1    
    49   29   22 1    
    50   26   25 2    
    51   28   25 2    
@<TRIPOS>SUBSTRUCTURE
     1 0MM1        1 GROUP   
@<TRIPOS>SET

