#    Name: 1p1i_NAD_2_INTS_M
#    Modification time : Mon Mar 24 21:02:06 2014

@<TRIPOS>MOLECULE
1p1i_NAD_2_INTS_M
   92     0     9     0     0
SMALL
NO_CHARGES


@<TRIPOS>ATOM
      1 N          17.2110    4.6045   10.2945 N.am      2 SEC2        0.0000 
      2 N          18.0690    5.7950   10.2440 N.am      8 SEL2        0.0000 
      3 N          16.3530    3.4140   10.3450 N.am      5 SEP2        0.0000 
      4 N          20.1355    8.9300   11.4335 N.am      2 SEC2        0.0000 
      5 N          19.4500    7.8190   10.6120 N.am      8 SEL2        0.0000 
      6 N          20.8210   10.0410   12.2550 N.am      5 SEP2        0.0000 
      7 CA         20.8660    4.2955   15.0865 C.3       3 GLC5        0.0000 
      8 CA         20.3600    4.4760   13.2030 C.3       9 GLL5        0.0000 
      9 CA         21.3720    4.1150   16.9700 C.3       6 GLP5        0.0000 
     10 O          23.2040    4.2925   13.3655 O.2       1 ALC1        0.0000 
     11 O          22.5470    4.6110   12.0900 O.2       7 ALL1        0.0000 
     12 O          23.8610    3.9740   14.6410 O.2       4 ALP1        0.0000 
     13 O          23.2555    1.9605   12.7265 O.2       1 ALC1        0.0000 
     14 O          22.4240    1.9680   11.6330 O.2       7 ALL1        0.0000 
     15 O          24.0870    1.9530   13.8200 O.2       4 ALP1        0.0000 
     16 CA         21.1745    3.2110   15.2520 C.3       3 GLC5        0.0000 
     17 CA         20.9770    2.3070   13.5340 C.3       9 GLL5        0.0000 
     18 CA         19.4755    2.2465   14.9745 C.3       3 GLC5        0.0000 
     19 CA         17.9740    2.1860   16.4150 C.3       6 GLP5        0.0000 
     20 O          19.8760   -4.2855   16.5380 O.2       1 ALC1        0.0000 
     21 O          19.2550   -2.9740   15.9850 O.2       7 ALL1        0.0000 
     22 O          20.4970   -5.5970   17.0910 O.2       4 ALP1        0.0000 
     23 N          21.7145   -2.1765   17.6960 N.am      2 SEC2        0.0000 
     24 N          20.8590   -1.5330   16.9720 N.am      8 SEL2        0.0000 
     25 N          22.5700   -2.8200   18.4200 N.am      5 SEP2        0.0000 
     26 CA         20.6490    0.3035   18.3320 C.3       3 GLC5        0.0000 
     27 CA         21.5860   -0.3270   16.9250 C.3       9 GLL5        0.0000 
     28 CA         19.7120    0.9340   19.7390 C.3       6 GLP5        0.0000 
     29 CA         21.4790    1.8940   16.9475 C.3       3 GLC5        0.0000 
     30 CA         23.1820    0.3560   16.6855 C.3       3 GLC5        0.0000 
     31 CA         24.7780    1.0390   16.4460 C.3       6 GLP5        0.0000 
     32 CA         22.1735   -1.7070   15.5455 C.3       3 GLC5        0.0000 
     33 CA         22.7610   -3.0870   14.1660 C.3       6 GLP5        0.0000 
     34 CA         22.7410   -1.4690   17.4525 C.3       3 GLC5        0.0000 
     35 CA         23.8960   -2.6110   17.9800 C.3       6 GLP5        0.0000 
     36 CA         19.7800    0.9295   16.6700 C.3       3 GLC5        0.0000 
     37 N          22.9935   -0.0395   15.3885 N.am      2 SEC2        0.0000 
     38 N          21.5320    0.6180   15.9800 N.am      8 SEL2        0.0000 
     39 N          24.4550   -0.6970   14.7970 N.am      5 SEP2        0.0000 
     40 CA         20.9770    2.2285   15.9940 C.3       3 GLC5        0.0000 
     41 CA         20.5820    0.3420   15.0180 C.3       9 GLL5        0.0000 
     42 CA         22.6800    0.6905   15.7320 C.3       3 GLC5        0.0000 
     43 CA         21.7460   -0.4825   13.7065 C.3       3 GLC5        0.0000 
     44 CA         22.9100   -1.3070   12.3950 C.3       6 GLP5        0.0000 
     45 N          18.7980   10.2745   13.9080 N.am      2 SEC2        0.0000 
     46 N          18.0760    9.0410   13.5240 N.am      8 SEL2        0.0000 
     47 N          19.5200   11.5080   14.2920 N.am      5 SEP2        0.0000 
     48 N          19.0260    8.6525   14.5525 N.am      2 SEC2        0.0000 
     49 N          19.9760    8.2640   15.5810 N.am      5 SEP2        0.0000 
     50 CA         14.3430    4.1730   13.1480 C.3       3 GLC5        0.0000 
     51 CA         13.3220    6.1330   13.4760 C.3       9 GLL5        0.0000 
     52 CA         15.3640    2.2130   12.8200 C.3       6 GLP5        0.0000 
     53 N          13.2335    3.2940   13.0130 N.am      2 SEC2        0.0000 
     54 N          13.4300    4.8220   12.8910 N.am      8 SEL2        0.0000 
     55 N          13.0370    1.7660   13.1350 N.am      5 SEP2        0.0000 
     56 O          12.0160    3.9855   13.0750 O.2       1 ALC1        0.0000 
     57 O          13.4300    4.8220   12.8910 O.2       7 ALL1        0.0000 
     58 O          10.6020    3.1490   13.2590 O.2       4 ALP1        0.0000 
     59 CA         11.5835    4.9250   15.8160 C.3       3 GLC5        0.0000 
     60 CA         11.9560    6.3910   14.1530 C.3       9 GLL5        0.0000 
     61 CA         11.2110    3.4590   17.4790 C.3       6 GLP5        0.0000 
     62 N          11.9775    4.6115   15.9340 N.am      2 SEC2        0.0000 
     63 N          11.5030    5.1890   14.7870 N.am      8 SEL2        0.0000 
     64 N          12.4520    4.0340   17.0810 N.am      5 SEP2        0.0000 
     65 O          11.0525    4.1690   14.0230 O.2       1 ALC1        0.0000 
     66 O          11.5030    5.1890   14.7870 O.2       7 ALL1        0.0000 
     67 CA         12.9680   10.2050   16.2640 C.3       3 GLC5        0.0000 
     68 CA         12.7630    9.7560   14.1180 C.3       9 GLL5        0.0000 
     69 CA         13.1730   10.6540   18.4100 C.3       6 GLP5        0.0000 
     70 CA         18.4597    4.0675   14.4642 C.3       3 GLC5        0.0000 
     71 CA         17.2470    3.4120   15.8830 C.3       6 GLP5        0.0000 
     72 CA         21.2114    6.2163   12.6854 C.3       3 GLC5        0.0000 
     73 CA         18.9850    4.9700   12.8880 C.3       9 GLL5        0.0000 
     74 CA         21.9770    8.0360   12.8500 C.3       6 GLP5        0.0000 
     75 CA         21.7060    2.5143   10.1958 C.3       3 GLC5        0.0000 
     76 CA         21.2190    4.0700   11.9960 C.3       9 GLL5        0.0000 
     77 CA         22.2180    1.7240    8.3680 C.3       6 GLP5        0.0000 
     78 CA         21.9915    0.5580   12.5938 C.3       3 GLC5        0.0000 
     79 CA         21.1690    2.5390   12.0510 C.3       9 GLL5        0.0000 
     80 CA         21.2773   -2.1880   14.8248 C.3       3 GLC5        0.0000 
     81 CA         19.6900   -0.7730   14.9730 C.3       9 GLL5        0.0000 
     82 CA         19.0809    0.8562   15.8329 C.3       3 GLC5        0.0000 
     83 CA         15.7058    6.3850   16.4035 C.3       3 GLC5        0.0000 
     84 CA         15.6630    6.8970   14.2070 C.3       9 GLL5        0.0000 
     85 CA         16.4400    6.1160   18.3930 C.3       6 GLP5        0.0000 
     86 CA         16.1092    5.0330   15.1485 C.3       3 GLC5        0.0000 
     87 CA         13.0012   12.8033   15.2517 C.3       3 GLC5        0.0000 
     88 CA         12.4400   11.1240   13.9040 C.3       9 GLL5        0.0000 
     89 CA         14.2140   14.2170   16.3430 C.3       6 GLP5        0.0000 
     90 CA         10.6456   10.5963   16.8114 C.3       3 GLC5        0.0000 
     91 CA         10.5680    9.4070   15.2660 C.3       9 GLL5        0.0000 
     92 CA         10.6710   10.8870   18.6160 C.3       6 GLP5        0.0000 
@<TRIPOS>BOND
@<TRIPOS>SUBSTRUCTURE
     1 ALC1       10 GROUP        1 X    ALC  0     ROOT ALC X 1
     2 SEC2        1 GROUP        1 X    SEC  0     **** SEC X 2
     3 GLC5        7 GROUP        1 X    GLC  0     **** GLC X 6
     4 ALP1       12 GROUP        1 Y    ALP  0     ROOT ALP Y 8
     5 SEP2        3 GROUP        1 Y    SEP  0     **** SEP Y 9
     6 GLP5        9 GROUP        1 Y    GLP  0     **** GLP Y 13
     7 ALL1       11 GROUP        1 Z    ALL  0     ROOT ALL Z 15
     8 SEL2        2 GROUP        1 Z    SEL  0     **** SEL Z 16
     9 GLL5        8 GROUP        1 Z    GLL  0     **** GLL Z 20
@<TRIPOS>SET

