#    Name: 1p1i_NAD_2_ligand
#    Modification time : Mon Mar 24 21:02:06 2014

@<TRIPOS>MOLECULE
1p1i_NAD_2_ligand
   70    74     1     0     0
SMALL
NO_CHARGES


@<TRIPOS>ATOM
      1 PA         18.4360    6.8810   11.1740 P.3       1 NAD660      0.0000 
      2 O1A        18.0690    5.7950   10.2440 O.co2     1 NAD660      0.0000 
      3 O2A        19.4500    7.8190   10.6120 O.co2     1 NAD660      0.0000 
      4 O5B        19.1040    6.3450   12.4970 O.3       1 NAD660      0.0000 
      5 C5B        18.9850    4.9700   12.8880 C.3       1 NAD660      0.0000 
      6 C4B        20.3600    4.4760   13.2030 C.3       1 NAD660      0.0000 
      7 O4B        20.1000    3.2690   13.9050 O.3       1 NAD660      0.0000 
      8 C3B        21.2190    4.0700   11.9960 C.3       1 NAD660      0.0000 
      9 O3B        22.5470    4.6110   12.0900 O.3       1 NAD660      0.0000 
     10 C2B        21.1690    2.5390   12.0510 C.3       1 NAD660      0.0000 
     11 O2B        22.4240    1.9680   11.6330 O.3       1 NAD660      0.0000 
     12 C1B        20.9770    2.3070   13.5340 C.3       1 NAD660      0.0000 
     13 N9A        20.3110    1.0650   13.8680 N.pl3     1 NAD660      0.0000 
     14 C8A        19.2140    0.4560   13.2780 C.2       1 NAD660      0.0000 
     15 N7A        18.7920   -0.6750   13.9090 N.2       1 NAD660      0.0000 
     16 C5A        19.6900   -0.7730   14.9730 C.ar      1 NAD660      0.0000 
     17 C6A        19.8970   -1.8050   15.9940 C.ar      1 NAD660      0.0000 
     18 N6A        19.2550   -2.9740   15.9850 N.pl3     1 NAD660      0.0000 
     19 N1A        20.8590   -1.5330   16.9720 N.ar      1 NAD660      0.0000 
     20 C2A        21.5860   -0.3270   16.9250 C.ar      1 NAD660      0.0000 
     21 N3A        21.5320    0.6180   15.9800 N.ar      1 NAD660      0.0000 
     22 C4A        20.5820    0.3420   15.0180 C.ar      1 NAD660      0.0000 
     23 O3         17.1500    7.5660   11.7170 O.3       1 NAD660      0.0000 
     24 PN         16.8460    8.7530   12.7460 P.3       1 NAD660      0.0000 
     25 O1N        16.3730    9.8750   11.8760 O.co2     1 NAD660      0.0000 
     26 O2N        18.0760    9.0410   13.5240 O.co2     1 NAD660      0.0000 
     27 O5D        15.5850    8.2040   13.5820 O.3       1 NAD660      0.0000 
     28 C5D        15.6630    6.8970   14.2070 C.3       1 NAD660      0.0000 
     29 C4D        14.2800    6.4110   14.6210 C.3       1 NAD660      0.0000 
     30 O4D        13.6440    7.3570   15.5360 O.3       1 NAD660      0.0000 
     31 C3D        13.3220    6.1330   13.4760 C.3       1 NAD660      0.0000 
     32 O3D        13.4300    4.8220   12.8910 O.3       1 NAD660      0.0000 
     33 C2D        11.9560    6.3910   14.1530 C.3       1 NAD660      0.0000 
     34 O2D        11.5030    5.1890   14.7870 O.3       1 NAD660      0.0000 
     35 C1D        12.2810    7.4800   15.1610 C.3       1 NAD660      0.0000 
     36 N1N        11.8500    8.8880   14.8120 N.pl3     1 NAD660      0.0000 
     37 C2N        12.7630    9.7560   14.1180 C.ar      1 NAD660      0.0000 
     38 C3N        12.4400   11.1240   13.9040 C.ar      1 NAD660      0.0000 
     39 C7N        13.3720   12.0360   13.0840 C.2       1 NAD660      0.0000 
     40 O7N        13.0810   13.2130   12.9390 O.2       1 NAD660      0.0000 
     41 N7N        14.4680   11.5560   12.4750 N.am      1 NAD660      0.0000 
     42 C4N        11.1370   11.6550   14.4170 C.ar      1 NAD660      0.0000 
     43 C5N        10.2080   10.7530   15.0780 C.ar      1 NAD660      0.0000 
     44 C6N        10.5680    9.4070   15.2660 C.ar      1 NAD660      0.0000 
     45 H          18.5678    4.3641   12.0852 H         1 NAD660      0.0000 
     46 H          18.3600    4.8621   13.7731 H         1 NAD660      0.0000 
     47 H          20.8778    5.1565   13.8124 H         1 NAD660      0.0000 
     48 H          20.6913    4.3815   11.1173 H         1 NAD660      0.0000 
     49 H          20.3363    2.2035   11.5353 H         1 NAD660      0.0000 
     50 H          21.9063    2.4011   14.0290 H         1 NAD660      0.0000 
     51 H          18.7799    0.8243   12.4615 H         1 NAD660      0.0000 
     52 H          19.7286   -3.7395   16.4206 H         1 NAD660      0.0000 
     53 H          18.3578   -2.9798   15.5434 H         1 NAD660      0.0000 
     54 H          22.2596   -0.1717   17.7635 H         1 NAD660      0.0000 
     55 H          16.2974    6.9258   15.1030 H         1 NAD660      0.0000 
     56 H          16.0938    6.1566   13.5197 H         1 NAD660      0.0000 
     57 H          14.4137    5.4536   15.1706 H         1 NAD660      0.0000 
     58 H          13.4491    6.9334   12.7543 H         1 NAD660      0.0000 
     59 H          11.3026    6.7730   13.4249 H         1 NAD660      0.0000 
     60 H          11.6658    7.1898   16.0939 H         1 NAD660      0.0000 
     61 H          13.6480    9.3801   13.7792 H         1 NAD660      0.0000 
     62 H          14.6453   10.5791   12.5940 H         1 NAD660      0.0000 
     63 H          15.0091   12.2183   11.9568 H         1 NAD660      0.0000 
     64 H          10.9266   12.6211   14.2968 H         1 NAD660      0.0000 
     65 H           9.3160   11.1113   15.3920 H         1 NAD660      0.0000 
     66 H           9.9247    8.7565   15.7332 H         1 NAD660      0.0000 
     67 H          22.8951    4.2905   12.9710 H         1 NAD660      0.0000 
     68 H          23.0031    1.9916   12.4479 H         1 NAD660      0.0000 
     69 H          12.5328    4.4025   13.0289 H         1 NAD660      0.0000 
     70 H          11.2543    4.5780   14.0354 H         1 NAD660      0.0000 
@<TRIPOS>BOND
     1    2    1 ar   
     2    3    1 ar   
     3    4    1 1    
     4   23    1 1    
     5    5    4 1    
     6    6    5 1    
     7   45    5 1    
     8   46    5 1    
     9    7    6 1    
    10    8    6 1    
    11   47    6 1    
    12   12    7 1    
    13    9    8 1    
    14   10    8 1    
    15   48    8 1    
    16   67    9 1    
    17   11   10 1    
    18   12   10 1    
    19   49   10 1    
    20   68   11 1    
    21   13   12 1    
    22   50   12 1    
    23   14   13 1    
    24   22   13 1    
    25   15   14 2    
    26   51   14 1    
    27   16   15 1    
    28   17   16 ar   
    29   22   16 ar   
    30   18   17 1    
    31   19   17 ar   
    32   52   18 1    
    33   53   18 1    
    34   20   19 ar   
    35   21   20 ar   
    36   54   20 1    
    37   22   21 ar   
    38   24   23 1    
    39   25   24 ar   
    40   26   24 ar   
    41   27   24 1    
    42   28   27 1    
    43   29   28 1    
    44   55   28 1    
    45   56   28 1    
    46   30   29 1    
    47   31   29 1    
    48   57   29 1    
    49   35   30 1    
    50   32   31 1    
    51   33   31 1    
    52   58   31 1    
    53   69   32 1    
    54   34   33 1    
    55   35   33 1    
    56   59   33 1    
    57   70   34 1    
    58   36   35 1    
    59   60   35 1    
    60   37   36 ar   
    61   44   36 ar   
    62   38   37 ar   
    63   61   37 1    
    64   39   38 1    
    65   42   38 ar   
    66   40   39 2    
    67   41   39 am   
    68   62   41 1    
    69   63   41 1    
    70   43   42 ar   
    71   64   42 1    
    72   44   43 ar   
    73   65   43 1    
    74   66   44 1    
@<TRIPOS>SUBSTRUCTURE
     1 NAD660      1 GROUP   
@<TRIPOS>SET

