#    Name: 1bvr_THT_2_INTS_M
#    Modification time : Mon Mar 24 19:51:28 2014

@<TRIPOS>MOLECULE
1bvr_THT_2_INTS_M
   62     0     6     0     0
SMALL
NO_CHARGES


@<TRIPOS>ATOM
      1 CA         20.4490  -16.4675  -13.0535 C.3       2 GLC5        0.0000 
      2 CA         21.2120  -15.3430  -13.7450 C.3       6 GLL5        0.0000 
      3 CA         19.6860  -17.5920  -12.3620 C.3       4 GLP5        0.0000 
      4 O          20.2095  -12.7575  -14.0525 O.2       1 ALC1        0.0000 
      5 O          20.2880  -13.2570  -12.8440 O.2       5 ALL1        0.0000 
      6 O          20.1310  -12.2580  -15.2610 O.2       3 ALP1        0.0000 
      7 CA         16.3085  -16.5110  -10.5525 C.3       2 GLC5        0.0000 
      8 CA         17.4250  -14.6490  -11.0170 C.3       6 GLL5        0.0000 
      9 CA         15.1920  -18.3730  -10.0880 C.3       4 GLP5        0.0000 
     10 CA         15.0265  -16.4530   -9.8490 C.3       2 GLC5        0.0000 
     11 CA         14.8610  -14.5330   -9.6100 C.3       6 GLL5        0.0000 
     12 CA         10.7545  -15.4380   -9.0245 C.3       2 GLC5        0.0000 
     13 CA         12.6310  -14.6360   -8.4630 C.3       6 GLL5        0.0000 
     14 CA          8.8780  -16.2400   -9.5860 C.3       4 GLP5        0.0000 
     15 CA         13.0805  -16.5035   -8.9795 C.3       2 GLC5        0.0000 
     16 CA         13.5300  -18.3710   -9.4960 C.3       4 GLP5        0.0000 
     17 CA         13.0200  -17.2345   -7.9620 C.3       2 GLC5        0.0000 
     18 CA         12.5100  -16.0980   -6.4280 C.3       6 GLL5        0.0000 
     19 CA         10.4880  -17.0310   -6.1600 C.3       2 GLC5        0.0000 
     20 CA          8.4660  -17.9640   -5.8920 C.3       4 GLP5        0.0000 
     21 CA         13.5890  -19.1950   -4.6780 C.3       2 GLC5        0.0000 
     22 CA         13.7130  -17.4670   -4.7480 C.3       6 GLL5        0.0000 
     23 CA         13.4650  -20.9230   -4.6080 C.3       4 GLP5        0.0000 
     24 CA         14.2190  -18.0515   -7.5895 C.3       2 GLC5        0.0000 
     25 CA         14.9080  -17.7320   -5.6830 C.3       6 GLL5        0.0000 
     26 CA         17.7720  -15.9890   -4.5825 C.3       2 GLC5        0.0000 
     27 CA         16.2190  -17.4730   -4.9520 C.3       6 GLL5        0.0000 
     28 CA         19.3250  -14.5050   -4.2130 C.3       4 GLP5        0.0000 
     29 CA         16.2490  -18.1705   -8.6080 C.3       2 GLC5        0.0000 
     30 CA         17.3060  -17.9680   -7.1280 C.3       6 GLL5        0.0000 
     31 CA         17.0250  -19.7195   -7.8780 C.3       2 GLC5        0.0000 
     32 CA         16.7440  -21.4710   -8.6280 C.3       4 GLP5        0.0000 
     33 CA         16.1405  -19.4935   -6.0265 C.3       2 GLC5        0.0000 
     34 CA         14.9750  -21.0190   -4.9250 C.3       4 GLP5        0.0000 
     35 CA         18.6283  -14.3125   -8.9862 C.3       2 GLC5        0.0000 
     36 CA         19.0340  -13.8930  -10.8120 C.3       6 GLL5        0.0000 
     37 CA         19.0270  -14.3540   -7.0580 C.3       4 GLP5        0.0000 
     38 CA         18.9578  -15.9315  -11.6382 C.3       2 GLC5        0.0000 
     39 CA         14.5072  -13.2508   -7.7885 C.3       2 GLC5        0.0000 
     40 CA         14.6370  -12.2850   -6.3410 C.3       4 GLP5        0.0000 
     41 CA         13.6217  -13.3717  -10.9455 C.3       2 GLC5        0.0000 
     42 CA         13.8940  -13.9000   -8.8620 C.3       6 GLL5        0.0000 
     43 CA         12.8660  -12.5270  -12.6550 C.3       4 GLP5        0.0000 
     44 CA         11.5793  -13.5545   -8.6262 C.3       2 GLC5        0.0000 
     45 CA          9.8960  -12.8410   -8.5900 C.3       4 GLP5        0.0000 
     46 CA         13.6315  -13.4763   -7.0225 C.3       2 GLC5        0.0000 
     47 CA         11.1662  -14.3412   -6.9683 C.3       2 GLC5        0.0000 
     48 CA         12.6210  -14.6990   -6.9450 C.3       6 GLL5        0.0000 
     49 CA          9.7670  -13.2840   -7.2500 C.3       4 GLP5        0.0000 
     50 CA         13.6800  -14.5220   -5.3972 C.3       2 GLC5        0.0000 
     51 CA         14.5520  -12.9450   -5.0630 C.3       4 GLP5        0.0000 
     52 CA         15.2692  -19.3107   -5.1212 C.3       2 GLC5        0.0000 
     53 CA         15.2464  -17.7486   -3.1889 C.3       2 GLC5        0.0000 
     54 CA         15.2280  -17.9610   -1.2940 C.3       4 GLP5        0.0000 
     55 CA         18.1543  -15.9225   -6.7965 C.3       2 GLC5        0.0000 
     56 CA         17.2570  -17.0140   -5.9420 C.3       6 GLL5        0.0000 
     57 CA         19.5008  -16.3002   -7.5183 C.3       2 GLC5        0.0000 
     58 CA         19.8020  -18.1810   -7.2370 C.3       6 GLL5        0.0000 
     59 CA         20.2357  -18.1550  -10.5795 C.3       2 GLC5        0.0000 
     60 CA         20.1470  -18.3120   -8.7200 C.3       6 GLL5        0.0000 
     61 CA         19.0494  -20.1508   -7.3984 C.3       2 GLC5        0.0000 
     62 CA         18.4530  -21.8740   -6.8900 C.3       4 GLP5        0.0000 
@<TRIPOS>BOND
@<TRIPOS>SUBSTRUCTURE
     1 ALC1        4 GROUP        1 X    ALC  0     ROOT ALC X 1
     2 GLC5        1 GROUP        1 X    GLC  0     **** GLC X 6
     3 ALP1        6 GROUP        1 Y    ALP  0     ROOT ALP Y 8
     4 GLP5        3 GROUP        1 Y    GLP  0     **** GLP Y 13
     5 ALL1        5 GROUP        1 Z    ALL  0     ROOT ALL Z 15
     6 GLL5        2 GROUP        1 Z    GLL  0     **** GLL Z 20
@<TRIPOS>SET

