#    Name: 1bvr_THT_2_ligand
#    Modification time : Mon Mar 24 19:51:28 2014

@<TRIPOS>MOLECULE
1bvr_THT_2_ligand
   63    62     1     0     0
SMALL
NO_CHARGES


@<TRIPOS>ATOM
      1 C1         21.2120  -15.3430  -13.7450 C.3       1 THT1304     0.0000 
      2 C2         21.1300  -14.2760  -12.6460 C.2       1 THT1304     0.0000 
      3 O2         21.8420  -14.3570  -11.6160 O.2       1 THT1304     0.0000 
      4 N3         20.2880  -13.2570  -12.8440 N.am      1 THT1304     0.0000 
      5 C4         19.2570  -12.8720  -11.9080 C.3       1 THT1304     0.0000 
      6 C5         19.0340  -13.8930  -10.8120 C.3       1 THT1304     0.0000 
      7 S6         17.4250  -14.6490  -11.0170 S.3       1 THT1304     0.0000 
      8 C7         16.1640  -13.8120   -9.9750 C.2       1 THT1304     0.0000 
      9 O7         16.3640  -12.6580   -9.5730 O.2       1 THT1304     0.0000 
     10 C8         14.8610  -14.5330   -9.6100 C.3       1 THT1304     0.0000 
     11 C9         13.8940  -13.9000   -8.8620 C.3       1 THT1304     0.0000 
     12 C10        12.6310  -14.6360   -8.4630 C.3       1 THT1304     0.0000 
     13 C11        12.6210  -14.6990   -6.9450 C.3       1 THT1304     0.0000 
     14 C12        12.5100  -16.0980   -6.4280 C.3       1 THT1304     0.0000 
     15 C13        13.1060  -16.1000   -5.0350 C.3       1 THT1304     0.0000 
     16 C14        13.7130  -17.4670   -4.7480 C.3       1 THT1304     0.0000 
     17 C15        14.9080  -17.7320   -5.6830 C.3       1 THT1304     0.0000 
     18 C16        16.2190  -17.4730   -4.9520 C.3       1 THT1304     0.0000 
     19 C17        17.2570  -17.0140   -5.9420 C.3       1 THT1304     0.0000 
     20 C18        17.3060  -17.9680   -7.1280 C.3       1 THT1304     0.0000 
     21 C19        18.4870  -18.9050   -6.9500 C.3       1 THT1304     0.0000 
     22 C20        19.8020  -18.1810   -7.2370 C.3       1 THT1304     0.0000 
     23 C21        20.1470  -18.3120   -8.7200 C.3       1 THT1304     0.0000 
     24 C22        21.4240  -19.1240   -8.8740 C.3       1 THT1304     0.0000 
     25 H          20.3439  -12.6722  -13.7220 H         1 THT1304     0.0000 
     26 H          18.2906  -12.7144  -12.4308 H         1 THT1304     0.0000 
     27 H          19.5047  -11.9025  -11.4275 H         1 THT1304     0.0000 
     28 H          18.9734  -13.4695   -9.8393 H         1 THT1304     0.0000 
     29 H          19.6935  -14.7247  -10.8621 H         1 THT1304     0.0000 
     30 H          15.1866  -15.5225   -9.1221 H         1 THT1304     0.0000 
     31 H          14.4348  -14.9157  -10.6075 H         1 THT1304     0.0000 
     32 H          13.5436  -12.9307   -9.3728 H         1 THT1304     0.0000 
     33 H          14.3341  -13.4808   -7.8854 H         1 THT1304     0.0000 
     34 H          12.6477  -15.6320   -8.8655 H         1 THT1304     0.0000 
     35 H          11.7697  -14.0939   -8.8074 H         1 THT1304     0.0000 
     36 H          11.7780  -14.0974   -6.5714 H         1 THT1304     0.0000 
     37 H          13.5446  -14.2354   -6.5654 H         1 THT1304     0.0000 
     38 H          13.0670  -16.7725   -7.0569 H         1 THT1304     0.0000 
     39 H          11.4756  -16.3944   -6.3754 H         1 THT1304     0.0000 
     40 H          12.3302  -15.8918   -4.3064 H         1 THT1304     0.0000 
     41 H          13.8795  -15.3429   -4.9685 H         1 THT1304     0.0000 
     42 H          12.9647  -18.2386   -4.9053 H         1 THT1304     0.0000 
     43 H          14.0564  -17.5046   -3.7181 H         1 THT1304     0.0000 
     44 H          14.8345  -17.0745   -6.5439 H         1 THT1304     0.0000 
     45 H          14.8735  -18.7652   -6.0148 H         1 THT1304     0.0000 
     46 H          16.5467  -18.3894   -4.4723 H         1 THT1304     0.0000 
     47 H          16.0624  -16.7067   -4.1999 H         1 THT1304     0.0000 
     48 H          18.2351  -16.9881   -5.4649 H         1 THT1304     0.0000 
     49 H          17.0104  -16.0153   -6.2980 H         1 THT1304     0.0000 
     50 H          17.4266  -17.4011   -8.0409 H         1 THT1304     0.0000 
     51 H          16.3900  -18.5415   -7.1664 H         1 THT1304     0.0000 
     52 H          18.3882  -19.7487   -7.6325 H         1 THT1304     0.0000 
     53 H          18.5027  -19.2805   -5.9273 H         1 THT1304     0.0000 
     54 H          20.5931  -18.6237   -6.6434 H         1 THT1304     0.0000 
     55 H          19.6979  -17.1327   -6.9834 H         1 THT1304     0.0000 
     56 H          20.2919  -17.3244   -9.1422 H         1 THT1304     0.0000 
     57 H          19.3345  -18.8127   -9.2335 H         1 THT1304     0.0000 
     58 H          22.1323  -15.4089  -14.1307 H         1 THT1304     0.0000 
     59 H          20.9731  -16.2507  -13.3999 H         1 THT1304     0.0000 
     60 H          20.5902  -15.1444  -14.5026 H         1 THT1304     0.0000 
     61 H          22.1966  -18.6932   -8.4076 H         1 THT1304     0.0000 
     62 H          21.3276  -20.0436   -8.4932 H         1 THT1304     0.0000 
     63 H          21.6832  -19.2300   -9.8340 H         1 THT1304     0.0000 
@<TRIPOS>BOND
     1    2    1 1    
     2   58    1 1    
     3   59    1 1    
     4   60    1 1    
     5    3    2 2    
     6    4    2 am   
     7    5    4 1    
     8   25    4 1    
     9    6    5 1    
    10   26    5 1    
    11   27    5 1    
    12    7    6 1    
    13   28    6 1    
    14   29    6 1    
    15    8    7 1    
    16    9    8 2    
    17   10    8 1    
    18   11   10 1    
    19   30   10 1    
    20   31   10 1    
    21   12   11 1    
    22   32   11 1    
    23   33   11 1    
    24   13   12 1    
    25   34   12 1    
    26   35   12 1    
    27   14   13 1    
    28   36   13 1    
    29   37   13 1    
    30   15   14 1    
    31   38   14 1    
    32   39   14 1    
    33   16   15 1    
    34   40   15 1    
    35   41   15 1    
    36   17   16 1    
    37   42   16 1    
    38   43   16 1    
    39   18   17 1    
    40   44   17 1    
    41   45   17 1    
    42   19   18 1    
    43   46   18 1    
    44   47   18 1    
    45   20   19 1    
    46   48   19 1    
    47   49   19 1    
    48   21   20 1    
    49   50   20 1    
    50   51   20 1    
    51   22   21 1    
    52   52   21 1    
    53   53   21 1    
    54   23   22 1    
    55   54   22 1    
    56   55   22 1    
    57   24   23 1    
    58   56   23 1    
    59   57   23 1    
    60   61   24 1    
    61   62   24 1    
    62   63   24 1    
@<TRIPOS>SUBSTRUCTURE
     1 THT1304     1 GROUP   
@<TRIPOS>SET

