#    Name: 4dea_NHI_1_INTS_M
#    Modification time : Mon Apr  7 22:32:32 2014

@<TRIPOS>MOLECULE
4dea_NHI_1_INTS_M
   68     0    12     0     0
SMALL
NO_CHARGES


@<TRIPOS>ATOM
      1 O          -2.9075  -34.2720    7.5820 O.2       1 ALC1        0.0000 
      2 O          -3.1330  -33.1080    6.9960 O.2       9 ALL1        0.0000 
      3 O          -2.6820  -35.4360    8.1680 O.2       5 ALP1        0.0000 
      4 N          -3.3430  -33.0855    9.8415 N.am      2 SEC2        0.0000 
      5 N          -3.6480  -31.9870    8.9050 N.am     10 SEL2        0.0000 
      6 N          -3.0380  -34.1840   10.7780 N.am      6 SEP2        0.0000 
      7 CA         -1.5855  -31.7520    6.2270 C.3       4 GLC5        0.0000 
      8 CA         -2.7680  -33.3140    5.7400 C.3      12 GLL5        0.0000 
      9 CA         -0.4030  -30.1900    6.7140 C.3       8 GLP5        0.0000 
     10 CA         -2.0575  -31.1225    7.1280 C.3       4 GLC5        0.0000 
     11 CA         -3.7120  -32.0550    7.5420 C.3      12 GLL5        0.0000 
     12 CA         -4.3525  -33.6750    8.7005 C.3       4 GLC5        0.0000 
     13 CA         -4.9930  -35.2950    9.8590 C.3       8 GLP5        0.0000 
     14 CA         -5.3940  -32.6430    7.0030 C.3       4 GLC5        0.0000 
     15 CA         -7.0760  -33.2310    6.4640 C.3       8 GLP5        0.0000 
     16 CA         -2.9880  -31.7710   10.8140 C.3       4 GLC5        0.0000 
     17 CA         -4.2400  -30.9050    9.5000 C.3      12 GLL5        0.0000 
     18 CA         -1.7360  -32.6370   12.1280 C.3       8 GLP5        0.0000 
     19 CA         -4.6165  -33.1000    9.6795 C.3       4 GLC5        0.0000 
     20 CA         -5.1680  -27.4130    5.6625 C.3       4 GLC5        0.0000 
     21 CA         -5.8360  -29.2110    5.4380 C.3      12 GLL5        0.0000 
     22 CA         -4.5000  -25.6150    5.8870 C.3       8 GLP5        0.0000 
     23 CA         -3.9585  -27.7855    5.1120 C.3       4 GLC5        0.0000 
     24 CA         -4.8190  -29.3430    4.4380 C.3      12 GLL5        0.0000 
     25 CA         -3.0980  -26.2280    5.7860 C.3       8 GLP5        0.0000 
     26 NZ         -2.3230  -35.6920    0.4690 N.4       3 LYC4        0.0000 
     27 NZ         -2.2840  -34.0780    0.8180 N.4      11 LYL4        0.0000 
     28 NZ         -2.3620  -37.3060    0.1200 N.4       7 LYP4        0.0000 
     29 NZ          0.9720  -33.3310    1.4250 N.4       3 LYC4        0.0000 
     30 NZ         -0.2130  -34.2620    1.4840 N.4      11 LYL4        0.0000 
     31 NZ          2.8230  -33.0660    2.2820 N.4       7 LYP4        0.0000 
     32 NZ         -1.2875  -35.7840    0.8020 N.4       3 LYC4        0.0000 
     33 N           0.9720  -33.3310    1.4250 N.am      2 SEC2        0.0000 
     34 N          -0.2130  -34.2620    1.4840 N.am     10 SEL2        0.0000 
     35 N           2.1570  -32.4000    1.3660 N.am      6 SEP2        0.0000 
     36 N           1.0005  -34.1525    2.2165 N.am      2 SEC2        0.0000 
     37 N           2.2140  -34.0430    2.9490 N.am      6 SEP2        0.0000 
     38 CA         -2.1375  -31.2320    4.1555 C.3       4 GLC5        0.0000 
     39 CA         -3.0710  -33.0350    3.2810 C.3      12 GLL5        0.0000 
     40 CA         -0.9950  -29.5530    4.3650 C.3       8 GLP5        0.0000 
     41 CA         -3.4602  -34.8427    3.7403 C.3       4 GLC5        0.0000 
     42 CA         -4.4270  -36.2540    4.3220 C.3       8 GLP5        0.0000 
     43 CA         -2.9147  -35.2480    4.5705 C.3       4 GLC5        0.0000 
     44 CA         -1.1890  -34.3720    4.1520 C.3      12 GLL5        0.0000 
     45 CA         -0.4221  -32.6810    4.6540 C.3       4 GLC5        0.0000 
     46 CA         -1.6160  -34.1120    5.4860 C.3      12 GLL5        0.0000 
     47 CA          0.7400  -31.2560    4.7680 C.3       8 GLP5        0.0000 
     48 CA         -3.7777  -34.6522    4.7488 C.3       4 GLC5        0.0000 
     49 CA         -5.1022  -33.1407    5.8197 C.3       4 GLC5        0.0000 
     50 CA         -3.4890  -32.7870    4.6110 C.3      12 GLL5        0.0000 
     51 CA         -3.8427  -28.5332    7.5483 C.3       4 GLC5        0.0000 
     52 CA         -4.9180  -30.0440    7.4050 C.3      12 GLL5        0.0000 
     53 CA         -2.7790  -27.0990    6.9970 C.3       8 GLP5        0.0000 
     54 CA         -3.0217  -29.5845    9.8440 C.3       4 GLC5        0.0000 
     55 CA         -4.8950  -29.8910    8.7940 C.3      12 GLL5        0.0000 
     56 CA         -1.4760  -28.7710   10.5410 C.3       8 GLP5        0.0000 
     57 CA         -6.0307  -30.4120   10.5380 C.3       4 GLC5        0.0000 
     58 CA         -7.4940  -30.4260   11.9290 C.3       8 GLP5        0.0000 
     59 CA         -6.0271  -31.3601    8.7464 C.3       4 GLC5        0.0000 
     60 CA         -7.4810  -32.2840    8.6930 C.3       8 GLP5        0.0000 
     61 CA         -6.7973  -31.2157    5.8490 C.3       4 GLC5        0.0000 
     62 CA         -2.9925  -29.4775    4.0600 C.3       4 GLC5        0.0000 
     63 CA         -5.1610  -29.4610    3.0720 C.3      12 GLL5        0.0000 
     64 CA         -6.9307  -31.2564    2.9279 C.3       4 GLC5        0.0000 
     65 CA         -7.7660  -33.0940    2.7390 C.3       8 GLP5        0.0000 
     66 CA         -4.2425  -28.3656    2.3984 C.3       4 GLC5        0.0000 
     67 CA         -6.5170  -29.4460    2.6710 C.3      12 GLL5        0.0000 
     68 CA         -3.1560  -27.3330    1.1420 C.3       8 GLP5        0.0000 
@<TRIPOS>BOND
@<TRIPOS>SUBSTRUCTURE
     1 ALC1        1 GROUP        1 X    ALC  0     ROOT ALC X 1
     2 SEC2        4 GROUP        1 X    SEC  0     **** SEC X 2
     3 LYC4       26 GROUP        1 X    LYC  0     **** LYC X 4
     4 GLC5        7 GROUP        1 X    GLC  0     **** GLC X 6
     5 ALP1        3 GROUP        1 Y    ALP  0     ROOT ALP Y 8
     6 SEP2        6 GROUP        1 Y    SEP  0     **** SEP Y 9
     7 LYP4       28 GROUP        1 Y    LYP  0     **** LYP Y 11
     8 GLP5        9 GROUP        1 Y    GLP  0     **** GLP Y 13
     9 ALL1        2 GROUP        1 Z    ALL  0     ROOT ALL Z 15
    10 SEL2        5 GROUP        1 Z    SEL  0     **** SEL Z 16
    11 LYL4       27 GROUP        1 Z    LYL  0     **** LYL Z 18
    12 GLL5        8 GROUP        1 Z    GLL  0     **** GLL Z 20
@<TRIPOS>SET

