#    Name: 4dea_NHI_1_ligand
#    Modification time : Mon Apr  7 22:32:32 2014

@<TRIPOS>MOLECULE
4dea_NHI_1_ligand
   38    40     1     0     0
SMALL
NO_CHARGES


@<TRIPOS>ATOM
      1 C01        -6.9390  -29.5820    1.1840 C.2       1 NHI504      0.0000 
      2 N01        -3.1330  -33.1080    6.9960 N.pl3     1 NHI504      0.0000 
      3 O01        -5.9230  -29.6110    0.1760 O.co2     1 NHI504      0.0000 
      4 N02        -4.3330  -31.1150    6.7660 N.ar      1 NHI504      0.0000 
      5 O02        -8.1120  -29.6800    0.8740 O.co2     1 NHI504      0.0000 
      6 N03        -3.6480  -31.9870    8.9050 N.ar      1 NHI504      0.0000 
      7 N04        -5.5280  -29.1120    6.7070 N.pl3     1 NHI504      0.0000 
      8 C05        -3.0710  -33.0350    3.2810 C.ar      1 NHI504      0.0000 
      9 C06        -1.9160  -33.8280    3.0360 C.ar      1 NHI504      0.0000 
     10 C07        -1.1890  -34.3720    4.1520 C.ar      1 NHI504      0.0000 
     11 C08        -1.6160  -34.1120    5.4860 C.ar      1 NHI504      0.0000 
     12 C09        -2.7680  -33.3140    5.7400 C.ar      1 NHI504      0.0000 
     13 C10        -3.4890  -32.7870    4.6110 C.ar      1 NHI504      0.0000 
     14 C11        -1.4980  -34.0640    1.7410 C.2       1 NHI504      0.0000 
     15 C12        -3.7120  -32.0550    7.5420 C.ar      1 NHI504      0.0000 
     16 C13        -4.9180  -30.0440    7.4050 C.ar      1 NHI504      0.0000 
     17 C14        -4.8950  -29.8910    8.7940 C.ar      1 NHI504      0.0000 
     18 C15        -4.2400  -30.9050    9.5000 C.ar      1 NHI504      0.0000 
     19 C16        -5.8360  -29.2110    5.4380 C.ar      1 NHI504      0.0000 
     20 C17        -7.2010  -29.1900    5.0300 C.ar      1 NHI504      0.0000 
     21 C18        -7.5430  -29.3070    3.6520 C.ar      1 NHI504      0.0000 
     22 C19        -6.5170  -29.4460    2.6710 C.ar      1 NHI504      0.0000 
     23 C20        -5.1610  -29.4610    3.0720 C.ar      1 NHI504      0.0000 
     24 C21        -4.8190  -29.3430    4.4380 C.ar      1 NHI504      0.0000 
     25 O25        -2.2840  -34.0780    0.8180 O.co2     1 NHI504      0.0000 
     26 O26        -0.2130  -34.2620    1.4840 O.co2     1 NHI504      0.0000 
     27 H          -2.9186  -33.9510    7.6960 H         1 NHI504      0.0000 
     28 H          -5.7952  -28.1937    7.2220 H         1 NHI504      0.0000 
     29 H          -3.5951  -32.6471    2.4987 H         1 NHI504      0.0000 
     30 H          -0.3659  -34.9450    3.9810 H         1 NHI504      0.0000 
     31 H          -1.0891  -34.5030    6.2703 H         1 NHI504      0.0000 
     32 H          -4.3268  -32.2177    4.7851 H         1 NHI504      0.0000 
     33 H          -5.3157  -29.1139    9.2498 H         1 NHI504      0.0000 
     34 H          -4.2064  -30.8205   10.5533 H         1 NHI504      0.0000 
     35 H          -7.9372  -29.0907    5.7284 H         1 NHI504      0.0000 
     36 H          -8.5190  -29.2915    3.3668 H         1 NHI504      0.0000 
     37 H          -4.4240  -29.5578    2.3690 H         1 NHI504      0.0000 
     38 H          -3.8372  -29.3510    4.7242 H         1 NHI504      0.0000 
@<TRIPOS>BOND
     1    3    1 ar   
     2    5    1 ar   
     3   22    1 1    
     4   12    2 1    
     5   15    2 1    
     6   27    2 1    
     7   15    4 ar   
     8   16    4 ar   
     9   15    6 ar   
    10   18    6 ar   
    11   16    7 1    
    12   19    7 1    
    13   28    7 1    
    14    9    8 ar   
    15   13    8 ar   
    16   29    8 1    
    17   10    9 ar   
    18   14    9 1    
    19   11   10 ar   
    20   30   10 1    
    21   12   11 ar   
    22   31   11 1    
    23   13   12 ar   
    24   32   13 1    
    25   25   14 ar   
    26   26   14 ar   
    27   17   16 ar   
    28   18   17 ar   
    29   33   17 1    
    30   34   18 1    
    31   20   19 ar   
    32   24   19 ar   
    33   21   20 ar   
    34   35   20 1    
    35   22   21 ar   
    36   36   21 1    
    37   23   22 ar   
    38   24   23 ar   
    39   37   23 1    
    40   38   24 1    
@<TRIPOS>SUBSTRUCTURE
     1 NHI504      1 GROUP   
@<TRIPOS>SET

