#    Name: 4bbg_V02_1_INTS_M
#    Modification time : Tue Mar 25 07:15:04 2014

@<TRIPOS>MOLECULE
4bbg_V02_1_INTS_M
   70     0     9     0     0
SMALL
NO_CHARGES


@<TRIPOS>ATOM
      1 CA         18.7585   35.4555  -24.5610 C.3       3 GLC5        0.0000 
      2 CA         18.9120   33.6420  -23.6650 C.3       9 GLL5        0.0000 
      3 CA         18.6050   37.2690  -25.4570 C.3       6 GLP5        0.0000 
      4 CA         19.2210   32.9195  -21.1740 C.3       3 GLC5        0.0000 
      5 CA         17.8190   33.0290  -22.8690 C.3       9 GLL5        0.0000 
      6 CA         20.6230   32.8100  -19.4790 C.3       6 GLP5        0.0000 
      7 CA         15.8985   29.5535  -22.2045 C.3       3 GLC5        0.0000 
      8 CA         16.7170   30.9520  -23.4950 C.3       9 GLL5        0.0000 
      9 CA         15.0800   28.1550  -20.9140 C.3       6 GLP5        0.0000 
     10 CA         15.1625   33.7290  -23.5880 C.3       3 GLC5        0.0000 
     11 CA         16.3990   32.8540  -24.8830 C.3       9 GLL5        0.0000 
     12 CA         13.9260   34.6040  -22.2930 C.3       6 GLP5        0.0000 
     13 CA         15.7155   28.6290  -23.0680 C.3       3 GLC5        0.0000 
     14 CA         15.9130   30.2050  -24.2980 C.3       9 GLL5        0.0000 
     15 CA         15.5180   27.0530  -21.8380 C.3       6 GLP5        0.0000 
     16 CA         16.6755   37.0310  -26.5450 C.3       3 GLC5        0.0000 
     17 CA         14.7460   36.7930  -27.6330 C.3       9 GLL5        0.0000 
     18 CA         14.0570   34.7745  -24.2655 C.3       3 GLC5        0.0000 
     19 CA         14.1880   34.9450  -26.2380 C.3       9 GLL5        0.0000 
     20 CA         15.8175   31.2955  -30.1595 C.3       3 GLC5        0.0000 
     21 CA         15.9130   32.2250  -28.3200 C.3       9 GLL5        0.0000 
     22 CA         15.7220   30.3660  -31.9990 C.3       6 GLP5        0.0000 
     23 CA         17.9520   30.3695  -26.9130 C.3       3 GLC5        0.0000 
     24 CA         17.5720   32.2060  -27.5400 C.3       9 GLL5        0.0000 
     25 CA         18.3320   28.5330  -26.2860 C.3       6 GLP5        0.0000 
     26 OD1        19.7835   31.1100  -27.3985 O.co2     2 ASC3        0.0000 
     27 OD1        19.5250   31.6750  -28.8810 O.co2     8 ASL3        0.0000 
     28 OD1        20.0420   30.5450  -25.9160 O.co2     5 ASP3        0.0000 
     29 O          19.7835   31.1100  -27.3985 O.2       1 ALC1        0.0000 
     30 O          19.5250   31.6750  -28.8810 O.2       7 ALL1        0.0000 
     31 O          20.0420   30.5450  -25.9160 O.2       4 ALP1        0.0000 
     32 O          18.4040   30.5970  -29.4285 O.2       1 ALC1        0.0000 
     33 O          17.2830   29.5190  -29.9760 O.2       4 ALP1        0.0000 
     34 CA         14.5700   30.8775  -30.2055 C.3       3 GLC5        0.0000 
     35 CA         13.4180   31.3890  -28.4120 C.3       9 GLL5        0.0000 
     36 CA         12.3000   29.3530  -27.1185 C.3       3 GLC5        0.0000 
     37 CA         12.2330   30.7870  -28.7260 C.3       9 GLL5        0.0000 
     38 CA         12.3670   27.9190  -25.5110 C.3       6 GLP5        0.0000 
     39 O          12.7245   30.2725  -30.8350 O.2       1 ALC1        0.0000 
     40 O          12.0820   30.1950  -29.9130 O.2       7 ALL1        0.0000 
     41 O          13.3670   30.3500  -31.7570 O.2       4 ALP1        0.0000 
     42 CA         17.9587   30.0970  -24.3347 C.3       3 GLC5        0.0000 
     43 CA         16.9460   32.2600  -23.7840 C.3       9 GLL5        0.0000 
     44 CA         19.0860   28.5880  -25.0300 C.3       6 GLP5        0.0000 
     45 CA         15.7219   32.2571  -22.0279 C.3       3 GLC5        0.0000 
     46 CA         14.3940   32.7160  -20.6450 C.3       6 GLP5        0.0000 
     47 CA         16.9850   29.5145  -25.5667 C.3       3 GLC5        0.0000 
     48 CA         15.3630   30.7870  -25.3970 C.3       9 GLL5        0.0000 
     49 CA         14.5605   29.0570  -24.6752 C.3       3 GLC5        0.0000 
     50 CA         13.4830   27.6180  -24.5030 C.3       6 GLP5        0.0000 
     51 CA         14.2822   31.6026  -23.7450 C.3       3 GLC5        0.0000 
     52 CA         12.8700   32.3810  -22.5700 C.3       6 GLP5        0.0000 
     53 CA         14.6370   37.6437  -25.3717 C.3       3 GLC5        0.0000 
     54 CA         14.8220   38.7460  -23.6780 C.3       6 GLP5        0.0000 
     55 CA         13.8793   34.5324  -29.3148 C.3       3 GLC5        0.0000 
     56 CA         14.8210   34.1190  -27.1200 C.3       9 GLL5        0.0000 
     57 CA         12.6600   34.3620  -30.8730 C.3       6 GLP5        0.0000 
     58 CA          9.4315   32.1033  -27.2895 C.3       3 GLC5        0.0000 
     59 CA         11.3700   31.4120  -26.6220 C.3       9 GLL5        0.0000 
     60 CA          7.5770   33.1020  -27.3500 C.3       6 GLP5        0.0000 
     61 CA         12.4165   32.0463  -24.5165 C.3       3 GLC5        0.0000 
     62 CA         13.0795   33.0267  -29.3407 C.3       3 GLC5        0.0000 
     63 CA         13.5800   31.9940  -27.2050 C.3       9 GLL5        0.0000 
     64 CA         11.4977   32.3250  -29.4840 C.3       3 GLC5        0.0000 
     65 CA         11.2780   33.8580  -30.6870 C.3       6 GLP5        0.0000 
     66 CA         11.2483   29.1005  -28.5180 C.3       3 GLC5        0.0000 
     67 CA         10.7790   27.4090  -28.7550 C.3       6 GLP5        0.0000 
     68 CA         11.4638   29.9146  -25.9312 C.3       3 GLC5        0.0000 
     69 CA         11.2020   30.7970  -27.8360 C.3       9 GLL5        0.0000 
     70 CA         11.3450   28.5750  -24.7130 C.3       6 GLP5        0.0000 
@<TRIPOS>BOND
@<TRIPOS>SUBSTRUCTURE
     1 ALC1       29 GROUP        1 X    ALC  0     ROOT ALC X 1
     2 ASC3       26 GROUP        1 X    ASC  0     **** ASC X 3
     3 GLC5        1 GROUP        1 X    GLC  0     **** GLC X 6
     4 ALP1       31 GROUP        1 Y    ALP  0     ROOT ALP Y 8
     5 ASP3       28 GROUP        1 Y    ASP  0     **** ASP Y 10
     6 GLP5        3 GROUP        1 Y    GLP  0     **** GLP Y 13
     7 ALL1       30 GROUP        1 Z    ALL  0     ROOT ALL Z 15
     8 ASL3       27 GROUP        1 Z    ASL  0     **** ASL Z 17
     9 GLL5        2 GROUP        1 Z    GLL  0     **** GLL Z 20
@<TRIPOS>SET

