#    Name: 4bbg_V02_1_ligand
#    Modification time : Tue Mar 25 07:15:04 2014

@<TRIPOS>MOLECULE
4bbg_V02_1_ligand
   52    54     1     0     0
SMALL
NO_CHARGES


@<TRIPOS>ATOM
      1 CAA        18.9120   33.6420  -23.6650 C.3       1 V021370     0.0000 
      2 CAU        17.8190   33.0290  -22.8690 C.3       1 V021370     0.0000 
      3 CAV        16.9460   32.2600  -23.7840 C.ar      1 V021370     0.0000 
      4 CAK        16.7170   30.9520  -23.4950 C.ar      1 V021370     0.0000 
      5 CAQ        16.3990   32.8540  -24.8830 C.ar      1 V021370     0.0000 
      6 CAY        15.5890   32.1000  -25.6870 C.ar      1 V021370     0.0000 
      7 CAP        15.3630   30.7870  -25.3970 C.ar      1 V021370     0.0000 
      8 CAJ        15.9130   30.2050  -24.2980 C.ar      1 V021370     0.0000 
      9 CAZ        14.8970   32.6380  -26.9260 C.3       1 V021370     0.0000 
     10 CAN        15.3910   34.6160  -28.2610 C.ar      1 V021370     0.0000 
     11 CAH        15.3610   35.9570  -28.5250 C.ar      1 V021370     0.0000 
     12 CAE        14.7460   36.7930  -27.6330 C.ar      1 V021370     0.0000 
     13 CAI        14.1580   36.2900  -26.4980 C.ar      1 V021370     0.0000 
     14 CAO        14.1880   34.9450  -26.2380 C.ar      1 V021370     0.0000 
     15 CAX        14.8210   34.1190  -27.1200 C.ar      1 V021370     0.0000 
     16 SAT        15.9130   32.2250  -28.3200 S.3       1 V021370     0.0000 
     17 CAS        17.5720   32.2060  -27.5400 C.3       1 V021370     0.0000 
     18 CAR        18.7110   32.7760  -28.3880 C.3       1 V021370     0.0000 
     19 NAB        19.5250   31.6750  -28.8810 N.4       1 V021370     0.0000 
     20 CAG        11.3700   31.4120  -26.6220 C.ar      1 V021370     0.0000 
     21 CAM        12.5560   32.0110  -26.3040 C.ar      1 V021370     0.0000 
     22 CAW        13.5800   31.9940  -27.2050 C.ar      1 V021370     0.0000 
     23 CAL        13.4180   31.3890  -28.4120 C.ar      1 V021370     0.0000 
     24 CAF        12.2330   30.7870  -28.7260 C.ar      1 V021370     0.0000 
     25 CAD        11.2020   30.7970  -27.8360 C.ar      1 V021370     0.0000 
     26 OAC        12.0820   30.1950  -29.9130 O.3       1 V021370     0.0000 
     27 H          17.2425   33.8087  -22.3729 H         1 V021370     0.0000 
     28 H          18.2400   32.3673  -22.1132 H         1 V021370     0.0000 
     29 H          17.1576   30.5208  -22.6576 H         1 V021370     0.0000 
     30 H          16.5880   33.8359  -25.1017 H         1 V021370     0.0000 
     31 H          14.7561   30.2192  -26.0316 H         1 V021370     0.0000 
     32 H          15.7241   29.2166  -24.0778 H         1 V021370     0.0000 
     33 H          15.8501   33.9679  -28.9316 H         1 V021370     0.0000 
     34 H          15.7932   36.3319  -29.3794 H         1 V021370     0.0000 
     35 H          14.7224   37.8150  -27.8133 H         1 V021370     0.0000 
     36 H          13.6883   36.9342  -25.8339 H         1 V021370     0.0000 
     37 H          13.7408   34.5680  -25.3928 H         1 V021370     0.0000 
     38 H          17.6935   31.1538  -27.3044 H         1 V021370     0.0000 
     39 H          17.3931   32.7631  -26.6263 H         1 V021370     0.0000 
     40 H          19.2953   33.4504  -27.7645 H         1 V021370     0.0000 
     41 H          18.2742   33.3422  -29.2087 H         1 V021370     0.0000 
     42 H          10.5863   31.4213  -25.9388 H         1 V021370     0.0000 
     43 H          12.6755   32.4732  -25.3876 H         1 V021370     0.0000 
     44 H          14.1970   31.3832  -29.0997 H         1 V021370     0.0000 
     45 H          10.3032   30.3481  -28.0687 H         1 V021370     0.0000 
     46 H          19.5350   34.1746  -23.0921 H         1 V021370     0.0000 
     47 H          19.4628   32.9512  -24.1334 H         1 V021370     0.0000 
     48 H          18.5585   34.2603  -24.3669 H         1 V021370     0.0000 
     49 H          20.2848   31.9984  -29.4450 H         1 V021370     0.0000 
     50 H          19.9211   31.1421  -28.1332 H         1 V021370     0.0000 
     51 H          18.9923   31.0416  -29.4423 H         1 V021370     0.0000 
     52 H          13.0115   30.0723  -30.2610 H         1 V021370     0.0000 
@<TRIPOS>BOND
     1    2    1 1    
     2   46    1 1    
     3   47    1 1    
     4   48    1 1    
     5    3    2 1    
     6   27    2 1    
     7   28    2 1    
     8    4    3 ar   
     9    5    3 ar   
    10    8    4 ar   
    11   29    4 1    
    12    6    5 ar   
    13   30    5 1    
    14    7    6 ar   
    15    9    6 1    
    16    8    7 ar   
    17   31    7 1    
    18   32    8 1    
    19   15    9 1    
    20   16    9 1    
    21   22    9 1    
    22   11   10 ar   
    23   15   10 ar   
    24   33   10 1    
    25   12   11 ar   
    26   34   11 1    
    27   13   12 ar   
    28   35   12 1    
    29   14   13 ar   
    30   36   13 1    
    31   15   14 ar   
    32   37   14 1    
    33   17   16 1    
    34   18   17 1    
    35   38   17 1    
    36   39   17 1    
    37   19   18 1    
    38   40   18 1    
    39   41   18 1    
    40   49   19 1    
    41   50   19 1    
    42   51   19 1    
    43   21   20 ar   
    44   25   20 ar   
    45   42   20 1    
    46   22   21 ar   
    47   43   21 1    
    48   23   22 ar   
    49   24   23 ar   
    50   44   23 1    
    51   25   24 ar   
    52   26   24 1    
    53   45   25 1    
    54   52   26 1    
@<TRIPOS>SUBSTRUCTURE
     1 V021370     1 GROUP   
@<TRIPOS>SET

