#    Name: 1hvj_A78_1_INTS_M
#    Modification time : Tue Mar 25 06:17:01 2014

@<TRIPOS>MOLECULE
1hvj_A78_1_INTS_M
  112     0     9     0     0
SMALL
NO_CHARGES


@<TRIPOS>ATOM
      1 N           2.5240    4.8525   12.6955 N.am      2 SEC2        0.0000 
      2 N           3.3350    4.0090   11.7660 N.am      8 SEL2        0.0000 
      3 N           1.7130    5.6960   13.6250 N.am      5 SEP2        0.0000 
      4 CA          2.7695    6.3595   10.7795 C.3       3 GLC5        0.0000 
      5 CA          4.4000    5.3360    9.6910 C.3       9 GLL5        0.0000 
      6 CA          1.1390    7.3830   11.8680 C.3       6 GLP5        0.0000 
      7 CA          7.4635    7.5150   11.3615 C.3       3 GLC5        0.0000 
      8 CA          7.9520    5.8470   10.5070 C.3       9 GLL5        0.0000 
      9 CA          6.9750    9.1830   12.2160 C.3       6 GLP5        0.0000 
     10 CA          9.5990    4.3875   10.9465 C.3       3 GLC5        0.0000 
     11 CA         11.2460    2.9280   11.3860 C.3       6 GLP5        0.0000 
     12 O           3.1815    1.1655    9.5455 O.2       1 ALC1        0.0000 
     13 O           3.2690    2.0450   10.7340 O.2       7 ALL1        0.0000 
     14 O           3.0940    0.2860    8.3570 O.2       4 ALP1        0.0000 
     15 CA          2.6295    2.6560   13.5930 C.3       3 GLC5        0.0000 
     16 CA          2.9070    1.3460   11.9890 C.3       9 GLL5        0.0000 
     17 CA          2.3520    3.9660   15.1970 C.3       6 GLP5        0.0000 
     18 CA          1.1930    1.3840   14.3015 C.3       3 GLC5        0.0000 
     19 CA          1.1550   -0.2390   13.0310 C.3       9 GLL5        0.0000 
     20 CA          1.2310    3.0070   15.5720 C.3       6 GLP5        0.0000 
     21 CA         -0.0245    0.0780   14.8430 C.3       3 GLC5        0.0000 
     22 CA         -1.2040    0.3950   16.6550 C.3       6 GLP5        0.0000 
     23 CA         -1.4555    0.7185   11.7505 C.3       3 GLC5        0.0000 
     24 CA          0.4170    1.4470   11.3060 C.3       9 GLL5        0.0000 
     25 CA         -3.3280   -0.0100   12.1950 C.3       6 GLP5        0.0000 
     26 CA         -0.5745    0.1870    9.9070 C.3       3 GLC5        0.0000 
     27 CA         -1.5660   -1.0730    8.5080 C.3       6 GLP5        0.0000 
     28 O           4.9970    2.3140   14.0875 O.2       1 ALC1        0.0000 
     29 O           4.9740    0.9640   13.3080 O.2       7 ALL1        0.0000 
     30 O           5.0200    3.6640   14.8670 O.2       4 ALP1        0.0000 
     31 CA          8.1485    2.8105   14.3625 C.3       3 GLC5        0.0000 
     32 CA          7.4380    0.9690   13.4190 C.3       9 GLL5        0.0000 
     33 CA          8.8590    4.6520   15.3060 C.3       6 GLP5        0.0000 
     34 CA          9.7860    0.9615    7.9755 C.3       3 GLC5        0.0000 
     35 CA          8.1230    0.9320    9.1940 C.3       9 GLL5        0.0000 
     36 CA         11.4490    0.9910    6.7570 C.3       6 GLP5        0.0000 
     37 CA          9.4805   -1.8080   10.4435 C.3       3 GLC5        0.0000 
     38 CA          8.5720   -0.1250    9.9970 C.3       9 GLL5        0.0000 
     39 CA         10.3890   -3.4910   10.8900 C.3       6 GLP5        0.0000 
     40 CA         10.3850   -0.0390    8.8360 C.3       3 GLC5        0.0000 
     41 CA         12.1980    0.0470    7.6750 C.3       6 GLP5        0.0000 
     42 CA          8.6990   -1.9740   11.4575 C.3       3 GLC5        0.0000 
     43 CA          8.3570   -0.1110   11.3790 C.3       9 GLL5        0.0000 
     44 CA          9.0410   -3.8370   11.5360 C.3       6 GLP5        0.0000 
     45 CA          5.8750    2.0930   16.2465 C.3       3 GLC5        0.0000 
     46 CA          6.2000    0.1220   15.2830 C.3       9 GLL5        0.0000 
     47 CA          5.5500    4.0640   17.2100 C.3       6 GLP5        0.0000 
     48 N           4.3940    0.5730   18.0630 N.am      2 SEC2        0.0000 
     49 N           5.1250   -0.2650   17.3020 N.am      8 SEL2        0.0000 
     50 N           3.6630    1.4110   18.8240 N.am      5 SEP2        0.0000 
     51 O           6.5325    0.2295   17.4645 O.2       1 ALC1        0.0000 
     52 O           5.1250   -0.2650   17.3020 O.2       7 ALL1        0.0000 
     53 O           7.9400    0.7240   17.6270 O.2       4 ALP1        0.0000 
     54 CA          1.2990   -7.9620   15.2405 C.3       3 GLC5        0.0000 
     55 CA          2.6560   -6.6690   15.7520 C.3       9 GLL5        0.0000 
     56 CA         -0.0580   -9.2550   14.7290 C.3       6 GLP5        0.0000 
     57 CA          1.3980   -7.3390   14.0065 C.3       3 GLC5        0.0000 
     58 CA          2.3840   -5.8090   14.6860 C.3       9 GLL5        0.0000 
     59 CA          0.4120   -8.8690   13.3270 C.3       6 GLP5        0.0000 
     60 CA          2.3385   -5.6705   12.5675 C.3       3 GLC5        0.0000 
     61 CA          2.2930   -5.5320   10.4490 C.3       6 GLP5        0.0000 
     62 CA          1.9155   -3.9125   13.0420 C.3       3 GLC5        0.0000 
     63 CA          2.6190   -4.4280   14.8220 C.3       9 GLL5        0.0000 
     64 CA          1.2120   -3.3970   11.2620 C.3       6 GLP5        0.0000 
     65 O           7.0790   -6.7960   15.4255 O.2       1 ALC1        0.0000 
     66 O           7.0530   -5.8530   16.7090 O.2       7 ALL1        0.0000 
     67 O           7.1050   -7.7390   14.1420 O.2       4 ALP1        0.0000 
     68 CA          7.6710   -3.5525   18.2655 C.3       3 GLC5        0.0000 
     69 CA          7.4760   -4.4810   16.3820 C.3       9 GLL5        0.0000 
     70 CA          7.8660   -2.6240   20.1490 C.3       6 GLP5        0.0000 
     71 CA          9.1580   -2.4865   17.3645 C.3       3 GLC5        0.0000 
     72 CA          9.2900   -3.0270   15.3250 C.3       9 GLL5        0.0000 
     73 CA          9.0260   -1.9460   19.4040 C.3       6 GLP5        0.0000 
     74 CA         10.2225   -1.6085   14.7890 C.3       3 GLC5        0.0000 
     75 CA         11.1550   -0.1900   14.2530 C.3       6 GLP5        0.0000 
     76 CA          9.4630   -3.5685   17.9365 C.3       3 GLC5        0.0000 
     77 CA          9.9000   -5.1910   16.4690 C.3       9 GLL5        0.0000 
     78 CA         11.7920   -4.6500   16.1700 C.3       3 GLC5        0.0000 
     79 CA         13.6840   -4.1090   15.8710 C.3       6 GLP5        0.0000 
     80 N           7.8625   -5.2055   20.1245 N.am      2 SEC2        0.0000 
     81 N           7.2550   -5.7600   18.9360 N.am      8 SEL2        0.0000 
     82 N           8.4700   -4.6510   21.3130 N.am      5 SEP2        0.0000 
     83 CA          1.2902   -1.6192   11.8362 C.3       3 GLC5        0.0000 
     84 CA          9.3565    2.2155   11.4690 C.3       3 GLC5        0.0000 
     85 CA          7.6880    0.9710   11.9480 C.3       9 GLL5        0.0000 
     86 CA          6.4865   -0.0162    9.1143 C.3       3 GLC5        0.0000 
     87 CA          7.4670    2.0110    9.7730 C.3       9 GLL5        0.0000 
     88 CA          5.1780   -1.5040    8.7450 C.3       6 GLP5        0.0000 
     89 CA          9.5205    2.1997   10.4347 C.3       3 GLC5        0.0000 
     90 CA          6.8213   -0.8110    9.7165 C.3       3 GLC5        0.0000 
     91 CA          9.8552    1.4050   11.0370 C.3       3 GLC5        0.0000 
     92 CA          9.5575    0.1197   13.1421 C.3       3 GLC5        0.0000 
     93 CA          1.4115   -5.0953   17.2548 C.3       3 GLC5        0.0000 
     94 CA          3.1250   -3.9070   16.0270 C.3       9 GLL5        0.0000 
     95 CA         -0.4350   -5.8490   17.9470 C.3       6 GLP5        0.0000 
     96 CA          1.1049   -5.9791   16.7334 C.3       3 GLC5        0.0000 
     97 CA          1.3047   -3.2681   16.5598 C.3       3 GLC5        0.0000 
     98 CA          3.3910   -4.7760   17.0980 C.3       9 GLL5        0.0000 
     99 CA         -0.3600   -2.3370   17.4100 C.3       6 GLP5        0.0000 
    100 CA          3.9277   -6.0518   13.7278 C.3       3 GLC5        0.0000 
    101 CA          5.2860   -6.7700   12.4350 C.3       6 GLP5        0.0000 
    102 CA          9.0485   -3.7920   13.5102 C.3       3 GLC5        0.0000 
    103 CA          8.8220   -4.4670   15.6440 C.3       9 GLL5        0.0000 
    104 CA         10.5050   -5.9260   14.6792 C.3       3 GLC5        0.0000 
    105 CA         11.6490   -7.0230   13.3020 C.3       6 GLP5        0.0000 
    106 CA          1.0155   -6.7273   19.2957 C.3       3 GLC5        0.0000 
    107 CA          2.4320   -6.9690   20.9320 C.3       9 GLL5        0.0000 
    108 CA          3.1335   -6.9499   22.5496 C.3       3 GLC5        0.0000 
    109 CA          2.5000   -8.2420   20.3570 C.3       9 GLL5        0.0000 
    110 CA          3.2380   -7.0050   24.3100 C.3       6 GLP5        0.0000 
    111 CA          2.2420   -4.7583   20.8545 C.3       3 GLC5        0.0000 
    112 CA          1.4720   -2.9400   20.7760 C.3       6 GLP5        0.0000 
@<TRIPOS>BOND
@<TRIPOS>SUBSTRUCTURE
     1 ALC1       12 GROUP        1 X    ALC  0     ROOT ALC X 1
     2 SEC2        1 GROUP        1 X    SEC  0     **** SEC X 2
     3 GLC5        4 GROUP        1 X    GLC  0     **** GLC X 6
     4 ALP1       14 GROUP        1 Y    ALP  0     ROOT ALP Y 8
     5 SEP2        3 GROUP        1 Y    SEP  0     **** SEP Y 9
     6 GLP5        6 GROUP        1 Y    GLP  0     **** GLP Y 13
     7 ALL1       13 GROUP        1 Z    ALL  0     ROOT ALL Z 15
     8 SEL2        2 GROUP        1 Z    SEL  0     **** SEL Z 16
     9 GLL5        5 GROUP        1 Z    GLL  0     **** GLL Z 20
@<TRIPOS>SET

