#    Name: 1hvj_A78_1_ligand
#    Modification time : Tue Mar 25 06:17:01 2014

@<TRIPOS>MOLECULE
1hvj_A78_1_ligand
  115   118     1     0     0
SMALL
NO_CHARGES


@<TRIPOS>ATOM
      1 C1          3.5270    3.3460   10.7580 C.2       1 A78800      0.0000 
      2 O2          3.3350    4.0090   11.7660 O.2       1 A78800      0.0000 
      3 N3          4.0100    3.9090    9.6330 N.am      1 A78800      0.0000 
      4 C4          4.2050    3.1390    8.4010 C.3       1 A78800      0.0000 
      5 C5          4.4000    5.3360    9.6910 C.3       1 A78800      0.0000 
      6 C6          5.8860    5.5810    9.5290 C.ar      1 A78800      0.0000 
      7 C7          6.4060    5.7230    8.2420 C.ar      1 A78800      0.0000 
      8 N8          6.6350    5.6520   10.6390 N.ar      1 A78800      0.0000 
      9 C9          7.7800    5.9410    8.1120 C.ar      1 A78800      0.0000 
     10 C10         7.9520    5.8470   10.5070 C.ar      1 A78800      0.0000 
     11 C11         8.5730    5.9970    9.2640 C.ar      1 A78800      0.0000 
     12 N22         3.2690    2.0450   10.7340 N.am      1 A78800      0.0000 
     13 C23         2.9070    1.3460   11.9890 C.3       1 A78800      0.0000 
     14 C24         4.0640    0.4480   12.4540 C.2       1 A78800      0.0000 
     15 O25         4.1130   -0.6900   12.0270 O.2       1 A78800      0.0000 
     16 C26         1.5820    0.5560   11.7900 C.3       1 A78800      0.0000 
     17 C27         1.1550   -0.2390   13.0310 C.3       1 A78800      0.0000 
     18 C28         0.4170    1.4470   11.3060 C.3       1 A78800      0.0000 
     19 N38         4.9740    0.9640   13.3080 N.am      1 A78800      0.0000 
     20 C39         6.1680    0.2220   13.7830 C.3       1 A78800      0.0000 
     21 C40         7.4380    0.9690   13.4190 C.3       1 A78800      0.0000 
     22 C41         7.6880    0.9710   11.9480 C.ar      1 A78800      0.0000 
     23 C42         7.2460    2.0350   11.1560 C.ar      1 A78800      0.0000 
     24 C43         7.4670    2.0110    9.7730 C.ar      1 A78800      0.0000 
     25 C44         8.1230    0.9320    9.1940 C.ar      1 A78800      0.0000 
     26 C45         8.5720   -0.1250    9.9970 C.ar      1 A78800      0.0000 
     27 C46         8.3570   -0.1110   11.3790 C.ar      1 A78800      0.0000 
     28 C47         6.2000    0.1220   15.2830 C.3       1 A78800      0.0000 
     29 O48         5.1250   -0.2650   17.3020 O.3       1 A78800      0.0000 
     30 C49         4.9470   -0.4390   15.9060 C.3       1 A78800      0.0000 
     31 N50         5.8120   -2.7360   16.1800 N.am      1 A78800      0.0000 
     32 C51         4.7250   -1.9340   15.6160 C.3       1 A78800      0.0000 
     33 C52         3.3720   -2.4220   16.1650 C.3       1 A78800      0.0000 
     34 C53         3.1250   -3.9070   16.0270 C.ar      1 A78800      0.0000 
     35 C54         3.3910   -4.7760   17.0980 C.ar      1 A78800      0.0000 
     36 C55         3.1550   -6.1500   16.9550 C.ar      1 A78800      0.0000 
     37 C56         2.6560   -6.6690   15.7520 C.ar      1 A78800      0.0000 
     38 C57         2.3840   -5.8090   14.6860 C.ar      1 A78800      0.0000 
     39 C58         2.6190   -4.4280   14.8220 C.ar      1 A78800      0.0000 
     40 N81         7.0530   -5.8530   16.7090 N.am      1 A78800      0.0000 
     41 C82         7.4760   -4.4810   16.3820 C.3       1 A78800      0.0000 
     42 C83         6.4510   -3.7120   15.5290 C.2       1 A78800      0.0000 
     43 O84         6.2670   -3.9610   14.3500 O.2       1 A78800      0.0000 
     44 C85         8.8220   -4.4670   15.6440 C.3       1 A78800      0.0000 
     45 C86         9.2900   -3.0270   15.3250 C.3       1 A78800      0.0000 
     46 C87         9.9000   -5.1910   16.4690 C.3       1 A78800      0.0000 
     47 C97         6.9290   -6.3640   17.9260 C.2       1 A78800      0.0000 
     48 O98         7.2550   -5.7600   18.9360 O.2       1 A78800      0.0000 
     49 N99         6.4020   -7.6110   17.9990 N.am      1 A78800      0.0000 
     50 C2          6.0120   -8.3800   16.8120 C.3       1 A78800      0.0000 
     51 C3          6.1420   -8.2340   19.2990 C.3       1 A78800      0.0000 
     52 C8          4.8150   -7.8110   19.8750 C.ar      1 A78800      0.0000 
     53 C12         3.7140   -8.6790   19.8170 C.ar      1 A78800      0.0000 
     54 N10         4.7670   -6.5870   20.4230 N.ar      1 A78800      0.0000 
     55 C13         2.5000   -8.2420   20.3570 C.ar      1 A78800      0.0000 
     56 C14         3.5920   -6.1840   20.9340 C.ar      1 A78800      0.0000 
     57 C15         2.4320   -6.9690   20.9320 C.ar      1 A78800      0.0000 
     58 H           4.0755    5.7750   10.6576 H         1 A78800      0.0000 
     59 H           3.8629    5.9045    8.9031 H         1 A78800      0.0000 
     60 H           5.8076    5.6699    7.4278 H         1 A78800      0.0000 
     61 H           8.2005    6.0579    7.1906 H         1 A78800      0.0000 
     62 H           8.5691    5.8933   11.3617 H         1 A78800      0.0000 
     63 H           9.5747    6.1431    9.1973 H         1 A78800      0.0000 
     64 H           3.3010    1.4663    9.8901 H         1 A78800      0.0000 
     65 H           2.7253    2.0911   12.7685 H         1 A78800      0.0000 
     66 H           1.7657   -0.1868   10.9805 H         1 A78800      0.0000 
     67 H           4.8805    1.9358   13.6865 H         1 A78800      0.0000 
     68 H           6.2169   -0.7537   13.3639 H         1 A78800      0.0000 
     69 H           8.2857    0.5013   13.9403 H         1 A78800      0.0000 
     70 H           7.3578    2.0029   13.7846 H         1 A78800      0.0000 
     71 H           6.7625    2.8292   11.5841 H         1 A78800      0.0000 
     72 H           7.1425    2.7927    9.1922 H         1 A78800      0.0000 
     73 H           8.2811    0.9039    8.1807 H         1 A78800      0.0000 
     74 H           9.0647   -0.9189    9.5646 H         1 A78800      0.0000 
     75 H           8.6857   -0.8820   11.9594 H         1 A78800      0.0000 
     76 H           6.3937    1.1293   15.7094 H         1 A78800      0.0000 
     77 H           7.0646   -0.5062   15.5860 H         1 A78800      0.0000 
     78 H           4.1017    0.1172   15.5595 H         1 A78800      0.0000 
     79 H           6.0724   -2.4860   17.1760 H         1 A78800      0.0000 
     80 H           4.7031   -2.0609   14.5314 H         1 A78800      0.0000 
     81 H           2.5664   -1.8663   15.6467 H         1 A78800      0.0000 
     82 H           3.3078   -2.1370   17.2332 H         1 A78800      0.0000 
     83 H           3.7557   -4.4058   17.9788 H         1 A78800      0.0000 
     84 H           3.3500   -6.7851   17.7414 H         1 A78800      0.0000 
     85 H           2.4925   -7.6752   15.6579 H         1 A78800      0.0000 
     86 H           2.0144   -6.1774   13.8054 H         1 A78800      0.0000 
     87 H           2.4201   -3.7977   14.0377 H         1 A78800      0.0000 
     88 H           6.8384   -6.4492   15.8452 H         1 A78800      0.0000 
     89 H           7.6197   -3.9038   17.3064 H         1 A78800      0.0000 
     90 H           8.7079   -4.9985   14.7039 H         1 A78800      0.0000 
     91 H           6.9376   -7.9689   20.0163 H         1 A78800      0.0000 
     92 H           6.1504   -9.3335   19.2049 H         1 A78800      0.0000 
     93 H           3.7981   -9.5951   19.3958 H         1 A78800      0.0000 
     94 H           1.6773   -8.8424   20.3318 H         1 A78800      0.0000 
     95 H           3.5139   -5.2196   21.3695 H         1 A78800      0.0000 
     96 H           1.5705   -6.6242   21.3351 H         1 A78800      0.0000 
     97 H           4.5699    3.7060    7.6625 H         1 A78800      0.0000 
     98 H           4.8453    2.3823    8.5334 H         1 A78800      0.0000 
     99 H           3.3480    2.7434    8.0707 H         1 A78800      0.0000 
    100 H           1.8464   -0.9103   13.2981 H         1 A78800      0.0000 
    101 H           1.0046    0.3567   13.8200 H         1 A78800      0.0000 
    102 H           0.3039   -0.7407   12.8760 H         1 A78800      0.0000 
    103 H           0.2159    2.1805   11.9553 H         1 A78800      0.0000 
    104 H           0.6208    1.8804   10.4281 H         1 A78800      0.0000 
    105 H          -0.4261    0.9229   11.1855 H         1 A78800      0.0000 
    106 H           9.4023   -2.4806   16.1549 H         1 A78800      0.0000 
    107 H          10.1688   -3.0192   14.8478 H         1 A78800      0.0000 
    108 H           8.6359   -2.5444   14.7426 H         1 A78800      0.0000 
    109 H          10.7846   -5.1946   16.0026 H         1 A78800      0.0000 
    110 H          10.0398   -4.7576   17.3593 H         1 A78800      0.0000 
    111 H           9.6563   -6.1452   16.6426 H         1 A78800      0.0000 
    112 H           6.7866   -8.5349   16.1988 H         1 A78800      0.0000 
    113 H           5.6464   -9.2784   17.0552 H         1 A78800      0.0000 
    114 H           5.3068   -7.9106   16.2806 H         1 A78800      0.0000 
    115 H           6.0625    0.0676   17.4037 H         1 A78800      0.0000 
@<TRIPOS>BOND
     1    2    1 2    
     2    3    1 am   
     3   12    1 am   
     4    4    3 1    
     5    5    3 1    
     6   97    4 1    
     7   98    4 1    
     8   99    4 1    
     9    6    5 1    
    10   58    5 1    
    11   59    5 1    
    12    7    6 ar   
    13    8    6 ar   
    14    9    7 ar   
    15   60    7 1    
    16   10    8 ar   
    17   11    9 ar   
    18   61    9 1    
    19   11   10 ar   
    20   62   10 1    
    21   63   11 1    
    22   13   12 1    
    23   64   12 1    
    24   14   13 1    
    25   16   13 1    
    26   65   13 1    
    27   15   14 2    
    28   19   14 am   
    29   17   16 1    
    30   18   16 1    
    31   66   16 1    
    32  100   17 1    
    33  101   17 1    
    34  102   17 1    
    35  103   18 1    
    36  104   18 1    
    37  105   18 1    
    38   20   19 1    
    39   67   19 1    
    40   21   20 1    
    41   28   20 1    
    42   68   20 1    
    43   22   21 1    
    44   69   21 1    
    45   70   21 1    
    46   23   22 ar   
    47   27   22 ar   
    48   24   23 ar   
    49   71   23 1    
    50   25   24 ar   
    51   72   24 1    
    52   26   25 ar   
    53   73   25 1    
    54   27   26 ar   
    55   74   26 1    
    56   75   27 1    
    57   30   28 1    
    58   76   28 1    
    59   77   28 1    
    60   30   29 1    
    61  115   29 1    
    62   32   30 1    
    63   78   30 1    
    64   32   31 1    
    65   42   31 am   
    66   79   31 1    
    67   33   32 1    
    68   80   32 1    
    69   34   33 1    
    70   81   33 1    
    71   82   33 1    
    72   35   34 ar   
    73   39   34 ar   
    74   36   35 ar   
    75   83   35 1    
    76   37   36 ar   
    77   84   36 1    
    78   38   37 ar   
    79   85   37 1    
    80   39   38 ar   
    81   86   38 1    
    82   87   39 1    
    83   41   40 1    
    84   47   40 am   
    85   88   40 1    
    86   42   41 1    
    87   44   41 1    
    88   89   41 1    
    89   43   42 2    
    90   45   44 1    
    91   46   44 1    
    92   90   44 1    
    93  106   45 1    
    94  107   45 1    
    95  108   45 1    
    96  109   46 1    
    97  110   46 1    
    98  111   46 1    
    99   48   47 2    
   100   49   47 am   
   101   50   49 1    
   102   51   49 1    
   103  112   50 1    
   104  113   50 1    
   105  114   50 1    
   106   52   51 1    
   107   91   51 1    
   108   92   51 1    
   109   53   52 ar   
   110   54   52 ar   
   111   55   53 ar   
   112   93   53 1    
   113   56   54 ar   
   114   57   55 ar   
   115   94   55 1    
   116   57   56 ar   
   117   95   56 1    
   118   96   57 1    
@<TRIPOS>SUBSTRUCTURE
     1 A78800      1 GROUP   
@<TRIPOS>SET

