#    Name: 3EI5_1_CAVITY_N1_6.mol2
#    Modification time : Mon Mar 10 13:23:00 2014

@<TRIPOS>MOLECULE
3EI5_1_CAVITY_N1_6.mol2
   31     0     7     0     0
SMALL
NO_CHARGES


@<TRIPOS>ATOM
      1 O          42.1490   -3.3996  -11.9173 O.2       2 ALA2        0.0000 
      2 CZ         42.7231   -4.5508  -11.1458 C.ar      5 PHE5        0.0000 
      3 OG         41.8196   -4.3241  -13.0517 O.2       1 SER1        0.0000 
      4 O          42.3937   -5.4753  -12.2802 O.2       2 ALA2        0.0000 
      5 CZ         43.4950   -3.1348  -12.5239 C.ar      5 PHE5        0.0000 
      6 CZ         44.0692   -4.2860  -11.7524 C.ar      5 PHE5        0.0000 
      7 OG         43.1657   -4.0593  -13.6583 O.2       1 SER1        0.0000 
      8 CA         43.7398   -5.2105  -12.8868 C.3       6 GLY6        0.0000 
      9 CZ         44.3139   -6.3616  -12.1153 C.ar      5 PHE5        0.0000 
     10 CZ         42.8363   -4.9838  -14.7927 C.ar      5 PHE5        0.0000 
     11 CA         43.4104   -6.1350  -14.0212 C.3       6 GLY6        0.0000 
     12 CZ         44.8411   -2.8700  -13.1306 C.ar      5 PHE5        0.0000 
     13 CZ         45.4152   -4.0212  -12.3591 C.ar      5 PHE5        0.0000 
     14 OG         45.9894   -5.1723  -11.5876 O.2       1 SER1        0.0000 
     15 OG         44.5117   -3.7945  -14.2649 O.2       1 SER1        0.0000 
     16 DU         45.0859   -4.9457  -13.4935 H         7 CUB7        0.0000 
     17 CZ         45.6600   -6.0968  -12.7220 C.ar      5 PHE5        0.0000 
     18 CZ         44.7565   -5.8702  -14.6278 C.ar      5 PHE5        0.0000 
     19 O          45.8578   -3.5297  -14.8716 O.2       2 ALA2        0.0000 
     20 O          46.4319   -4.6809  -14.1001 O.2       2 ALA2        0.0000 
     21 OD1        47.0061   -5.8320  -13.3286 O.3       3 ASP3        0.0000 
     22 CZ         46.1026   -5.6054  -15.2345 C.ar      5 PHE5        0.0000 
     23 N          46.6767   -6.7565  -14.4630 N.2       2 ALA2        0.0000 
     24 CA         47.2508   -7.9077  -13.6915 C.3       6 GLY6        0.0000 
     25 CA         47.8250   -9.0589  -12.9200 C.3       6 GLY6        0.0000 
     26 CA         48.3991  -10.2100  -12.1485 C.3       6 GLY6        0.0000 
     27 CA         46.9215   -8.8322  -14.8259 C.3       6 GLY6        0.0000 
     28 CA         47.4956   -9.9834  -14.0544 C.3       6 GLY6        0.0000 
     29 CA         46.5921   -9.7567  -15.9603 C.3       6 GLY6        0.0000 
     30 N          47.6934   -7.4163  -16.2040 N.2       2 ALA2        0.0000 
     31 NZ         48.2675   -8.5674  -15.4325 N.2       4 LYS4        0.0000 
@<TRIPOS>BOND
@<TRIPOS>SUBSTRUCTURE
     1 SER1        3 GROUP   
     2 ALA2        1 GROUP   
     3 ASP3       21 GROUP   
     4 LYS4       31 GROUP   
     5 PHE5        2 GROUP   
     6 GLY6        8 GROUP   
     7 CUB7       16 GROUP   
@<TRIPOS>SET

