#    Name: 3ei5_PGU_1_INTS_M
#    Modification time : Tue Mar 25 01:53:47 2014

@<TRIPOS>MOLECULE
3ei5_PGU_1_INTS_M
   99     0    12     0     0
SMALL
NO_CHARGES


@<TRIPOS>ATOM
      1 N          44.4435    3.3080  -12.1975 N.am      2 SEC2        0.0000 
      2 N          44.3090    2.0650  -12.6710 N.am     10 SEL2        0.0000 
      3 N          44.5780    4.5510  -11.7240 N.am      6 SEP2        0.0000 
      4 CA         43.5500    0.9290  -10.0415 C.3       4 GLC5        0.0000 
      5 CA         42.3500    2.0380  -11.1030 C.3      12 GLL5        0.0000 
      6 CA         44.7500   -0.1800   -8.9800 C.3       8 GLP5        0.0000 
      7 CA         41.5180    3.2720  -10.2800 C.3       4 GLC5        0.0000 
      8 CA         40.6860    4.5060   -9.4570 C.3       8 GLP5        0.0000 
      9 CA         40.9670    1.1565  -10.0860 C.3       4 GLC5        0.0000 
     10 CA         39.5840    0.2750   -9.0690 C.3       8 GLP5        0.0000 
     11 CA         40.7560    1.5425  -12.0160 C.3       4 GLC5        0.0000 
     12 CA         39.1620    1.0470  -12.9290 C.3       8 GLP5        0.0000 
     13 N          41.3615   -0.9945  -11.0925 N.am      2 SEC2        0.0000 
     14 N          41.7720   -0.4560  -12.2290 N.am     10 SEL2        0.0000 
     15 N          40.9510   -1.5330   -9.9560 N.am      6 SEP2        0.0000 
     16 O          40.7765   -0.8015  -12.9115 O.2       1 ALC1        0.0000 
     17 O          41.7720   -0.4560  -12.2290 O.2       9 ALL1        0.0000 
     18 O          39.7810   -1.1470  -13.5940 O.2       5 ALP1        0.0000 
     19 CA         44.2755   -1.9015  -12.4055 C.3       4 GLC5        0.0000 
     20 CA         43.1910   -1.8770  -14.2360 C.3      12 GLL5        0.0000 
     21 CA         45.3600   -1.9260  -10.5750 C.3       8 GLP5        0.0000 
     22 CA         41.7410   -2.4675  -15.6810 C.3       4 GLC5        0.0000 
     23 CA         40.2910   -3.0580  -17.1260 C.3       8 GLP5        0.0000 
     24 CA         45.8985    2.5910  -14.9400 C.3       4 GLC5        0.0000 
     25 CA         45.0690    1.5000  -13.5990 C.3      12 GLL5        0.0000 
     26 CA         46.7280    3.6820  -16.2810 C.3       8 GLP5        0.0000 
     27 CA         46.7445    2.4680  -12.6645 C.3       4 GLC5        0.0000 
     28 CA         48.4200    3.4360  -11.7300 C.3       8 GLP5        0.0000 
     29 CA         46.2305    1.6750  -15.7430 C.3       4 GLC5        0.0000 
     30 CA         45.7330   -0.3320  -15.2050 C.3      12 GLL5        0.0000 
     31 CA         47.7210   -0.5045  -14.9760 C.3       4 GLC5        0.0000 
     32 CA         49.7090   -0.6770  -14.7470 C.3       8 GLP5        0.0000 
     33 CA         46.0165   -0.6960  -13.1765 C.3       4 GLC5        0.0000 
     34 CA         46.3000   -1.0600  -11.1480 C.3       8 GLP5        0.0000 
     35 NZ         48.3500   -0.9490  -18.4915 N.4       3 LYC4        0.0000 
     36 NZ         47.6560   -0.5150  -17.4210 N.4      11 LYL4        0.0000 
     37 NZ         48.6270   -2.2530  -20.4930 N.4       7 LYP4        0.0000 
     38 N          48.3320    0.4955  -16.4850 N.am      2 SEC2        0.0000 
     39 N          47.6560   -0.5150  -17.4210 N.am     10 SEL2        0.0000 
     40 N          49.0080    1.5060  -15.5490 N.am      6 SEP2        0.0000 
     41 N          48.3500   -0.9490  -18.4915 N.am      2 SEC2        0.0000 
     42 N          49.0440   -1.3830  -19.5620 N.am      6 SEP2        0.0000 
     43 N          47.8515   -1.8895  -17.0165 N.am      2 SEC2        0.0000 
     44 N          48.0470   -3.2640  -16.6120 N.am      6 SEP2        0.0000 
     45 NZ         46.4615   -2.1225  -19.4735 N.4       3 LYC4        0.0000 
     46 NZ         45.5150   -1.4690  -18.5490 N.4      11 LYL4        0.0000 
     47 N          44.8580   -1.3540  -19.6605 N.am      2 SEC2        0.0000 
     48 N          45.5150   -1.4690  -18.5490 N.am     10 SEL2        0.0000 
     49 N          44.2010   -1.2390  -20.7720 N.am      6 SEP2        0.0000 
     50 N          46.4615   -2.1225  -19.4735 N.am      2 SEC2        0.0000 
     51 N          47.4080   -2.7760  -20.3980 N.am      6 SEP2        0.0000 
     52 N          44.8770   -2.5495  -17.8645 N.am      2 SEC2        0.0000 
     53 N          44.2390   -3.6300  -17.1800 N.am      6 SEP2        0.0000 
     54 N          47.1640    1.7800  -18.4235 N.am      2 SEC2        0.0000 
     55 N          46.1280    0.8590  -18.8520 N.am     10 SEL2        0.0000 
     56 N          48.2000    2.7010  -17.9950 N.am      6 SEP2        0.0000 
     57 N          45.1930    1.3410  -19.5160 N.am      2 SEC2        0.0000 
     58 N          44.2580    1.8230  -20.1800 N.am      6 SEP2        0.0000 
     59 CA         40.8265   -5.5030  -13.7750 C.3       4 GLC5        0.0000 
     60 CA         42.6040   -4.2170  -13.2760 C.3      12 GLL5        0.0000 
     61 CA         39.0490   -6.7890  -14.2740 C.3       8 GLP5        0.0000 
     62 CA         43.9820   -3.0715  -11.9255 C.3       4 GLC5        0.0000 
     63 CA         45.0895   -6.5185  -11.3705 C.3       4 GLC5        0.0000 
     64 CA         44.7870   -5.5980  -12.9780 C.3      12 GLL5        0.0000 
     65 CA         45.3920   -7.4390   -9.7630 C.3       8 GLP5        0.0000 
     66 CA         45.0735   -3.7620  -11.7765 C.3       4 GLC5        0.0000 
     67 NZ         48.5710   -5.1840  -12.8445 N.4       3 LYC4        0.0000 
     68 NZ         47.0240   -5.1220  -12.3300 N.4      11 LYL4        0.0000 
     69 NZ         50.1180   -5.2460  -13.3590 N.4       7 LYP4        0.0000 
     70 N          47.6090   -4.6625  -11.1380 N.am      2 SEC2        0.0000 
     71 N          47.0240   -5.1220  -12.3300 N.am     10 SEL2        0.0000 
     72 N          48.1940   -4.2030   -9.9460 N.am      6 SEP2        0.0000 
     73 N          48.5710   -5.1840  -12.8445 N.am      2 SEC2        0.0000 
     74 N          50.1180   -5.2460  -13.3590 N.am      6 SEP2        0.0000 
     75 N          46.5105   -2.4885  -12.8135 N.am      2 SEC2        0.0000 
     76 N          45.9360   -3.5140  -13.4300 N.am     10 SEL2        0.0000 
     77 N          47.0850   -1.4630  -12.1970 N.am      6 SEP2        0.0000 
     78 NZ         40.6445   -5.2995  -10.5730 N.4       3 LYC4        0.0000 
     79 NZ         42.0580   -4.0250  -10.9290 N.4      11 LYL4        0.0000 
     80 NZ         38.9940   -5.7400   -9.3820 N.4       7 LYP4        0.0000 
     81 N          41.5045   -2.7790  -10.4425 N.am      2 SEC2        0.0000 
     82 N          42.0580   -4.0250  -10.9290 N.am     10 SEL2        0.0000 
     83 N          40.8940   -4.3325  -10.1140 N.am      2 SEC2        0.0000 
     84 N          39.7300   -4.6400   -9.2990 N.am      6 SEP2        0.0000 
     85 NZ         41.5590   -5.9590  -11.8470 N.4      11 LYL4        0.0000 
     86 N          40.7735   -6.7570  -12.6470 N.am      2 SEC2        0.0000 
     87 N          41.5590   -5.9590  -11.8470 N.am     10 SEL2        0.0000 
     88 N          39.9880   -7.5550  -13.4470 N.am      6 SEP2        0.0000 
     89 N          40.6445   -5.2995  -10.5730 N.am      2 SEC2        0.0000 
     90 N          40.4840   -6.3500  -11.0045 N.am      2 SEC2        0.0000 
     91 N          39.4090   -6.7410  -10.1620 N.am      6 SEP2        0.0000 
     92 CA         42.0496    2.2254  -13.5790 C.3       4 GLC5        0.0000 
     93 CA         43.2250    1.4250  -12.2030 C.3      12 GLL5        0.0000 
     94 CA         41.2720    3.4940  -14.9720 C.3       8 GLP5        0.0000 
     95 CA         43.6475   -7.1212  -13.4825 C.3       4 GLC5        0.0000 
     96 CA         43.6470   -5.1630  -13.9100 C.3      12 GLL5        0.0000 
     97 CA         43.0780   -8.8620  -13.5210 C.3       8 GLP5        0.0000 
     98 CA         44.0050   -5.6843  -15.3510 C.3       4 GLC5        0.0000 
     99 CA         43.7930   -5.9880  -17.2580 C.3       8 GLP5        0.0000 
@<TRIPOS>BOND
@<TRIPOS>SUBSTRUCTURE
     1 ALC1       16 GROUP        1 X    ALC  0     ROOT ALC X 1
     2 SEC2        1 GROUP        1 X    SEC  0     **** SEC X 2
     3 LYC4       35 GROUP        1 X    LYC  0     **** LYC X 4
     4 GLC5        4 GROUP        1 X    GLC  0     **** GLC X 6
     5 ALP1       18 GROUP        1 Y    ALP  0     ROOT ALP Y 8
     6 SEP2        3 GROUP        1 Y    SEP  0     **** SEP Y 9
     7 LYP4       37 GROUP        1 Y    LYP  0     **** LYP Y 11
     8 GLP5        6 GROUP        1 Y    GLP  0     **** GLP Y 13
     9 ALL1       17 GROUP        1 Z    ALL  0     ROOT ALL Z 15
    10 SEL2        2 GROUP        1 Z    SEL  0     **** SEL Z 16
    11 LYL4       36 GROUP        1 Z    LYL  0     **** LYL Z 18
    12 GLL5        5 GROUP        1 Z    GLL  0     **** GLL Z 20
@<TRIPOS>SET

