#    Name: 3ei5_PGU_1_ligand
#    Modification time : Tue Mar 25 01:53:48 2014

@<TRIPOS>MOLECULE
3ei5_PGU_1_ligand
   39    39     1     0     0
SMALL
NO_CHARGES


@<TRIPOS>ATOM
      1 N1         44.3090    2.0650  -12.6710 N.ar      1 PGU433      0.0000 
      2 C2         43.2250    1.4250  -12.2030 C.ar      1 PGU433      0.0000 
      3 C2A        42.3500    2.0380  -11.1030 C.3       1 PGU433      0.0000 
      4 C3         42.8670    0.1820  -12.7190 C.ar      1 PGU433      0.0000 
      5 O3         41.7720   -0.4560  -12.2290 O.3       1 PGU433      0.0000 
      6 C4         43.6200   -0.4600  -13.7100 C.ar      1 PGU433      0.0000 
      7 C4A        43.1910   -1.8770  -14.2360 C.3       1 PGU433      0.0000 
      8 C5         44.7730    0.2300  -14.1430 C.ar      1 PGU433      0.0000 
      9 C6         45.0690    1.5000  -13.5990 C.ar      1 PGU433      0.0000 
     10 C5A        45.7330   -0.3320  -15.2050 C.3       1 PGU433      0.0000 
     11 O4P        45.3980    0.0980  -16.5010 O.3       1 PGU433      0.0000 
     12 P          46.1800   -0.3550  -17.7850 P.3       1 PGU433      0.0000 
     13 O1P        47.6560   -0.5150  -17.4210 O.co2     1 PGU433      0.0000 
     14 O2P        45.5150   -1.4690  -18.5490 O.co2     1 PGU433      0.0000 
     15 O3P        46.1280    0.8590  -18.8520 O.co2     1 PGU433      0.0000 
     16 N          43.2370   -2.8490  -13.0930 N.4       1 PGU433      0.0000 
     17 CA         42.6040   -4.2170  -13.2760 C.3       1 PGU433      0.0000 
     18 CB         43.6470   -5.1630  -13.9100 C.3       1 PGU433      0.0000 
     19 CG         44.7870   -5.5980  -12.9780 C.3       1 PGU433      0.0000 
     20 CD         46.0170   -4.6690  -12.9190 C.2       1 PGU433      0.0000 
     21 OE1        47.0240   -5.1220  -12.3300 O.co2     1 PGU433      0.0000 
     22 OE2        45.9360   -3.5140  -13.4300 O.co2     1 PGU433      0.0000 
     23 C          42.0190   -4.7880  -11.9130 C.2       1 PGU433      0.0000 
     24 O          42.0580   -4.0250  -10.9290 O.co2     1 PGU433      0.0000 
     25 OXT        41.5590   -5.9590  -11.8470 O.co2     1 PGU433      0.0000 
     26 H          43.8807   -2.1665  -15.0128 H         1 PGU433      0.0000 
     27 H          42.1905   -1.7968  -14.6303 H         1 PGU433      0.0000 
     28 H          45.9275    1.9825  -13.9663 H         1 PGU433      0.0000 
     29 H          45.7071   -1.4356  -15.1109 H         1 PGU433      0.0000 
     30 H          46.7551   -0.0206  -14.9123 H         1 PGU433      0.0000 
     31 H          41.7724   -4.1224  -13.9727 H         1 PGU433      0.0000 
     32 H          44.0805   -4.6641  -14.7960 H         1 PGU433      0.0000 
     33 H          43.1245   -6.0640  -14.2800 H         1 PGU433      0.0000 
     34 H          45.1271   -6.6113  -13.2809 H         1 PGU433      0.0000 
     35 H          44.3825   -5.7100  -11.9494 H         1 PGU433      0.0000 
     36 H          42.8685    2.2010  -10.2636 H         1 PGU433      0.0000 
     37 H          41.9622    2.9161  -11.3831 H         1 PGU433      0.0000 
     38 H          41.5835    1.4423  -10.8630 H         1 PGU433      0.0000 
     39 H          41.1176   -0.4643  -12.9851 H         1 PGU433      0.0000 
@<TRIPOS>BOND
     1    2    1 ar   
     2    9    1 ar   
     3    3    2 1    
     4    4    2 ar   
     5   36    3 1    
     6   37    3 1    
     7   38    3 1    
     8    5    4 1    
     9    6    4 ar   
    10   39    5 1    
    11    7    6 1    
    12    8    6 ar   
    13   16    7 1    
    14   26    7 1    
    15   27    7 1    
    16    9    8 ar   
    17   10    8 1    
    18   28    9 1    
    19   11   10 1    
    20   29   10 1    
    21   30   10 1    
    22   12   11 1    
    23   13   12 ar   
    24   14   12 ar   
    25   15   12 ar   
    26   17   16 1    
    27   18   17 1    
    28   23   17 1    
    29   31   17 1    
    30   19   18 1    
    31   32   18 1    
    32   33   18 1    
    33   20   19 1    
    34   34   19 1    
    35   35   19 1    
    36   21   20 ar   
    37   22   20 ar   
    38   24   23 ar   
    39   25   23 ar   
@<TRIPOS>SUBSTRUCTURE
     1 PGU433      1 GROUP   
@<TRIPOS>SET

