#    Name: 3h23_B54_1_INTS_M
#    Modification time : Tue Mar 25 13:28:49 2014

@<TRIPOS>MOLECULE
3h23_B54_1_INTS_M
   51     0     9     0     0
SMALL
NO_CHARGES


@<TRIPOS>ATOM
      1 N         -79.9570   85.5370  100.7380 N.am      2 SEC2        0.0000 
      2 N         -78.7880   86.1580  101.2010 N.am      8 SEL2        0.0000 
      3 N         -81.1260   84.9160  100.2750 N.am      5 SEP2        0.0000 
      4 CA        -74.2660   84.0240  100.5835 C.3       3 GLC5        0.0000 
      5 CA        -75.9060   84.6230   99.6930 C.3       9 GLL5        0.0000 
      6 CA        -72.6260   83.4250  101.4740 C.3       6 GLP5        0.0000 
      7 CA        -73.5775   84.4085   99.4075 C.3       3 GLC5        0.0000 
      8 CA        -75.1650   84.6380   98.5090 C.3       9 GLL5        0.0000 
      9 CA        -71.9900   84.1790  100.3060 C.3       6 GLP5        0.0000 
     10 CA        -72.6445   85.8080   97.7780 C.3       3 GLC5        0.0000 
     11 CA        -73.5530   84.9670   96.0900 C.3       9 GLL5        0.0000 
     12 CA        -71.7360   86.6490   99.4660 C.3       6 GLP5        0.0000 
     13 CA        -73.2460   81.8595   94.5265 C.3       3 GLC5        0.0000 
     14 CA        -74.2340   83.5950   94.0230 C.3       9 GLL5        0.0000 
     15 CA        -72.2580   80.1240   95.0300 C.3       6 GLP5        0.0000 
     16 CA        -74.4480   84.3325   91.8660 C.3       3 GLC5        0.0000 
     17 CA        -76.2410   83.9210   92.5590 C.3       9 GLL5        0.0000 
     18 CA        -72.6550   84.7440   91.1730 C.3       6 GLP5        0.0000 
     19 N         -78.9180   86.8835   92.4285 N.am      2 SEC2        0.0000 
     20 N         -77.9520   85.7360   93.0600 N.am      8 SEL2        0.0000 
     21 N         -79.8840   88.0310   91.7970 N.am      5 SEP2        0.0000 
     22 N         -79.7565   85.2660   89.3980 N.am      2 SEC2        0.0000 
     23 N         -79.1580   85.1450   90.7130 N.am      8 SEL2        0.0000 
     24 N         -80.3550   85.3870   88.0830 N.am      5 SEP2        0.0000 
     25 O         -78.0600   83.0785   89.0815 O.2       1 ALC1        0.0000 
     26 O         -77.7030   83.4560   90.2030 O.2       7 ALL1        0.0000 
     27 O         -78.4170   82.7010   87.9600 O.2       4 ALP1        0.0000 
     28 N         -75.3625   81.4835   92.0175 N.am      2 SEC2        0.0000 
     29 N         -75.9290   82.9750   91.6600 N.am      8 SEL2        0.0000 
     30 N         -74.7960   79.9920   92.3750 N.am      5 SEP2        0.0000 
     31 O         -75.1385   80.9605   89.9605 O.2       1 ALC1        0.0000 
     32 O         -76.1430   81.8010   89.7050 O.2       7 ALL1        0.0000 
     33 O         -74.1340   80.1200   90.2160 O.2       4 ALP1        0.0000 
     34 O         -77.2800   82.2510   88.8325 O.2       1 ALC1        0.0000 
     35 CA        -77.6085   83.3340   99.7027 C.3       3 GLC5        0.0000 
     36 CA        -78.7120   81.6770   99.6680 C.3       6 GLP5        0.0000 
     37 CA        -75.3390   86.5995   99.5477 C.3       3 GLC5        0.0000 
     38 CA        -77.1040   85.3590   99.7820 C.3       9 GLL5        0.0000 
     39 CA        -74.1730   88.2080   99.3580 C.3       6 GLP5        0.0000 
     40 CA        -74.7773   86.6180   98.6620 C.3       3 GLC5        0.0000 
     41 CA        -75.6697   87.1843   98.7452 C.3       3 GLC5        0.0000 
     42 CA        -76.7940   86.1590   97.5440 C.3       9 GLL5        0.0000 
     43 CA        -71.5292   84.8940   95.5632 C.3       3 GLC5        0.0000 
     44 CA        -69.6210   84.9670   95.7710 C.3       6 GLP5        0.0000 
     45 CA        -73.2165   84.4395   92.7475 C.3       3 GLC5        0.0000 
     46 CA        -73.3220   84.6750   94.6210 C.3       9 GLL5        0.0000 
     47 CA        -76.1788   84.9455   90.4467 C.3       3 GLC5        0.0000 
     48 CA        -75.5200   85.5590   88.4970 C.3       6 GLP5        0.0000 
     49 CA        -77.8162   82.7590   92.9483 C.3       3 GLC5        0.0000 
     50 CA        -77.4340   84.7430   92.2340 C.3       9 GLL5        0.0000 
     51 CA        -78.7950   81.1860   93.5000 C.3       6 GLP5        0.0000 
@<TRIPOS>BOND
@<TRIPOS>SUBSTRUCTURE
     1 ALC1       25 GROUP        1 X    ALC  0     ROOT ALC X 1
     2 SEC2        1 GROUP        1 X    SEC  0     **** SEC X 2
     3 GLC5        4 GROUP        1 X    GLC  0     **** GLC X 6
     4 ALP1       27 GROUP        1 Y    ALP  0     ROOT ALP Y 8
     5 SEP2        3 GROUP        1 Y    SEP  0     **** SEP Y 9
     6 GLP5        6 GROUP        1 Y    GLP  0     **** GLP Y 13
     7 ALL1       26 GROUP        1 Z    ALL  0     ROOT ALL Z 15
     8 SEL2        2 GROUP        1 Z    SEL  0     **** SEL Z 16
     9 GLL5        5 GROUP        1 Z    GLL  0     **** GLL Z 20
@<TRIPOS>SET

