#    Name: 3h23_B54_1_ligand
#    Modification time : Tue Mar 25 13:28:49 2014

@<TRIPOS>MOLECULE
3h23_B54_1_ligand
   38    39     1     0     0
SMALL
NO_CHARGES


@<TRIPOS>ATOM
      1 O22       -78.7880   86.1580  101.2010 O.co2     1 B54511      0.0000 
      2 C21       -77.8490   85.3570  101.0800 C.2       1 B54511      0.0000 
      3 O23       -77.4620   84.6210  102.0270 O.co2     1 B54511      0.0000 
      4 C18       -77.1040   85.3590   99.7820 C.ar      1 B54511      0.0000 
      5 C19       -75.9060   84.6230   99.6930 C.ar      1 B54511      0.0000 
      6 C20       -75.1650   84.6380   98.5090 C.ar      1 B54511      0.0000 
      7 C17       -77.5390   86.1620   98.7210 C.ar      1 B54511      0.0000 
      8 C16       -76.7940   86.1590   97.5440 C.ar      1 B54511      0.0000 
      9 C15       -75.5980   85.4180   97.4230 C.ar      1 B54511      0.0000 
     10 O14       -74.8800   85.4560   96.2350 O.3       1 B54511      0.0000 
     11 C13       -73.5530   84.9670   96.0900 C.3       1 B54511      0.0000 
     12 C12       -73.3220   84.6750   94.6210 C.3       1 B54511      0.0000 
     13 C11       -74.2340   83.5950   94.0230 C.3       1 B54511      0.0000 
     14 N10       -75.5400   84.1280   93.7050 N.pl3     1 B54511      0.0000 
     15 C4        -76.2410   83.9210   92.5590 C.2       1 B54511      0.0000 
     16 C5        -77.4340   84.7430   92.2340 C.2       1 B54511      0.0000 
     17 N9        -77.9520   85.7360   93.0600 N.2       1 B54511      0.0000 
     18 O24       -77.3740   86.2230   94.0150 O.2       1 B54511      0.0000 
     19 C2        -78.1340   84.4720   90.9770 C.2       1 B54511      0.0000 
     20 O8        -79.1580   85.1450   90.7130 O.2       1 B54511      0.0000 
     21 N2        -77.7030   83.4560   90.2030 N.am      1 B54511      0.0000 
     22 C1        -76.6070   82.7520   90.5190 C.2       1 B54511      0.0000 
     23 N1        -75.9290   82.9750   91.6600 N.2       1 B54511      0.0000 
     24 N7        -76.1430   81.8010   89.7050 N.pl3     1 B54511      0.0000 
     25 H         -75.5834   84.0794  100.4983 H         1 B54511      0.0000 
     26 H         -74.3083   84.0837   98.4287 H         1 B54511      0.0000 
     27 H         -78.3745   86.7295   98.8101 H         1 B54511      0.0000 
     28 H         -77.1195   86.7131   96.7303 H         1 B54511      0.0000 
     29 H         -73.3957   84.0434   96.6484 H         1 B54511      0.0000 
     30 H         -72.8114   85.6994   96.4111 H         1 B54511      0.0000 
     31 H         -72.2689   84.3655   94.4725 H         1 B54511      0.0000 
     32 H         -73.4558   85.6078   94.0390 H         1 B54511      0.0000 
     33 H         -74.3044   82.7750   94.7522 H         1 B54511      0.0000 
     34 H         -73.7370   83.1957   93.1271 H         1 B54511      0.0000 
     35 H         -75.9702   84.7432   94.4698 H         1 B54511      0.0000 
     36 H         -78.2419   83.2124   89.3309 H         1 B54511      0.0000 
     37 H         -76.6452   81.6699   88.8502 H         1 B54511      0.0000 
     38 H         -75.3350   81.3053   90.0232 H         1 B54511      0.0000 
@<TRIPOS>BOND
     1    2    1 ar   
     2    3    2 ar   
     3    4    2 1    
     4    5    4 ar   
     5    7    4 ar   
     6    6    5 ar   
     7   25    5 1    
     8    9    6 ar   
     9   26    6 1    
    10    8    7 ar   
    11   27    7 1    
    12    9    8 ar   
    13   28    8 1    
    14   10    9 1    
    15   11   10 1    
    16   12   11 1    
    17   29   11 1    
    18   30   11 1    
    19   13   12 1    
    20   31   12 1    
    21   32   12 1    
    22   14   13 1    
    23   33   13 1    
    24   34   13 1    
    25   15   14 1    
    26   35   14 1    
    27   16   15 2    
    28   23   15 1    
    29   17   16 1    
    30   19   16 1    
    31   18   17 2    
    32   20   19 2    
    33   21   19 am   
    34   22   21 1    
    35   36   21 1    
    36   23   22 2    
    37   24   22 1    
    38   37   24 1    
    39   38   24 1    
@<TRIPOS>SUBSTRUCTURE
     1 B54511      1 GROUP   
@<TRIPOS>SET

