#    Name: 2ydj_YDJ_1_INTS_M
#    Modification time : Tue Mar 25 08:43:36 2014

@<TRIPOS>MOLECULE
2ydj_YDJ_1_INTS_M
   48     0    12     0     0
SMALL
NO_CHARGES


@<TRIPOS>ATOM
      1 CA          7.7265   -4.2125   44.6315 C.3       4 GLC5        0.0000 
      2 CA          7.8150   -3.6100   46.5010 C.3      12 GLL5        0.0000 
      3 CA          7.6380   -4.8150   42.7620 C.3       8 GLP5        0.0000 
      4 CA          0.7055   -8.4070   43.6230 C.3       4 GLC5        0.0000 
      5 CA          0.5650   -6.9220   44.7110 C.3      12 GLL5        0.0000 
      6 CA          0.8460   -9.8920   42.5350 C.3       8 GLP5        0.0000 
      7 CA         -0.3530   -9.0475   44.2050 C.3       4 GLC5        0.0000 
      8 CA         -0.8490   -7.4230   44.9750 C.3      12 GLL5        0.0000 
      9 CA          0.1430  -10.6720   43.4350 C.3       8 GLP5        0.0000 
     10 OD1        -1.8230   -4.7685   45.5470 O.co2     3 ASC3        0.0000 
     11 OD1        -1.2310   -5.6220   46.4710 O.co2    11 ASL3        0.0000 
     12 OD1        -2.4150   -3.9150   44.6230 O.co2     7 ASP3        0.0000 
     13 CA          1.2535   -4.5525   47.9660 C.3       4 GLC5        0.0000 
     14 CA          0.1070   -4.9850   46.2820 C.3      12 GLL5        0.0000 
     15 CA          2.4000   -4.1200   49.6500 C.3       8 GLP5        0.0000 
     16 CA          0.8325   -3.0880   46.9110 C.3       4 GLC5        0.0000 
     17 CA          1.5580   -1.1910   47.5400 C.3       8 GLP5        0.0000 
     18 N           5.0670    1.7380   43.0125 N.am      2 SEC2        0.0000 
     19 N           4.6340    0.4540   42.7080 N.am     10 SEL2        0.0000 
     20 N           5.5000    3.0220   43.3170 N.am      6 SEP2        0.0000 
     21 O           2.7800    1.7150   41.3750 O.2       1 ALC1        0.0000 
     22 O           2.5050    0.3420   41.8320 O.2       9 ALL1        0.0000 
     23 O           3.0550    3.0880   40.9180 O.2       5 ALP1        0.0000 
     24 CA          8.8038    0.8313   46.1650 C.3       4 GLC5        0.0000 
     25 CA          7.9690   -1.2940   46.0070 C.3      12 GLL5        0.0000 
     26 CA          9.0140    2.9260   46.0220 C.3       8 GLP5        0.0000 
     27 CA          7.3403   -0.8962   47.7220 C.3       4 GLC5        0.0000 
     28 CA          9.2180   -1.2330   46.6090 C.3      12 GLL5        0.0000 
     29 CA          6.0870   -0.5290   49.1360 C.3       8 GLP5        0.0000 
     30 CA          8.8526   -2.6126   44.5690 C.3       4 GLC5        0.0000 
     31 CA          9.7770   -3.3550   43.0130 C.3       8 GLP5        0.0000 
     32 CA          9.5965   -3.1580   45.0667 C.3       4 GLC5        0.0000 
     33 CA          9.0580   -3.5510   47.0900 C.3      12 GLL5        0.0000 
     34 CA          6.5258   -3.9943   44.1045 C.3       4 GLC5        0.0000 
     35 CA          5.9730   -2.5440   45.2730 C.3      12 GLL5        0.0000 
     36 CA          6.4215   -1.6614   47.4416 C.3       4 GLC5        0.0000 
     37 CA          6.2895   -2.2780   42.8268 C.3       4 GLC5        0.0000 
     38 CA          5.4240   -1.7070   44.3220 C.3      12 GLL5        0.0000 
     39 CA          7.8050   -2.6600   41.5420 C.3       8 GLP5        0.0000 
     40 CA          3.9858   -3.5388   42.2940 C.3       4 GLC5        0.0000 
     41 CA          4.1240   -2.0850   43.9010 C.3      12 GLL5        0.0000 
     42 CA          4.0770   -4.4210   40.3770 C.3       8 GLP5        0.0000 
     43 CA          2.7688   -1.3775   44.7916 C.3       4 GLC5        0.0000 
     44 CA          3.6650   -3.2280   44.5210 C.3      12 GLL5        0.0000 
     45 CA          1.3180   -0.1930   45.2670 C.3       8 GLP5        0.0000 
     46 CA          1.6013   -6.2165   43.0012 C.3       4 GLC5        0.0000 
     47 CA          0.7140   -5.4280   44.9620 C.3      12 GLL5        0.0000 
     48 CA          2.5630   -6.2580   41.1660 C.3       8 GLP5        0.0000 
@<TRIPOS>BOND
@<TRIPOS>SUBSTRUCTURE
     1 ALC1       21 GROUP        1 X    ALC  0     ROOT ALC X 1
     2 SEC2       18 GROUP        1 X    SEC  0     **** SEC X 2
     3 ASC3       10 GROUP        1 X    ASC  0     **** ASC X 3
     4 GLC5        1 GROUP        1 X    GLC  0     **** GLC X 6
     5 ALP1       23 GROUP        1 Y    ALP  0     ROOT ALP Y 8
     6 SEP2       20 GROUP        1 Y    SEP  0     **** SEP Y 9
     7 ASP3       12 GROUP        1 Y    ASP  0     **** ASP Y 10
     8 GLP5        3 GROUP        1 Y    GLP  0     **** GLP Y 13
     9 ALL1       22 GROUP        1 Z    ALL  0     ROOT ALL Z 15
    10 SEL2       19 GROUP        1 Z    SEL  0     **** SEL Z 16
    11 ASL3       11 GROUP        1 Z    ASL  0     **** ASL Z 17
    12 GLL5        2 GROUP        1 Z    GLL  0     **** GLL Z 20
@<TRIPOS>SET

