#    Name: 2ydj_YDJ_1_ligand
#    Modification time : Tue Mar 25 08:43:36 2014

@<TRIPOS>MOLECULE
2ydj_YDJ_1_ligand
   43    45     1     0     0
SMALL
NO_CHARGES


@<TRIPOS>ATOM
      1 C1          9.2180   -1.2330   46.6090 C.ar      1 YDJ1270     0.0000 
      2 C2          7.9690   -1.2940   46.0070 C.ar      1 YDJ1270     0.0000 
      3 C3          7.2630   -2.4770   45.9420 C.ar      1 YDJ1270     0.0000 
      4 C4          7.8150   -3.6100   46.5010 C.ar      1 YDJ1270     0.0000 
      5 C5          9.0580   -3.5510   47.0900 C.ar      1 YDJ1270     0.0000 
      6 C6          9.7740   -2.3710   47.1510 C.ar      1 YDJ1270     0.0000 
      7 F1          9.5570   -4.6800   47.6230 F         1 YDJ1270     0.0000 
      8 C7          5.9730   -2.5440   45.2730 C.2       1 YDJ1270     0.0000 
      9 C8          5.4240   -1.7070   44.3220 C.2       1 YDJ1270     0.0000 
     10 C9          4.1240   -2.0850   43.9010 C.2       1 YDJ1270     0.0000 
     11 C10         3.6650   -3.2280   44.5210 C.2       1 YDJ1270     0.0000 
     12 S1          4.8540   -3.8030   45.6210 S.3       1 YDJ1270     0.0000 
     13 C11         2.3830   -3.8490   44.2870 C.2       1 YDJ1270     0.0000 
     14 O1          1.5590   -3.3440   43.5240 O.2       1 YDJ1270     0.0000 
     15 N1          2.1110   -5.0300   44.9490 N.am      1 YDJ1270     0.0000 
     16 C12         0.7140   -5.4280   44.9620 C.3       1 YDJ1270     0.0000 
     17 C13         0.5650   -6.9220   44.7110 C.3       1 YDJ1270     0.0000 
     18 C14        -0.8490   -7.4230   44.9750 C.3       1 YDJ1270     0.0000 
     19 C15        -1.2520   -7.1160   46.4030 C.3       1 YDJ1270     0.0000 
     20 N2         -1.2310   -5.6220   46.4710 N.4       1 YDJ1270     0.0000 
     21 C16         0.1070   -4.9850   46.2820 C.3       1 YDJ1270     0.0000 
     22 N3          3.3350   -1.4360   42.9570 N.am      1 YDJ1270     0.0000 
     23 C17         3.5890   -0.1590   42.5230 C.2       1 YDJ1270     0.0000 
     24 O2          4.6340    0.4540   42.7080 O.2       1 YDJ1270     0.0000 
     25 N4          2.5050    0.3420   41.8320 N.am      1 YDJ1270     0.0000 
     26 H           9.7243   -0.3371   46.6481 H         1 YDJ1270     0.0000 
     27 H           7.5611   -0.4297   45.5985 H         1 YDJ1270     0.0000 
     28 H           7.2957   -4.5020   46.4775 H         1 YDJ1270     0.0000 
     29 H          10.6971   -2.3448   47.5896 H         1 YDJ1270     0.0000 
     30 H           5.8790   -0.9143   43.9570 H         1 YDJ1270     0.0000 
     31 H           2.7924   -5.5896   45.3931 H         1 YDJ1270     0.0000 
     32 H           0.1849   -4.8943   44.1625 H         1 YDJ1270     0.0000 
     33 H           1.2654   -7.4669   45.3571 H         1 YDJ1270     0.0000 
     34 H           0.8346   -7.1404   43.6696 H         1 YDJ1270     0.0000 
     35 H          -0.8855   -8.4972   44.8092 H         1 YDJ1270     0.0000 
     36 H          -1.5366   -6.9334   44.2893 H         1 YDJ1270     0.0000 
     37 H          -0.5343   -7.5291   47.0744 H         1 YDJ1270     0.0000 
     38 H          -2.2365   -7.4829   46.5840 H         1 YDJ1270     0.0000 
     39 H           0.0064   -3.8992   46.2800 H         1 YDJ1270     0.0000 
     40 H           0.7752   -5.2724   47.0944 H         1 YDJ1270     0.0000 
     41 H           2.5085   -1.9536   42.5628 H         1 YDJ1270     0.0000 
     42 H           1.7389   -0.2868   41.6994 H         1 YDJ1270     0.0000 
     43 H           2.5797    1.2904   41.5239 H         1 YDJ1270     0.0000 
@<TRIPOS>BOND
     1    2    1 ar   
     2    6    1 ar   
     3   26    1 1    
     4    3    2 ar   
     5   27    2 1    
     6    4    3 ar   
     7    8    3 1    
     8    5    4 ar   
     9   28    4 1    
    10    6    5 ar   
    11    7    5 1    
    12   29    6 1    
    13    9    8 2    
    14   12    8 1    
    15   10    9 1    
    16   30    9 1    
    17   11   10 2    
    18   22   10 1    
    19   12   11 1    
    20   13   11 1    
    21   14   13 2    
    22   15   13 am   
    23   16   15 1    
    24   31   15 1    
    25   17   16 1    
    26   21   16 1    
    27   32   16 1    
    28   18   17 1    
    29   33   17 1    
    30   34   17 1    
    31   19   18 1    
    32   35   18 1    
    33   36   18 1    
    34   20   19 1    
    35   37   19 1    
    36   38   19 1    
    37   21   20 1    
    38   39   21 1    
    39   40   21 1    
    40   23   22 am   
    41   41   22 1    
    42   24   23 2    
    43   25   23 am   
    44   42   25 1    
    45   43   25 1    
@<TRIPOS>SUBSTRUCTURE
     1 YDJ1270     1 GROUP   
@<TRIPOS>SET

