#    Name: 2wek_DIF_4_INTS_M
#    Modification time : Tue Mar 25 04:09:27 2014

@<TRIPOS>MOLECULE
2wek_DIF_4_INTS_M
   41     0     6     0     0
SMALL
NO_CHARGES


@<TRIPOS>ATOM
      1 CA        -33.4655  -10.0225  -41.0675 C.3       2 GLC5        0.0000 
      2 CA        -33.4060   -9.8570  -39.4790 C.3       6 GLL5        0.0000 
      3 CA        -33.5250  -10.1880  -42.6560 C.3       4 GLP5        0.0000 
      4 CA        -31.6570  -11.0265  -39.5625 C.3       2 GLC5        0.0000 
      5 CA        -29.9080  -12.1960  -39.6460 C.3       4 GLP5        0.0000 
      6 CA        -39.0290   -6.3945  -36.4555 C.3       2 GLC5        0.0000 
      7 CA        -37.4640   -6.9870  -37.2910 C.3       6 GLL5        0.0000 
      8 CA        -40.5940   -5.8020  -35.6200 C.3       4 GLP5        0.0000 
      9 CA        -38.3645   -8.4285  -36.6050 C.3       2 GLC5        0.0000 
     10 CA        -39.2650   -9.8700  -35.9190 C.3       4 GLP5        0.0000 
     11 CA        -36.5290   -5.2800  -37.8495 C.3       2 GLC5        0.0000 
     12 CA        -35.5940   -3.5730  -38.4080 C.3       4 GLP5        0.0000 
     13 CA        -34.8105   -8.0480  -34.2430 C.3       2 GLC5        0.0000 
     14 CA        -34.6340   -9.4100  -35.7070 C.3       6 GLL5        0.0000 
     15 CA        -34.9870   -6.6860  -32.7790 C.3       4 GLP5        0.0000 
     16 CA        -38.2930   -7.3315  -41.5190 C.3       2 GLC5        0.0000 
     17 CA        -36.1900   -7.0720  -42.2480 C.3       6 GLL5        0.0000 
     18 CA        -40.3960   -7.5910  -40.7900 C.3       4 GLP5        0.0000 
     19 CA        -34.8575   -8.6300  -42.4520 C.3       2 GLC5        0.0000 
     20 CA        -35.3360   -5.5590  -41.3640 C.3       2 GLC5        0.0000 
     21 CA        -34.4820   -4.0460  -40.4800 C.3       4 GLP5        0.0000 
     22 N         -38.1455   -4.1000  -42.4035 N.am      1 SEC2        0.0000 
     23 N         -37.4700   -5.0980  -42.5350 N.am      5 SEL2        0.0000 
     24 N         -38.8210   -3.1020  -42.2720 N.am      3 SEP2        0.0000 
     25 CA        -33.1950   -9.2688  -34.6920 C.3       2 GLC5        0.0000 
     26 CA        -33.9180   -9.8090  -36.8370 C.3       6 GLL5        0.0000 
     27 CA        -32.1140   -8.9280  -33.1120 C.3       4 GLP5        0.0000 
     28 CA        -32.7200   -8.1872  -36.1155 C.3       2 GLC5        0.0000 
     29 CA        -31.1640   -6.7650  -35.9590 C.3       4 GLP5        0.0000 
     30 CA        -32.2022   -8.3257  -38.6017 C.3       2 GLC5        0.0000 
     31 CA        -34.3050   -9.3380  -38.0940 C.3       6 GLL5        0.0000 
     32 CA        -30.5490   -7.0540  -38.4170 C.3       4 GLP5        0.0000 
     33 CA        -36.7228   -9.6163  -34.7265 C.3       2 GLC5        0.0000 
     34 CA        -35.7250   -8.5450  -35.8670 C.3       6 GLL5        0.0000 
     35 CA        -38.2660  -10.2550  -33.6660 C.3       4 GLP5        0.0000 
     36 CA        -35.7604   -6.5911  -35.6635 C.3       2 GLC5        0.0000 
     37 CA        -35.2620   -5.1410  -34.7890 C.3       4 GLP5        0.0000 
     38 CA        -38.5356   -8.4998  -40.6840 C.3       2 GLC5        0.0000 
     39 CA        -36.4170   -8.8640  -40.4090 C.3       6 GLL5        0.0000 
     40 CA        -38.9030   -8.7602  -41.6493 C.3       2 GLC5        0.0000 
     41 CA        -37.1890   -9.2930  -42.6760 C.3       6 GLL5        0.0000 
@<TRIPOS>BOND
@<TRIPOS>SUBSTRUCTURE
     1 SEC2       22 GROUP        1 X    SEC  0     ROOT SEC X 2
     2 GLC5        1 GROUP        1 X    GLC  0     **** GLC X 6
     3 SEP2       24 GROUP        1 Y    SEP  0     ROOT SEP Y 9
     4 GLP5        3 GROUP        1 Y    GLP  0     **** GLP Y 13
     5 SEL2       23 GROUP        1 Z    SEL  0     ROOT SEL Z 16
     6 GLL5        2 GROUP        1 Z    GLL  0     **** GLL Z 20
@<TRIPOS>SET

