#    Name: 2wek_DIF_4_ligand
#    Modification time : Tue Mar 25 04:09:27 2014

@<TRIPOS>MOLECULE
2wek_DIF_4_ligand
   29    30     1     0     0
SMALL
NO_CHARGES


@<TRIPOS>ATOM
      1 C1        -33.9180   -9.8090  -36.8370 C.ar      1 DIF1373     0.0000 
      2 C2        -34.3050   -9.3380  -38.0940 C.ar      1 DIF1373     0.0000 
      3 CL2       -33.4060   -9.8570  -39.4790 Cl        1 DIF1373     0.0000 
      4 C3        -35.4030   -8.4760  -38.2590 C.ar      1 DIF1373     0.0000 
      5 C4        -36.1210   -8.0880  -37.1270 C.ar      1 DIF1373     0.0000 
      6 CL4       -37.4640   -6.9870  -37.2910 Cl        1 DIF1373     0.0000 
      7 C5        -35.7250   -8.5450  -35.8670 C.ar      1 DIF1373     0.0000 
      8 C6        -34.6340   -9.4100  -35.7070 C.ar      1 DIF1373     0.0000 
      9 N1        -35.8080   -8.0370  -39.4910 N.pl3     1 DIF1373     0.0000 
     10 C7        -36.5980   -8.4460  -41.7310 C.ar      1 DIF1373     0.0000 
     11 C8        -36.4170   -8.8640  -40.4090 C.ar      1 DIF1373     0.0000 
     12 C9        -36.8430  -10.1620  -40.0860 C.ar      1 DIF1373     0.0000 
     13 C10       -37.4470  -11.0040  -41.0310 C.ar      1 DIF1373     0.0000 
     14 C11       -37.6310  -10.5660  -42.3410 C.ar      1 DIF1373     0.0000 
     15 C12       -37.1890   -9.2930  -42.6760 C.ar      1 DIF1373     0.0000 
     16 C13       -36.1900   -7.0720  -42.2480 C.3       1 DIF1373     0.0000 
     17 C14       -37.1260   -5.9860  -41.7340 C.2       1 DIF1373     0.0000 
     18 O1        -37.3750   -5.9760  -40.5140 O.co2     1 DIF1373     0.0000 
     19 O2        -37.4700   -5.0980  -42.5350 O.co2     1 DIF1373     0.0000 
     20 H         -33.1190  -10.4391  -36.7461 H         1 DIF1373     0.0000 
     21 H         -36.2510   -8.2370  -35.0277 H         1 DIF1373     0.0000 
     22 H         -34.3701   -9.7404  -34.7812 H         1 DIF1373     0.0000 
     23 H         -35.6496   -7.0300  -39.7499 H         1 DIF1373     0.0000 
     24 H         -36.7063  -10.5092  -39.1166 H         1 DIF1373     0.0000 
     25 H         -37.7527  -11.9438  -40.7533 H         1 DIF1373     0.0000 
     26 H         -38.0768  -11.1637  -43.0308 H         1 DIF1373     0.0000 
     27 H         -37.2977   -8.9556  -43.6531 H         1 DIF1373     0.0000 
     28 H         -36.2103   -7.0779  -43.3397 H         1 DIF1373     0.0000 
     29 H         -35.1711   -6.8531  -41.9222 H         1 DIF1373     0.0000 
@<TRIPOS>BOND
     1    2    1 ar   
     2    8    1 ar   
     3   20    1 1    
     4    3    2 1    
     5    4    2 ar   
     6    5    4 ar   
     7    9    4 1    
     8    6    5 1    
     9    7    5 ar   
    10    8    7 ar   
    11   21    7 1    
    12   22    8 1    
    13   11    9 1    
    14   23    9 1    
    15   11   10 ar   
    16   15   10 ar   
    17   16   10 1    
    18   12   11 ar   
    19   13   12 ar   
    20   24   12 1    
    21   14   13 ar   
    22   25   13 1    
    23   15   14 ar   
    24   26   14 1    
    25   27   15 1    
    26   17   16 1    
    27   28   16 1    
    28   29   16 1    
    29   18   17 ar   
    30   19   17 ar   
@<TRIPOS>SUBSTRUCTURE
     1 DIF1373     1 GROUP   
@<TRIPOS>SET

