#    Name: 3ebi_BEY_1_INTS_M
#    Modification time : Tue Mar 25 01:23:35 2014

@<TRIPOS>MOLECULE
3ebi_BEY_1_INTS_M
   77     0    15     0     0
SMALL
NO_CHARGES


@<TRIPOS>ATOM
      1 Zn         12.4235   10.7230    9.7980 Zn        4 ZIC7        0.0000 
      2 Zn         12.9260   10.5710   10.5660 Zn       14 ZIL7        0.0000 
      3 Zn         11.9210   10.8750    9.0300 Zn        9 ZIP7        0.0000 
      4 N          12.4980    9.6170   11.4865 N.am      2 SEC2        0.0000 
      5 N          12.9260   10.5710   10.5660 N.am     12 SEL2        0.0000 
      6 N          12.0700    8.6630   12.4070 N.am      7 SEP2        0.0000 
      7 N          14.9090   13.2845    9.5910 N.am      2 SEC2        0.0000 
      8 N          13.8750   12.8620   10.3840 N.am     12 SEL2        0.0000 
      9 N          15.9430   13.7070    8.7980 N.am      7 SEP2        0.0000 
     10 CA         11.2030   10.6820   14.7185 C.3       5 GLC5        0.0000 
     11 CA         12.8020   11.6650   14.0460 C.3      15 GLL5        0.0000 
     12 CA          9.6040    9.6990   15.3910 C.3      10 GLP5        0.0000 
     13 CA         12.4370   14.5715   14.4415 C.3       5 GLC5        0.0000 
     14 CA         12.8560   12.8630   14.9980 C.3      15 GLL5        0.0000 
     15 CA         12.0180   16.2800   13.8850 C.3      10 GLP5        0.0000 
     16 CA         12.9445   10.0015   19.5745 C.3       5 GLC5        0.0000 
     17 CA         11.7880   11.3930   18.3840 C.3      15 GLL5        0.0000 
     18 CA         14.1010    8.6100   20.7650 C.3      10 GLP5        0.0000 
     19 CA         10.2830   12.8455   16.5535 C.3       5 GLC5        0.0000 
     20 CA         11.7880   11.7460   17.0280 C.3      15 GLL5        0.0000 
     21 CA          8.7780   13.9450   16.0790 C.3      10 GLP5        0.0000 
     22 OD1        10.6595   13.6280   13.1300 O.co2     3 ASC3        0.0000 
     23 OD1        11.5970   13.2030   12.3940 O.co2    13 ASL3        0.0000 
     24 OD1         9.7220   14.0530   13.8660 O.co2     8 ASP3        0.0000 
     25 OD1         9.9655   12.8180   13.3550 O.co2     3 ASC3        0.0000 
     26 OD1         8.3340   12.4330   14.3160 O.co2     8 ASP3        0.0000 
     27 OD1        11.5585   14.1185   11.4810 O.co2     3 ASC3        0.0000 
     28 OD1        11.5200   15.0340   10.5680 O.co2     8 ASP3        0.0000 
     29 OD1        10.4765   13.9970   11.3945 O.co2     3 ASC3        0.0000 
     30 OD1         9.3560   14.7910   10.3950 O.co2     8 ASP3        0.0000 
     31 OD1        10.5840   11.8790   11.6690 O.co2     3 ASC3        0.0000 
     32 OD1         9.5710   10.5550   10.9440 O.co2     8 ASP3        0.0000 
     33 O          10.6595   13.6280   13.1300 O.2       1 ALC1        0.0000 
     34 O          11.5970   13.2030   12.3940 O.2      11 ALL1        0.0000 
     35 O           9.7220   14.0530   13.8660 O.2       6 ALP1        0.0000 
     36 O          11.5585   14.1185   11.4810 O.2       1 ALC1        0.0000 
     37 O          11.5200   15.0340   10.5680 O.2       6 ALP1        0.0000 
     38 O          10.4765   13.9970   11.3945 O.2       1 ALC1        0.0000 
     39 O           9.3560   14.7910   10.3950 O.2       6 ALP1        0.0000 
     40 CA         15.9795   11.5760   13.7590 C.3       5 GLC5        0.0000 
     41 CA         15.1690   11.1320   12.0590 C.3      15 GLL5        0.0000 
     42 CA         16.7900   12.0200   15.4590 C.3      10 GLP5        0.0000 
     43 CA         14.3685    8.6600   10.9420 C.3       5 GLC5        0.0000 
     44 CA         15.9310   10.0830   11.2430 C.3      15 GLL5        0.0000 
     45 CA         12.8060    7.2370   10.6410 C.3      10 GLP5        0.0000 
     46 N          18.5405   10.2205   13.2235 N.am      2 SEC2        0.0000 
     47 N          17.5790    9.2750   12.7460 N.am     12 SEL2        0.0000 
     48 N          19.5020   11.1660   13.7010 N.am      7 SEP2        0.0000 
     49 CA         17.6220   12.7780   11.1655 C.3       5 GLC5        0.0000 
     50 CA         17.1040   10.7140   10.4850 C.3      15 GLL5        0.0000 
     51 CA         18.1400   14.8420   11.8460 C.3      10 GLP5        0.0000 
     52 CA         14.8095   12.1420   14.9905 C.3       5 GLC5        0.0000 
     53 CA         11.1908   13.9518   16.0733 C.3       5 GLC5        0.0000 
     54 CA          9.5310   15.2360   16.4110 C.3      10 GLP5        0.0000 
     55 CA         14.1950   14.7348   18.5367 C.3       5 GLC5        0.0000 
     56 CA         13.9020   12.8630   17.3000 C.3      15 GLL5        0.0000 
     57 CA         14.4840   16.7790   19.0950 C.3      10 GLP5        0.0000 
     58 CA         15.2159   12.3064   16.6154 C.3       5 GLC5        0.0000 
     59 CA         13.9100   12.5180   18.6570 C.3      15 GLL5        0.0000 
     60 CA         14.3117   11.0440   20.0263 C.3       5 GLC5        0.0000 
     61 CA         15.2440    9.9360   21.1260 C.3      10 GLP5        0.0000 
     62 CA         11.6943   10.9458   20.4725 C.3       5 GLC5        0.0000 
     63 CA         12.8490   11.7860   19.1960 C.3      15 GLL5        0.0000 
     64 CA         11.0700   10.3020   22.1550 C.3      10 GLP5        0.0000 
     65 CA         19.1700   10.3745    8.1472 C.3       5 GLC5        0.0000 
     66 CA         17.6340    9.7710    9.4190 C.3      15 GLL5        0.0000 
     67 CA         20.9990   10.9890    7.5070 C.3      10 GLP5        0.0000 
     68 CA         16.0100   10.0415    6.8197 C.3       5 GLC5        0.0000 
     69 CA         17.0480    9.7490    8.1560 C.3      15 GLL5        0.0000 
     70 CA         14.7330   10.7660    5.9780 C.3      10 GLP5        0.0000 
     71 CA         19.5295    9.7238    7.4042 C.3       5 GLC5        0.0000 
     72 CA         17.5260    8.8850    7.1670 C.3      15 GLL5        0.0000 
     73 CA         19.9722    9.7393    8.3498 C.3       5 GLC5        0.0000 
     74 CA         19.1800    8.0550    8.6990 C.3      15 GLL5        0.0000 
     75 CA         19.1195   10.6366   11.1750 C.3       5 GLC5        0.0000 
     76 CA         18.7110    8.9240    9.6860 C.3      15 GLL5        0.0000 
     77 CA         20.1990   11.6900   12.5310 C.3      10 GLP5        0.0000 
@<TRIPOS>BOND
@<TRIPOS>SUBSTRUCTURE
     1 ALC1       33 GROUP        1 X    ALC  0     ROOT ALC X 1
     2 SEC2        4 GROUP        1 X    SEC  0     **** SEC X 2
     3 ASC3       22 GROUP        1 X    ASC  0     **** ASC X 3
     4 ZIC7        1 GROUP        1 X    ZIC  0     **** ZIC X 5
     5 GLC5       10 GROUP        1 X    GLC  0     **** GLC X 6
     6 ALP1       35 GROUP        1 Y    ALP  0     ROOT ALP Y 8
     7 SEP2        6 GROUP        1 Y    SEP  0     **** SEP Y 9
     8 ASP3       24 GROUP        1 Y    ASP  0     **** ASP Y 10
     9 ZIP7        3 GROUP        1 Y    ZIP  0     **** ZIP Y 12
    10 GLP5       12 GROUP        1 Y    GLP  0     **** GLP Y 13
    11 ALL1       34 GROUP        1 Z    ALL  0     ROOT ALL Z 15
    12 SEL2        5 GROUP        1 Z    SEL  0     **** SEL Z 16
    13 ASL3       23 GROUP        1 Z    ASL  0     **** ASL Z 17
    14 ZIL7        2 GROUP        1 Z    ZIL  0     **** ZIL Z 19
    15 GLL5       11 GROUP        1 Z    GLL  0     **** GLL Z 20
@<TRIPOS>SET

