#    Name: 3ebi_BEY_1_ligand
#    Modification time : Tue Mar 25 01:23:36 2014

@<TRIPOS>MOLECULE
3ebi_BEY_1_ligand
   48    49     1     0     0
SMALL
NO_CHARGES


@<TRIPOS>ATOM
      1 O3         12.9260   10.5710   10.5660 O.co2     1 BEY1085     0.0000 
      2 P          13.6170   11.6920   11.2970 P.3       1 BEY1085     0.0000 
      3 O4         13.8750   12.8620   10.3840 O.co2     1 BEY1085     0.0000 
      4 C19        12.3310   11.9720   12.5890 C.3       1 BEY1085     0.0000 
      5 C18        12.8020   11.6650   14.0460 C.3       1 BEY1085     0.0000 
      6 C15        12.8560   12.8630   14.9980 C.3       1 BEY1085     0.0000 
      7 C16        12.8450   12.4720   16.4730 C.ar      1 BEY1085     0.0000 
      8 C10        13.9020   12.8630   17.3000 C.ar      1 BEY1085     0.0000 
      9 C11        13.9100   12.5180   18.6570 C.ar      1 BEY1085     0.0000 
     10 C12        12.8490   11.7860   19.1960 C.ar      1 BEY1085     0.0000 
     11 C14        11.7880   11.3930   18.3840 C.ar      1 BEY1085     0.0000 
     12 C13        11.7880   11.7460   17.0280 C.ar      1 BEY1085     0.0000 
     13 N          11.5970   13.2030   12.3940 N.4       1 BEY1085     0.0000 
     14 C17        15.1690   11.1320   12.0590 C.3       1 BEY1085     0.0000 
     15 C8         15.9310   10.0830   11.2430 C.3       1 BEY1085     0.0000 
     16 C9         16.4800    9.0580   12.1940 C.2       1 BEY1085     0.0000 
     17 O2         15.8230    8.0170   12.4010 O.co2     1 BEY1085     0.0000 
     18 O1         17.5790    9.2750   12.7460 O.co2     1 BEY1085     0.0000 
     19 C7         17.1040   10.7140   10.4850 C.3       1 BEY1085     0.0000 
     20 C1         17.6340    9.7710    9.4190 C.ar      1 BEY1085     0.0000 
     21 C2         17.0480    9.7490    8.1560 C.ar      1 BEY1085     0.0000 
     22 C3         17.5260    8.8850    7.1670 C.ar      1 BEY1085     0.0000 
     23 C4         18.5940    8.0320    7.4360 C.ar      1 BEY1085     0.0000 
     24 C6         19.1800    8.0550    8.6990 C.ar      1 BEY1085     0.0000 
     25 C5         18.7110    8.9240    9.6860 C.ar      1 BEY1085     0.0000 
     26 H          11.6273   11.0875   12.3014 H         1 BEY1085     0.0000 
     27 H          13.8054   11.2004   13.9896 H         1 BEY1085     0.0000 
     28 H          12.1267   10.8958   14.4681 H         1 BEY1085     0.0000 
     29 H          11.9961   13.5188   14.7936 H         1 BEY1085     0.0000 
     30 H          13.7665   13.4442   14.7871 H         1 BEY1085     0.0000 
     31 H          14.6820   13.4095   16.9088 H         1 BEY1085     0.0000 
     32 H          14.6937   12.8027   19.2530 H         1 BEY1085     0.0000 
     33 H          12.8534   11.5382   20.1932 H         1 BEY1085     0.0000 
     34 H          11.0121   10.8502   18.7712 H         1 BEY1085     0.0000 
     35 H          10.9938   11.4645   16.4311 H         1 BEY1085     0.0000 
     36 H          14.8342   10.7669   13.0180 H         1 BEY1085     0.0000 
     37 H          15.7119   12.0573   12.1787 H         1 BEY1085     0.0000 
     38 H          15.2702    9.6171   10.5550 H         1 BEY1085     0.0000 
     39 H          17.8992   10.9476   11.1930 H         1 BEY1085     0.0000 
     40 H          16.7676   11.6398   10.0181 H         1 BEY1085     0.0000 
     41 H          16.2557   10.3737    7.9468 H         1 BEY1085     0.0000 
     42 H          17.0861    8.8804    6.2372 H         1 BEY1085     0.0000 
     43 H          18.9429    7.3973    6.7152 H         1 BEY1085     0.0000 
     44 H          19.9689    7.4241    8.9091 H         1 BEY1085     0.0000 
     45 H          19.1593    8.9400   10.6101 H         1 BEY1085     0.0000 
     46 H          11.5366   13.4502   11.4269 H         1 BEY1085     0.0000 
     47 H          10.6605   13.1355   12.7383 H         1 BEY1085     0.0000 
     48 H          12.0284   13.9715   12.8666 H         1 BEY1085     0.0000 
@<TRIPOS>BOND
     1    2    1 ar   
     2    3    2 ar   
     3    4    2 1    
     4   14    2 1    
     5    5    4 1    
     6   13    4 1    
     7   26    4 1    
     8    6    5 1    
     9   27    5 1    
    10   28    5 1    
    11    7    6 1    
    12   29    6 1    
    13   30    6 1    
    14    8    7 ar   
    15   12    7 ar   
    16    9    8 ar   
    17   31    8 1    
    18   10    9 ar   
    19   32    9 1    
    20   11   10 ar   
    21   33   10 1    
    22   12   11 ar   
    23   34   11 1    
    24   35   12 1    
    25   46   13 1    
    26   47   13 1    
    27   48   13 1    
    28   15   14 1    
    29   36   14 1    
    30   37   14 1    
    31   16   15 1    
    32   19   15 1    
    33   38   15 1    
    34   17   16 ar   
    35   18   16 ar   
    36   20   19 1    
    37   39   19 1    
    38   40   19 1    
    39   21   20 ar   
    40   25   20 ar   
    41   22   21 ar   
    42   41   21 1    
    43   23   22 ar   
    44   42   22 1    
    45   24   23 ar   
    46   43   23 1    
    47   25   24 ar   
    48   44   24 1    
    49   45   25 1    
@<TRIPOS>SUBSTRUCTURE
     1 BEY1085     1 GROUP   
@<TRIPOS>SET

