#    Name: 1u1f_183_3_INTS_M
#    Modification time : Tue Mar 25 05:57:22 2014

@<TRIPOS>MOLECULE
1u1f_183_3_INTS_M
   68     0     9     0     0
SMALL
NO_CHARGES


@<TRIPOS>ATOM
      1 N          56.9260  203.3225   45.4625 N.am      2 SEC2        0.0000 
      2 N          56.5720  202.2050   44.8010 N.am      8 SEL2        0.0000 
      3 N          57.2800  204.4400   46.1240 N.am      5 SEP2        0.0000 
      4 CA         53.8200  203.0765   45.5810 C.3       3 GLC5        0.0000 
      5 CA         55.2550  201.8850   45.2820 C.3       9 GLL5        0.0000 
      6 CA         52.3850  204.2680   45.8800 C.3       6 GLP5        0.0000 
      7 CA         55.9840  203.7090   45.3995 C.3       3 GLC5        0.0000 
      8 CA         56.7130  205.5330   45.5170 C.3       6 GLP5        0.0000 
      9 CA         54.5305  200.1905   47.5935 C.3       3 GLC5        0.0000 
     10 CA         55.1950  200.4350   45.7700 C.3       9 GLL5        0.0000 
     11 CA         53.8660  199.9460   49.4170 C.3       6 GLP5        0.0000 
     12 CA         55.3820  196.3785   46.1660 C.3       3 GLC5        0.0000 
     13 CA         55.8860  198.2170   45.0580 C.3       9 GLL5        0.0000 
     14 CA         54.8780  194.5400   47.2740 C.3       6 GLP5        0.0000 
     15 N          56.7355  197.5465   49.1775 N.am      2 SEC2        0.0000 
     16 N          56.4450  197.4890   47.7990 N.am      8 SEL2        0.0000 
     17 N          57.0260  197.6040   50.5560 N.am      5 SEP2        0.0000 
     18 O          58.9005  197.1915   48.7740 O.2       1 ALC1        0.0000 
     19 O          58.6970  197.4980   47.4590 O.2       7 ALL1        0.0000 
     20 O          59.1040  196.8850   50.0890 O.2       4 ALP1        0.0000 
     21 N          61.8180  198.2670   47.9020 N.am      2 SEC2        0.0000 
     22 N          60.9440  197.5170   47.1140 N.am      8 SEL2        0.0000 
     23 N          62.6920  199.0170   48.6900 N.am      5 SEP2        0.0000 
     24 CA         57.6645  198.1155   42.6355 C.3       3 GLC5        0.0000 
     25 CA         58.3280  198.2660   44.7600 C.3       9 GLL5        0.0000 
     26 CA         57.0010  197.9650   40.5110 C.3       6 GLP5        0.0000 
     27 CA         61.1795  198.3065   42.5455 C.3       3 GLC5        0.0000 
     28 CA         60.9210  198.4520   44.3360 C.3       9 GLL5        0.0000 
     29 CA         61.4380  198.1610   40.7550 C.3       6 GLP5        0.0000 
     30 CA         63.8790  198.6565   44.5860 C.3       3 GLC5        0.0000 
     31 CA         62.7610  200.0470   45.4080 C.3       9 GLL5        0.0000 
     32 CA         64.9970  197.2660   43.7640 C.3       6 GLP5        0.0000 
     33 CA         61.8320  204.4915   46.0770 C.3       3 GLC5        0.0000 
     34 CA         62.4280  202.5380   45.3980 C.3       9 GLL5        0.0000 
     35 CA         61.2360  206.4450   46.7560 C.3       6 GLP5        0.0000 
     36 CA         60.5280  205.3775   44.9860 C.3       3 GLC5        0.0000 
     37 CA         59.8200  204.3100   43.2160 C.3       9 GLL5        0.0000 
     38 CA         58.2665  204.9215   44.3665 C.3       3 GLC5        0.0000 
     39 CA         59.6070  202.5035   39.1810 C.3       3 GLC5        0.0000 
     40 CA         60.4930  203.5690   40.9290 C.3       9 GLL5        0.0000 
     41 CA         58.7210  201.4380   37.4330 C.3       6 GLP5        0.0000 
     42 CA         61.4705  202.3805   38.4700 C.3       3 GLC5        0.0000 
     43 CA         61.4710  203.6150   39.8460 C.3       9 GLL5        0.0000 
     44 CA         61.4700  201.1460   37.0940 C.3       6 GLP5        0.0000 
     45 CA         56.5595  201.1675   47.1125 C.3       3 GLC5        0.0000 
     46 CA         57.8940  201.1750   48.6990 C.3       6 GLP5        0.0000 
     47 CA         58.7320  196.4820   44.1497 C.3       3 GLC5        0.0000 
     48 CA         58.4660  194.7700   43.3050 C.3       6 GLP5        0.0000 
     49 CA         58.9570  199.6405   46.3762 C.3       3 GLC5        0.0000 
     50 CA         58.9160  201.0870   47.7580 C.3       6 GLP5        0.0000 
     51 CA         60.9597  196.4075   45.0868 C.3       3 GLC5        0.0000 
     52 CA         59.6680  198.1220   45.2290 C.3       9 GLL5        0.0000 
     53 CA         61.6250  194.5280   45.3910 C.3       6 GLP5        0.0000 
     54 CA         63.1025  198.2107   44.1397 C.3       3 GLC5        0.0000 
     55 CA         61.1028  200.0400   42.6907 C.3       3 GLC5        0.0000 
     56 CA         61.4950  199.8590   44.6950 C.3       9 GLL5        0.0000 
     57 CA         61.1090  199.6400   40.8690 C.3       6 GLP5        0.0000 
     58 CA         63.2745  200.8705   43.6992 C.3       3 GLC5        0.0000 
     59 CA         64.4210  201.7880   42.3470 C.3       6 GLP5        0.0000 
     60 CA         63.6268  201.8750   43.9650 C.3       3 GLC5        0.0000 
     61 CA         63.2370  201.3860   45.7680 C.3       9 GLL5        0.0000 
     62 CA         62.6748  201.7412   43.4277 C.3       3 GLC5        0.0000 
     63 CA         61.1590  202.3680   44.6870 C.3       9 GLL5        0.0000 
     64 CA         61.0455  201.6160   40.6283 C.3       3 GLC5        0.0000 
     65 CA         63.4603  202.7482   40.4327 C.3       3 GLC5        0.0000 
     66 CA         64.8490  201.4580   40.9630 C.3       6 GLP5        0.0000 
     67 CA         63.4175  203.5178   42.0250 C.3       3 GLC5        0.0000 
     68 CA         62.9040  205.2690   41.1590 C.3       9 GLL5        0.0000 
@<TRIPOS>BOND
@<TRIPOS>SUBSTRUCTURE
     1 ALC1       18 GROUP        1 X    ALC  0     ROOT ALC X 1
     2 SEC2        1 GROUP        1 X    SEC  0     **** SEC X 2
     3 GLC5        4 GROUP        1 X    GLC  0     **** GLC X 6
     4 ALP1       20 GROUP        1 Y    ALP  0     ROOT ALP Y 8
     5 SEP2        3 GROUP        1 Y    SEP  0     **** SEP Y 9
     6 GLP5        6 GROUP        1 Y    GLP  0     **** GLP Y 13
     7 ALL1       19 GROUP        1 Z    ALL  0     ROOT ALL Z 15
     8 SEL2        2 GROUP        1 Z    SEL  0     **** SEL Z 16
     9 GLL5        5 GROUP        1 Z    GLL  0     **** GLL Z 20
@<TRIPOS>SET

