#    Name: 1u1f_183_3_ligand
#    Modification time : Tue Mar 25 05:57:22 2014

@<TRIPOS>MOLECULE
1u1f_183_3_ligand
   50    52     1     0     0
SMALL
NO_CHARGES


@<TRIPOS>ATOM
      1 OAC        56.5720  202.2050   44.8010 O.3       1 1835300     0.0000 
      2 CAN        55.2550  201.8850   45.2820 C.3       1 1835300     0.0000 
      3 CAO        55.1950  200.4350   45.7700 C.3       1 1835300     0.0000 
      4 OAT        55.4550  199.5210   44.6830 O.3       1 1835300     0.0000 
      5 CAR        55.8860  198.2170   45.0580 C.3       1 1835300     0.0000 
      6 NBC        57.1730  198.0450   45.6070 N.am      1 1835300     0.0000 
      7 CBB        57.3670  197.6550   46.9830 C.2       1 1835300     0.0000 
      8 OAB        56.4450  197.4890   47.7990 O.2       1 1835300     0.0000 
      9 NAS        58.6970  197.4980   47.4590 N.am      1 1835300     0.0000 
     10 CBA        59.8270  197.7210   46.6100 C.2       1 1835300     0.0000 
     11 OAA        60.9440  197.5170   47.1140 O.2       1 1835300     0.0000 
     12 CAY        58.3280  198.2660   44.7600 C.2       1 1835300     0.0000 
     13 CAZ        59.6680  198.1220   45.2290 C.2       1 1835300     0.0000 
     14 CAQ        60.9210  198.4520   44.3360 C.3       1 1835300     0.0000 
     15 CAW        61.4950  199.8590   44.6950 C.ar      1 1835300     0.0000 
     16 CAK        62.7610  200.0470   45.4080 C.ar      1 1835300     0.0000 
     17 CAH        63.2370  201.3860   45.7680 C.ar      1 1835300     0.0000 
     18 CAL        62.4280  202.5380   45.3980 C.ar      1 1835300     0.0000 
     19 CAM        60.6980  201.0210   44.3300 C.ar      1 1835300     0.0000 
     20 CAX        61.1590  202.3680   44.6870 C.ar      1 1835300     0.0000 
     21 OAU        60.3760  203.4600   44.3460 O.3       1 1835300     0.0000 
     22 CAP        59.8200  204.3100   43.2160 C.3       1 1835300     0.0000 
     23 CAV        60.7220  204.3760   42.1310 C.ar      1 1835300     0.0000 
     24 CAJ        60.4930  203.5690   40.9290 C.ar      1 1835300     0.0000 
     25 CAG        61.4710  203.6150   39.8460 C.ar      1 1835300     0.0000 
     26 CAE        62.6720  204.4620   39.9590 C.ar      1 1835300     0.0000 
     27 CAF        62.9040  205.2690   41.1590 C.ar      1 1835300     0.0000 
     28 CAI        61.9240  205.2260   42.2470 C.ar      1 1835300     0.0000 
     29 H          54.4990  202.0046   44.4942 H         1 1835300     0.0000 
     30 H          54.9646  202.5327   46.1203 H         1 1835300     0.0000 
     31 H          54.2010  200.2671   46.2041 H         1 1835300     0.0000 
     32 H          55.9332  200.3199   46.5740 H         1 1835300     0.0000 
     33 H          55.7679  197.5182   44.1513 H         1 1835300     0.0000 
     34 H          55.1078  197.7675   45.7768 H         1 1835300     0.0000 
     35 H          58.8551  197.2180   48.4349 H         1 1835300     0.0000 
     36 H          58.1649  198.5387   43.7776 H         1 1835300     0.0000 
     37 H          60.6194  198.4454   43.3001 H         1 1835300     0.0000 
     38 H          61.6785  197.7041   44.5121 H         1 1835300     0.0000 
     39 H          63.3168  199.2388   45.6565 H         1 1835300     0.0000 
     40 H          64.0970  201.5001   46.2558 H         1 1835300     0.0000 
     41 H          62.7431  203.4700   45.6333 H         1 1835300     0.0000 
     42 H          59.8321  200.9068   43.8340 H         1 1835300     0.0000 
     43 H          59.6006  205.3116   43.6295 H         1 1835300     0.0000 
     44 H          58.8492  203.8734   42.9173 H         1 1835300     0.0000 
     45 H          59.6792  202.9970   40.8544 H         1 1835300     0.0000 
     46 H          61.3297  203.0668   39.0140 H         1 1835300     0.0000 
     47 H          63.3358  204.4832   39.2030 H         1 1835300     0.0000 
     48 H          63.7178  205.8399   41.2345 H         1 1835300     0.0000 
     49 H          62.0652  205.7737   43.0754 H         1 1835300     0.0000 
     50 H          56.5354  202.0372   43.8158 H         1 1835300     0.0000 
@<TRIPOS>BOND
     1    2    1 1    
     2   50    1 1    
     3    3    2 1    
     4   29    2 1    
     5   30    2 1    
     6    4    3 1    
     7   31    3 1    
     8   32    3 1    
     9    5    4 1    
    10    6    5 1    
    11   33    5 1    
    12   34    5 1    
    13    7    6 1    
    14   12    6 1    
    15    8    7 2    
    16    9    7 1    
    17   10    9 1    
    18   35    9 1    
    19   11   10 2    
    20   13   10 1    
    21   13   12 2    
    22   36   12 1    
    23   14   13 1    
    24   15   14 1    
    25   37   14 1    
    26   38   14 1    
    27   16   15 ar   
    28   19   15 ar   
    29   17   16 ar   
    30   39   16 1    
    31   18   17 ar   
    32   40   17 1    
    33   20   18 ar   
    34   41   18 1    
    35   20   19 ar   
    36   42   19 1    
    37   21   20 1    
    38   22   21 1    
    39   23   22 1    
    40   43   22 1    
    41   44   22 1    
    42   24   23 ar   
    43   28   23 ar   
    44   25   24 ar   
    45   45   24 1    
    46   26   25 ar   
    47   46   25 1    
    48   27   26 ar   
    49   47   26 1    
    50   28   27 ar   
    51   48   27 1    
    52   49   28 1    
@<TRIPOS>SUBSTRUCTURE
     1 1835300     1 GROUP   
@<TRIPOS>SET

