#    Name: 3t03_3T0_1_INTS_M
#    Modification time : Mon Mar 24 18:57:51 2014

@<TRIPOS>MOLECULE
3t03_3T0_1_INTS_M
   71     0     3     0     0
SMALL
NO_CHARGES


@<TRIPOS>ATOM
      1 CA        -15.7440   22.1350  -17.4325 C.3       1 GLC5        0.0000 
      2 CA        -17.7410   22.0290  -17.4400 C.3       3 GLL5        0.0000 
      3 CA        -13.7470   22.2410  -17.4250 C.3       2 GLP5        0.0000 
      4 CA        -17.1385   20.4795  -17.2260 C.3       1 GLC5        0.0000 
      5 CA        -16.5360   18.9300  -17.0120 C.3       2 GLP5        0.0000 
      6 CA        -17.8535   21.4450  -19.1050 C.3       1 GLC5        0.0000 
      7 CA        -17.9660   20.8610  -20.7700 C.3       2 GLP5        0.0000 
      8 CA        -14.0550   21.3145   -6.3090 C.3       1 GLC5        0.0000 
      9 CA        -15.1420   20.3890   -7.7010 C.3       3 GLL5        0.0000 
     10 CA        -12.9680   22.2400   -4.9170 C.3       2 GLP5        0.0000 
     11 CA        -13.8285   21.9930   -8.5130 C.3       1 GLC5        0.0000 
     12 CA        -12.5150   23.5970   -9.3250 C.3       2 GLP5        0.0000 
     13 CA        -23.0680   28.0725  -17.4390 C.3       1 GLC5        0.0000 
     14 CA        -21.4580   27.8980  -18.7520 C.3       3 GLL5        0.0000 
     15 CA        -24.6780   28.2470  -16.1260 C.3       2 GLP5        0.0000 
     16 CA        -22.9250   29.1640  -19.3400 C.3       1 GLC5        0.0000 
     17 CA        -24.3920   30.4300  -19.9280 C.3       2 GLP5        0.0000 
     18 CA        -20.6140   28.7105  -17.3015 C.3       1 GLC5        0.0000 
     19 CA        -19.7700   29.5230  -15.8510 C.3       2 GLP5        0.0000 
     20 CA        -15.0120   20.1450  -10.2340 C.3       1 GLC5        0.0000 
     21 CA        -16.4810   21.2160   -9.8760 C.3       3 GLL5        0.0000 
     22 CA        -13.5430   19.0740  -10.5920 C.3       2 GLP5        0.0000 
     23 CA        -19.8735   26.3895  -20.9830 C.3       1 GLC5        0.0000 
     24 CA        -19.4870   25.7140  -18.9040 C.3       3 GLL5        0.0000 
     25 CA        -20.2600   27.0650  -23.0620 C.3       2 GLP5        0.0000 
     26 CA        -18.3475   22.6990  -19.6315 C.3       1 GLC5        0.0000 
     27 CA        -18.7290   24.5370  -18.4930 C.3       3 GLL5        0.0000 
     28 CA        -18.7020   26.6380  -16.1135 C.3       1 GLC5        0.0000 
     29 CA        -20.4800   26.0290  -16.4870 C.3       3 GLL5        0.0000 
     30 CA        -16.9240   27.2470  -15.7400 C.3       2 GLP5        0.0000 
     31 CA        -21.2950   23.3845   -9.0870 C.3       1 GLC5        0.0000 
     32 CA        -19.6440   23.5260  -10.1130 C.3       3 GLL5        0.0000 
     33 CA        -22.9460   23.2430   -8.0610 C.3       2 GLP5        0.0000 
     34 CA        -16.5795   26.0305  -12.3100 C.3       1 GLC5        0.0000 
     35 CA        -18.6260   26.1050  -12.9910 C.3       3 GLL5        0.0000 
     36 CA        -14.5330   25.9560  -11.6290 C.3       2 GLP5        0.0000 
     37 CA        -19.4220   27.6055  -13.7910 C.3       1 GLC5        0.0000 
     38 CA        -20.2180   29.1060  -14.5910 C.3       2 GLP5        0.0000 
     39 CA        -14.6290   19.9200   -9.3187 C.3       1 GLC5        0.0000 
     40 CA        -16.2880   21.1430   -8.3900 C.3       3 GLL5        0.0000 
     41 CA        -21.3525   25.4310  -19.2485 C.3       1 GLC5        0.0000 
     42 CA        -20.3900   26.4300  -18.0100 C.3       3 GLL5        0.0000 
     43 CA        -21.7810   23.6980  -20.1160 C.3       2 GLP5        0.0000 
     44 CA        -18.7345   20.7392  -10.3555 C.3       1 GLC5        0.0000 
     45 CA        -17.5650   22.0150  -10.4880 C.3       3 GLL5        0.0000 
     46 CA        -20.4460   19.8630  -10.5290 C.3       2 GLP5        0.0000 
     47 CA        -15.5780   22.5427  -11.0335 C.3       1 GLC5        0.0000 
     48 CA        -14.1330   23.4700  -11.8850 C.3       2 GLP5        0.0000 
     49 CA        -18.9518   22.0005   -6.5435 C.3       1 GLC5        0.0000 
     50 CA        -17.2540   21.8640   -7.5540 C.3       3 GLL5        0.0000 
     51 CA        -20.0870   21.7380   -5.2300 C.3       2 GLP5        0.0000 
     52 CA        -17.6983   24.0995   -7.6175 C.3       1 GLC5        0.0000 
     53 CA        -18.3790   22.6620   -8.1600 C.3       3 GLL5        0.0000 
     54 CA        -17.5800   25.9360   -7.3780 C.3       2 GLP5        0.0000 
     55 CA        -18.0890   24.9402  -20.1037 C.3       1 GLC5        0.0000 
     56 CA        -17.0700   24.7550  -21.5090 C.3       2 GLP5        0.0000 
     57 CA        -21.0580   25.8083  -15.5587 C.3       1 GLC5        0.0000 
     58 CA        -21.6810   25.3870  -13.8690 C.3       2 GLP5        0.0000 
     59 CA        -19.7441   21.4887  -10.0122 C.3       1 GLC5        0.0000 
     60 CA        -18.3265   24.5355   -8.6163 C.3       1 GLC5        0.0000 
     61 CA        -18.5020   22.7440   -9.5960 C.3       3 GLL5        0.0000 
     62 CA        -20.2853   25.3660  -13.5795 C.3       1 GLC5        0.0000 
     63 CA        -17.9067   26.2960  -14.5150 C.3       1 GLC5        0.0000 
     64 CA        -19.1530   24.5850  -13.5890 C.3       3 GLL5        0.0000 
     65 CA        -18.1885   26.6264  -17.9286 C.3       1 GLC5        0.0000 
     66 CA        -16.6280   27.4750  -17.5030 C.3       2 GLP5        0.0000 
     67 CA        -20.3730   24.1561  -18.9999 C.3       1 GLC5        0.0000 
     68 CA        -20.4319   24.8197  -15.0794 C.3       1 GLC5        0.0000 
     69 CA        -18.8220   24.1030  -17.0690 C.3       3 GLL5        0.0000 
     70 CA        -18.0534   25.7497  -16.0149 C.3       1 GLC5        0.0000 
     71 CA        -19.3750   23.9980  -14.9160 C.3       3 GLL5        0.0000 
@<TRIPOS>BOND
@<TRIPOS>SUBSTRUCTURE
     1 GLC5        1 GROUP        1 X    GLC  0     ROOT GLC X 6
     2 GLP5        3 GROUP        1 Y    GLP  0     ROOT GLP Y 13
     3 GLL5        2 GROUP        1 Z    GLL  0     ROOT GLL Z 20
@<TRIPOS>SET

