#    Name: 3t03_3T0_1_ligand
#    Modification time : Mon Mar 24 18:57:51 2014

@<TRIPOS>MOLECULE
3t03_3T0_1_ligand
   41    43     1     0     0
SMALL
NO_CHARGES


@<TRIPOS>ATOM
      1 CAA       -17.7410   22.0290  -17.4400 C.3       1 3T02        0.0000 
      2 CAB       -15.1420   20.3890   -7.7010 C.3       1 3T02        0.0000 
      3 OAC       -18.7080   26.4060  -10.3380 O.2       1 3T02        0.0000 
      4 OAD       -19.7640   22.4480  -12.8040 O.2       1 3T02        0.0000 
      5 BRAE      -21.4580   27.8980  -18.7520 Br        1 3T02        0.0000 
      6 CAF       -19.3750   23.9980  -14.9160 C.2       1 3T02        0.0000 
      7 CAG       -16.4810   21.2160   -9.8760 C.ar      1 3T02        0.0000 
      8 CAH       -17.2540   21.8640   -7.5540 C.ar      1 3T02        0.0000 
      9 CAI       -19.4870   25.7140  -18.9040 C.ar      1 3T02        0.0000 
     10 CAJ       -17.5650   22.0150  -10.4880 C.ar      1 3T02        0.0000 
     11 CAK       -18.3790   22.6620   -8.1600 C.ar      1 3T02        0.0000 
     12 CAL       -18.7290   24.5370  -18.4930 C.ar      1 3T02        0.0000 
     13 CAM       -20.4800   26.0290  -16.4870 C.ar      1 3T02        0.0000 
     14 CAN       -19.6440   23.5260  -10.1130 C.3       1 3T02        0.0000 
     15 OAO       -18.0710   23.0630  -16.5940 O.3       1 3T02        0.0000 
     16 SAP       -18.6260   26.1050  -12.9910 S.3       1 3T02        0.0000 
     17 CAQ       -16.2880   21.1430   -8.3900 C.ar      1 3T02        0.0000 
     18 CAR       -20.3900   26.4300  -18.0100 C.ar      1 3T02        0.0000 
     19 CAS       -18.5020   22.7440   -9.5960 C.ar      1 3T02        0.0000 
     20 CAT       -19.7120   24.8060  -16.1050 C.ar      1 3T02        0.0000 
     21 CAU       -18.8220   24.1030  -17.0690 C.ar      1 3T02        0.0000 
     22 CAV       -18.9100   25.6910  -11.2910 C.2       1 3T02        0.0000 
     23 CAW       -19.4140   23.6720  -12.5180 C.2       1 3T02        0.0000 
     24 CAX       -19.1530   24.5850  -13.5890 C.2       1 3T02        0.0000 
     25 NAY       -19.3140   24.3230  -11.2880 N.am      1 3T02        0.0000 
     26 H         -19.2934   22.9842  -15.0255 H         1 3T02        0.0000 
     27 H         -15.8463   20.7003  -10.4697 H         1 3T02        0.0000 
     28 H         -17.1776   21.8352   -6.5495 H         1 3T02        0.0000 
     29 H         -19.3795   26.0541  -19.8681 H         1 3T02        0.0000 
     30 H         -17.6657   22.0643  -11.4692 H         1 3T02        0.0000 
     31 H         -19.0205   23.1207   -7.5492 H         1 3T02        0.0000 
     32 H         -18.1670   24.0327  -19.1273 H         1 3T02        0.0000 
     33 H         -20.9933   26.5509  -15.8910 H         1 3T02        0.0000 
     34 H         -20.0266   24.1875   -9.3039 H         1 3T02        0.0000 
     35 H         -20.4809   22.8320  -10.3509 H         1 3T02        0.0000 
     36 H         -17.2119   22.3472  -18.2266 H         1 3T02        0.0000 
     37 H         -17.1907   21.3330  -16.9788 H         1 3T02        0.0000 
     38 H         -18.5532   21.5696  -17.7995 H         1 3T02        0.0000 
     39 H         -14.2475   20.7424   -7.9747 H         1 3T02        0.0000 
     40 H         -15.1944   20.4633   -6.7051 H         1 3T02        0.0000 
     41 H         -15.1524   19.4140   -7.9231 H         1 3T02        0.0000 
@<TRIPOS>BOND
     1   15    1 1    
     2   36    1 1    
     3   37    1 1    
     4   38    1 1    
     5   17    2 1    
     6   39    2 1    
     7   40    2 1    
     8   41    2 1    
     9   22    3 2    
    10   23    4 2    
    11   18    5 1    
    12   20    6 1    
    13   24    6 2    
    14   26    6 1    
    15   10    7 ar   
    16   17    7 ar   
    17   27    7 1    
    18   11    8 ar   
    19   17    8 ar   
    20   28    8 1    
    21   12    9 ar   
    22   18    9 ar   
    23   29    9 1    
    24   19   10 ar   
    25   30   10 1    
    26   19   11 ar   
    27   31   11 1    
    28   21   12 ar   
    29   32   12 1    
    30   18   13 ar   
    31   20   13 ar   
    32   33   13 1    
    33   19   14 1    
    34   25   14 1    
    35   34   14 1    
    36   35   14 1    
    37   21   15 1    
    38   22   16 1    
    39   24   16 1    
    40   21   20 ar   
    41   25   22 am   
    42   24   23 1    
    43   25   23 am   
@<TRIPOS>SUBSTRUCTURE
     1 3T02        1 GROUP   
@<TRIPOS>SET

