#    Name: 3t50_FMN_2_INTS_M
#    Modification time : Mon Mar 24 19:06:39 2014

@<TRIPOS>MOLECULE
3t50_FMN_2_INTS_M
   72     0    12     0     0
SMALL
NO_CHARGES


@<TRIPOS>ATOM
      1 N          16.1710  -31.7310    1.4400 N.am      2 SEC2        0.0000 
      2 N          15.0530  -32.0390    0.6370 N.am     10 SEL2        0.0000 
      3 N          17.2890  -31.4230    2.2430 N.am      6 SEP2        0.0000 
      4 N          14.3765  -33.4045    0.8115 N.am      2 SEC2        0.0000 
      5 N          13.7000  -34.7700    0.9860 N.am      6 SEP2        0.0000 
      6 O          12.7075  -32.5650   -0.4700 O.2       1 ALC1        0.0000 
      7 O          13.3800  -31.3950   -0.7730 O.2       9 ALL1        0.0000 
      8 O          12.0350  -33.7350   -0.1670 O.2       5 ALP1        0.0000 
      9 N          11.0060  -30.7625   -3.2540 N.am      2 SEC2        0.0000 
     10 N          11.8480  -30.6240   -2.1910 N.am     10 SEL2        0.0000 
     11 N          10.1640  -30.9010   -4.3170 N.am      6 SEP2        0.0000 
     12 CA         15.2525  -26.4910   -5.6425 C.3       4 GLC5        0.0000 
     13 CA         14.4220  -25.2080   -4.3300 C.3      12 GLL5        0.0000 
     14 CA         16.0830  -27.7740   -6.9550 C.3       8 GLP5        0.0000 
     15 CA         11.6715  -24.4290   -4.9320 C.3       4 GLC5        0.0000 
     16 CA         13.8590  -24.1740   -5.2950 C.3      12 GLL5        0.0000 
     17 CA          9.4840  -24.6840   -4.5690 C.3       8 GLP5        0.0000 
     18 CA         15.6085  -24.9230   -6.4365 C.3       4 GLC5        0.0000 
     19 CA         17.3580  -25.6720   -7.5780 C.3       8 GLP5        0.0000 
     20 CA         15.0780  -22.7760   -5.9590 C.3       4 GLC5        0.0000 
     21 CA         16.2970  -21.3780   -6.6230 C.3       8 GLP5        0.0000 
     22 CA         13.2710  -23.3355   -7.1835 C.3       4 GLC5        0.0000 
     23 CA         12.6830  -22.4970   -9.0720 C.3       8 GLP5        0.0000 
     24 CA         16.9495  -24.7535   -5.7395 C.3       4 GLC5        0.0000 
     25 CA         16.5410  -23.8350   -3.9010 C.3      12 GLL5        0.0000 
     26 CA         16.4190  -22.6065   -5.2620 C.3       4 GLC5        0.0000 
     27 CA         18.3965  -28.3870   -1.9925 C.3       4 GLC5        0.0000 
     28 CA         17.0640  -27.9660   -0.8890 C.3      12 GLL5        0.0000 
     29 CA         19.7290  -28.8080   -3.0960 C.3       8 GLP5        0.0000 
     30 CA         15.0295  -27.0750    0.4860 C.3       4 GLC5        0.0000 
     31 CA         17.1740  -27.4270    0.5210 C.3      12 GLL5        0.0000 
     32 CA         12.8850  -26.7230    0.4510 C.3       8 GLP5        0.0000 
     33 CA         16.2480  -28.1130    2.3010 C.3       4 GLC5        0.0000 
     34 CA         15.3220  -28.7990    4.0810 C.3       8 GLP5        0.0000 
     35 O          16.3925  -25.7855    1.8655 O.2       1 ALC1        0.0000 
     36 O          16.4270  -26.2320    0.5090 O.2       9 ALL1        0.0000 
     37 O          16.3580  -25.3390    3.2220 O.2       5 ALP1        0.0000 
     38 N          18.1670  -30.2445    2.1585 N.am      2 SEC2        0.0000 
     39 N          19.0450  -29.0660    2.0740 N.am     10 SEL2        0.0000 
     40 CA         22.7355  -27.8285    0.4515 C.3       4 GLC5        0.0000 
     41 CA         21.0070  -28.1030    1.0540 C.3      12 GLL5        0.0000 
     42 CA         24.4640  -27.5540   -0.1510 C.3       8 GLP5        0.0000 
     43 NZ         19.5920  -27.2205    4.9985 N.4       3 LYC4        0.0000 
     44 NZ         20.4040  -27.9460    4.0970 N.4      11 LYL4        0.0000 
     45 NZ         18.7660  -25.1550    5.8770 N.4       7 LYP4        0.0000 
     46 N          19.5920  -27.2205    4.9985 N.am      2 SEC2        0.0000 
     47 N          20.4040  -27.9460    4.0970 N.am     10 SEL2        0.0000 
     48 N          18.7800  -26.4950    5.9000 N.am      6 SEP2        0.0000 
     49 NZ         20.7360  -25.2235    4.6235 N.4       3 LYC4        0.0000 
     50 NZ         21.8620  -25.9710    4.1370 N.4      11 LYL4        0.0000 
     51 N          20.7360  -25.2235    4.6235 N.am      2 SEC2        0.0000 
     52 N          21.8620  -25.9710    4.1370 N.am     10 SEL2        0.0000 
     53 N          19.6100  -24.4760    5.1100 N.am      6 SEP2        0.0000 
     54 CA         11.8985  -26.5397   -3.1408 C.3       4 GLC5        0.0000 
     55 CA         14.0830  -27.2510   -3.1030 C.3      12 GLL5        0.0000 
     56 CA          9.9310  -26.2930   -2.7170 C.3       8 GLP5        0.0000 
     57 CA         13.7937  -26.9445   -1.1688 C.3       4 GLC5        0.0000 
     58 CA         13.6678  -23.3230   -3.6452 C.3       4 GLC5        0.0000 
     59 CA         13.1950  -21.9550   -2.4780 C.3       8 GLP5        0.0000 
     60 CA         13.0841  -25.9292   -6.1028 C.3       4 GLC5        0.0000 
     61 CA         12.2210  -26.8890   -7.4690 C.3       8 GLP5        0.0000 
     62 CA         14.6395  -23.1850   -3.1267 C.3       4 GLC5        0.0000 
     63 CA         15.6270  -24.9950   -3.6500 C.3      12 GLL5        0.0000 
     64 CA         17.9488  -25.2420   -3.2681 C.3       4 GLC5        0.0000 
     65 CA         16.0770  -25.9430   -2.7270 C.3      12 GLL5        0.0000 
     66 CA         19.8170  -25.3050   -3.2850 C.3       8 GLP5        0.0000 
     67 CA         20.9200  -29.8087    1.8170 C.3       4 GLC5        0.0000 
     68 CA         19.5150  -28.3900    0.9400 C.3      12 GLL5        0.0000 
     69 CA         21.5790  -31.3710    2.6370 C.3       8 GLP5        0.0000 
     70 CA         19.8893  -28.3661   -1.0715 C.3       4 GLC5        0.0000 
     71 CA         16.0345  -27.1807   -4.3824 C.3       4 GLC5        0.0000 
     72 CA         16.8460  -28.1600   -5.6610 C.3       8 GLP5        0.0000 
@<TRIPOS>BOND
@<TRIPOS>SUBSTRUCTURE
     1 ALC1        6 GROUP        1 X    ALC  0     ROOT ALC X 1
     2 SEC2        1 GROUP        1 X    SEC  0     **** SEC X 2
     3 LYC4       43 GROUP        1 X    LYC  0     **** LYC X 4
     4 GLC5       12 GROUP        1 X    GLC  0     **** GLC X 6
     5 ALP1        8 GROUP        1 Y    ALP  0     ROOT ALP Y 8
     6 SEP2        3 GROUP        1 Y    SEP  0     **** SEP Y 9
     7 LYP4       45 GROUP        1 Y    LYP  0     **** LYP Y 11
     8 GLP5       14 GROUP        1 Y    GLP  0     **** GLP Y 13
     9 ALL1        7 GROUP        1 Z    ALL  0     ROOT ALL Z 15
    10 SEL2        2 GROUP        1 Z    SEL  0     **** SEL Z 16
    11 LYL4       44 GROUP        1 Z    LYL  0     **** LYL Z 18
    12 GLL5       13 GROUP        1 Z    GLL  0     **** GLL Z 20
@<TRIPOS>SET

