#    Name: 3t50_FMN_2_ligand
#    Modification time : Mon Mar 24 19:06:39 2014

@<TRIPOS>MOLECULE
3t50_FMN_2_ligand
   50    52     1     0     0
SMALL
NO_CHARGES


@<TRIPOS>ATOM
      1 N1         15.3780  -30.0900   -0.4200 N.2       1 FMN201      0.0000 
      2 C2         14.6220  -31.2000   -0.1550 C.2       1 FMN201      0.0000 
      3 O2         15.0530  -32.0390    0.6370 O.2       1 FMN201      0.0000 
      4 N3         13.3800  -31.3950   -0.7730 N.am      1 FMN201      0.0000 
      5 C4         12.9550  -30.4550   -1.6760 C.2       1 FMN201      0.0000 
      6 O4         11.8480  -30.6240   -2.1910 O.2       1 FMN201      0.0000 
      7 C4A        13.7330  -29.3200   -1.9470 C.2       1 FMN201      0.0000 
      8 N5         13.3070  -28.3630   -2.8360 N.2       1 FMN201      0.0000 
      9 C5A        14.0830  -27.2510   -3.1030 C.ar      1 FMN201      0.0000 
     10 C6         13.6490  -26.3220   -4.0260 C.ar      1 FMN201      0.0000 
     11 C7         14.4220  -25.2080   -4.3300 C.ar      1 FMN201      0.0000 
     12 C7M        13.8590  -24.1740   -5.2950 C.3       1 FMN201      0.0000 
     13 C8         15.6270  -24.9950   -3.6500 C.ar      1 FMN201      0.0000 
     14 C8M        16.5410  -23.8350   -3.9010 C.3       1 FMN201      0.0000 
     15 C9         16.0770  -25.9430   -2.7270 C.ar      1 FMN201      0.0000 
     16 C9A        15.3220  -27.0810   -2.4740 C.ar      1 FMN201      0.0000 
     17 N10        15.7230  -28.0290   -1.5300 N.pl3     1 FMN201      0.0000 
     18 C10        14.9400  -29.1420   -1.3030 C.2       1 FMN201      0.0000 
     19 C1'        17.0640  -27.9660   -0.8890 C.3       1 FMN201      0.0000 
     20 C2'        17.1740  -27.4270    0.5210 C.3       1 FMN201      0.0000 
     21 O2'        16.4270  -26.2320    0.5090 O.3       1 FMN201      0.0000 
     22 C3'        18.6690  -27.1010    0.7640 C.3       1 FMN201      0.0000 
     23 O3'        19.1990  -26.3280   -0.2850 O.3       1 FMN201      0.0000 
     24 C4'        19.5150  -28.3900    0.9400 C.3       1 FMN201      0.0000 
     25 O4'        19.0450  -29.0660    2.0740 O.3       1 FMN201      0.0000 
     26 C5'        21.0070  -28.1030    1.0540 C.3       1 FMN201      0.0000 
     27 O5'        21.3840  -27.0290    1.9320 O.3       1 FMN201      0.0000 
     28 P          21.6010  -27.3220    3.5140 P.3       1 FMN201      0.0000 
     29 O1P        20.4040  -27.9460    4.0970 O.co2     1 FMN201      0.0000 
     30 O2P        21.8620  -25.9710    4.1370 O.co2     1 FMN201      0.0000 
     31 O3P        22.7900  -28.2700    3.6860 O.co2     1 FMN201      0.0000 
     32 H          12.8210  -32.2136   -0.5491 H         1 FMN201      0.0000 
     33 H          12.7376  -26.4523   -4.5000 H         1 FMN201      0.0000 
     34 H          16.9682  -25.7944   -2.2368 H         1 FMN201      0.0000 
     35 H          17.7568  -27.3623   -1.5472 H         1 FMN201      0.0000 
     36 H          17.5263  -28.9974   -0.9042 H         1 FMN201      0.0000 
     37 H          16.8470  -28.1342    1.1997 H         1 FMN201      0.0000 
     38 H          18.7274  -26.5580    1.7165 H         1 FMN201      0.0000 
     39 H          19.3535  -28.9916    0.0390 H         1 FMN201      0.0000 
     40 H          21.3906  -27.9169    0.0144 H         1 FMN201      0.0000 
     41 H          21.5075  -29.0604    1.3630 H         1 FMN201      0.0000 
     42 H          14.4943  -23.4152   -5.4385 H         1 FMN201      0.0000 
     43 H          13.6675  -24.5697   -6.1932 H         1 FMN201      0.0000 
     44 H          13.0031  -23.7803   -4.9597 H         1 FMN201      0.0000 
     45 H          17.3484  -23.8640   -3.3117 H         1 FMN201      0.0000 
     46 H          16.8682  -23.8176   -4.8458 H         1 FMN201      0.0000 
     47 H          16.0862  -22.9605   -3.7322 H         1 FMN201      0.0000 
     48 H          16.7683  -25.7058    1.2879 H         1 FMN201      0.0000 
     49 H          18.8037  -25.4179   -0.1609 H         1 FMN201      0.0000 
     50 H          19.5729  -28.6910    2.8360 H         1 FMN201      0.0000 
@<TRIPOS>BOND
     1    2    1 1    
     2   18    1 2    
     3    3    2 2    
     4    4    2 am   
     5    5    4 am   
     6   32    4 1    
     7    6    5 2    
     8    7    5 1    
     9    8    7 2    
    10   18    7 1    
    11    9    8 1    
    12   10    9 ar   
    13   16    9 ar   
    14   11   10 ar   
    15   33   10 1    
    16   12   11 1    
    17   13   11 ar   
    18   42   12 1    
    19   43   12 1    
    20   44   12 1    
    21   14   13 1    
    22   15   13 ar   
    23   45   14 1    
    24   46   14 1    
    25   47   14 1    
    26   16   15 ar   
    27   34   15 1    
    28   17   16 1    
    29   18   17 1    
    30   19   17 1    
    31   20   19 1    
    32   35   19 1    
    33   36   19 1    
    34   21   20 1    
    35   22   20 1    
    36   37   20 1    
    37   48   21 1    
    38   23   22 1    
    39   24   22 1    
    40   38   22 1    
    41   49   23 1    
    42   25   24 1    
    43   26   24 1    
    44   39   24 1    
    45   50   25 1    
    46   27   26 1    
    47   40   26 1    
    48   41   26 1    
    49   28   27 1    
    50   29   28 ar   
    51   30   28 ar   
    52   31   28 ar   
@<TRIPOS>SUBSTRUCTURE
     1 FMN201      1 GROUP   
@<TRIPOS>SET

