#    Name: 4f73_ALA_ARG_VAL_LEU_1_INTS_M
#    Modification time : Mon Mar 24 19:00:42 2014

@<TRIPOS>MOLECULE
4f73_ALA_ARG_VAL_LEU_1_INTS_M
   52     0     9     0     0
SMALL
NO_CHARGES


@<TRIPOS>ATOM
      1 N          23.2265    2.1445   24.4725 N.am      2 SEC2        0.0000 
      2 N          23.1480    3.5350   24.0380 N.am      8 SEL2        0.0000 
      3 N          23.3050    0.7540   24.9070 N.am      5 SEP2        0.0000 
      4 CA         26.4660    3.7565   23.8755 C.3       3 GLC5        0.0000 
      5 CA         25.6560    5.1820   23.7590 C.3       9 GLL5        0.0000 
      6 CA         27.2760    2.3310   23.9920 C.3       6 GLP5        0.0000 
      7 O          22.4805    6.2705   21.5175 O.2       1 ALC1        0.0000 
      8 O          22.5490    4.9080   22.3250 O.2       7 ALL1        0.0000 
      9 O          22.4120    7.6330   20.7100 O.2       4 ALP1        0.0000 
     10 N          22.9500    5.0220   18.4140 N.am      2 SEC2        0.0000 
     11 N          22.2200    4.2970   19.4830 N.am      8 SEL2        0.0000 
     12 N          23.6800    5.7470   17.3450 N.am      5 SEP2        0.0000 
     13 O          21.9565    1.4400   21.3990 O.2       1 ALC1        0.0000 
     14 O          22.0360    2.2060   20.2920 O.2       7 ALL1        0.0000 
     15 O          21.8770    0.6740   22.5060 O.2       4 ALP1        0.0000 
     16 CA         22.8005    2.7485   17.4510 C.3       3 GLC5        0.0000 
     17 CA         22.5130    1.5780   19.0750 C.3       9 GLL5        0.0000 
     18 CA         23.0880    3.9190   15.8270 C.3       6 GLP5        0.0000 
     19 CA         26.4340    0.3095   18.4900 C.3       3 GLC5        0.0000 
     20 CA         24.3830    0.2570   18.1040 C.3       9 GLL5        0.0000 
     21 CA         28.4850    0.3620   18.8760 C.3       6 GLP5        0.0000 
     22 CA         26.4965    3.5655   19.4770 C.3       3 GLC5        0.0000 
     23 CA         24.8640    2.2850   19.5430 C.3       9 GLL5        0.0000 
     24 CA         28.1290    4.8460   19.4110 C.3       6 GLP5        0.0000 
     25 CA         26.6745    1.3235   19.2095 C.3       3 GLC5        0.0000 
     26 CA         26.0245    1.0845   20.8640 C.3       3 GLC5        0.0000 
     27 CA         27.1850   -0.1160   22.1850 C.3       6 GLP5        0.0000 
     28 O          20.4710    2.3870   16.9635 O.2       1 ALC1        0.0000 
     29 O          20.5560    1.0340   17.7520 O.2       7 ALL1        0.0000 
     30 O          20.3860    3.7400   16.1750 O.2       4 ALP1        0.0000 
     31 CA         18.8145   -0.7920   20.5240 C.3       3 GLC5        0.0000 
     32 CA         17.2380    0.0690   19.1770 C.3       9 GLL5        0.0000 
     33 CA         20.3910   -1.6530   21.8710 C.3       6 GLP5        0.0000 
     34 CA         17.1955   -1.6760   20.1480 C.3       3 GLC5        0.0000 
     35 CA         17.1530   -3.4210   21.1190 C.3       6 GLP5        0.0000 
     36 N          22.1200    0.0930   14.4505 N.am      2 SEC2        0.0000 
     37 N          21.1630   -0.0060   15.3370 N.am      8 SEL2        0.0000 
     38 N          23.0770    0.1920   13.5640 N.am      5 SEP2        0.0000 
     39 CA         25.0038    0.0420   17.3010 C.3       3 GLC5        0.0000 
     40 CA         25.8500   -0.5820   15.9010 C.3       6 GLP5        0.0000 
     41 CA         24.7047   -0.8960   18.9730 C.3       3 GLC5        0.0000 
     42 CA         25.2520   -2.4580   19.2450 C.3       6 GLP5        0.0000 
     43 CA         24.3374    2.1833   17.2965 C.3       3 GLC5        0.0000 
     44 CA         24.1640    2.8910   15.4710 C.3       6 GLP5        0.0000 
     45 CA         17.2200    2.9908   16.7725 C.3       3 GLC5        0.0000 
     46 CA         18.2140    0.9770   17.0400 C.3       9 GLL5        0.0000 
     47 CA         16.5690    4.8290   15.8400 C.3       6 GLP5        0.0000 
     48 CA         16.0427    0.2094   17.5850 C.3       3 GLC5        0.0000 
     49 CA         14.5310   -0.1920   16.7290 C.3       6 GLP5        0.0000 
     50 CA         16.0643    2.2954   19.0679 C.3       3 GLC5        0.0000 
     51 CA         17.5280    1.3280   18.3700 C.3       9 GLL5        0.0000 
     52 CA         14.2790    3.0830   19.1360 C.3       6 GLP5        0.0000 
@<TRIPOS>BOND
@<TRIPOS>SUBSTRUCTURE
     1 ALC1        7 GROUP        1 X    ALC  0     ROOT ALC X 1
     2 SEC2        1 GROUP        1 X    SEC  0     **** SEC X 2
     3 GLC5        4 GROUP        1 X    GLC  0     **** GLC X 6
     4 ALP1        9 GROUP        1 Y    ALP  0     ROOT ALP Y 8
     5 SEP2        3 GROUP        1 Y    SEP  0     **** SEP Y 9
     6 GLP5        6 GROUP        1 Y    GLP  0     **** GLP Y 13
     7 ALL1        8 GROUP        1 Z    ALL  0     ROOT ALL Z 15
     8 SEL2        2 GROUP        1 Z    SEL  0     **** SEL Z 16
     9 GLL5        5 GROUP        1 Z    GLL  0     **** GLL Z 20
@<TRIPOS>SET

