#    Name: 4f73_ALA_ARG_VAL_LEU_1_ligand
#    Modification time : Mon Mar 24 19:00:42 2014

@<TRIPOS>MOLECULE
4f73_ALA_ARG_VAL_LEU_1_ligand
   59    58     4     0     0
SMALL
NO_CHARGES


@<TRIPOS>ATOM
      1 N          23.9500    6.0710   25.2770 N.4       1 ALA2        0.0000
      2 CA         24.2480    5.6790   23.8640 C.3       1 ALA2        0.0000
      3 C          23.2680    4.6000   23.4060 C.2       1 ALA2        0.0000
      4 O          23.1480    3.5350   24.0380 O.2       1 ALA2        0.0000
      5 CB         25.6560    5.1820   23.7590 C.3       1 ALA2        0.0000
      6 HA         24.1259    6.5412   23.2240 H         1 ALA2        0.0000
      7 H          24.0300    5.2949   25.9025 H         1 ALA2        0.0000
      8 H          24.5757    6.7783   25.6060 H         1 ALA2        0.0000
      9 H          23.0225    6.4317   25.3746 H         1 ALA2        0.0000
     10 HB1        26.3178    5.8813   24.0290 H         1 ALA2        0.0000
     11 HB2        25.8140    4.3872   24.3449 H         1 ALA2        0.0000
     12 HB3        25.8843    4.9075   22.8249 H         1 ALA2        0.0000
     13 N          22.5490    4.9080   22.3250 N.am      2 ARG3        0.0000
     14 CA         21.5200    4.0290   21.7820 C.3       2 ARG3        0.0000
     15 C          21.9690    3.5240   20.4120 C.2       2 ARG3        0.0000
     16 O          22.2200    4.2970   19.4830 O.2       2 ARG3        0.0000
     17 CB         20.1850    4.7640   21.6740 C.3       2 ARG3        0.0000
     18 HNCA       22.6909    5.8082   21.8072 H         2 ARG3        0.0000
     19 HA         21.3855    3.1698   22.4267 H         2 ARG3        0.0000
     20 HB2        19.8650    5.0857   22.5651 H         2 ARG3        0.0000
     21 HB3        20.2492    5.5651   21.0790 H         2 ARG3        0.0000
     22 H          19.4672    4.1772   21.2991 H         2 ARG3        0.0000
     23 N          22.0360    2.2060   20.2920 N.am      3 VAL4        0.0000
     24 CA         22.5130    1.5780   19.0750 C.3       3 VAL4        0.0000
     25 C          21.5220    0.5340   18.5200 C.2       3 VAL4        0.0000
     26 O          21.6360   -0.6750   18.7600 O.2       3 VAL4        0.0000
     27 CB         23.9320    1.0750   19.2980 C.3       3 VAL4        0.0000
     28 CG1        24.3830    0.2570   18.1040 C.3       3 VAL4        0.0000
     29 CG2        24.8640    2.2850   19.5430 C.3       3 VAL4        0.0000
     30 HNCA       21.7522    1.5599   21.0582 H         3 VAL4        0.0000
     31 HA         22.5908    2.3851   18.2918 H         3 VAL4        0.0000
     32 HB         23.9420    0.4570   20.1811 H         3 VAL4        0.0000
     33 H          25.3136   -0.0896   18.2214 H         3 VAL4        0.0000
     34 H          23.7921   -0.5353   17.9521 H         3 VAL4        0.0000
     35 H          24.3747    0.7947   17.2609 H         3 VAL4        0.0000
     36 HG21       25.8108    2.0002   19.6928 H         3 VAL4        0.0000
     37 HG22       24.8668    2.9149   18.7663 H         3 VAL4        0.0000
     38 HG23       24.5857    2.8115   20.3464 H         3 VAL4        0.0000
     39 N          20.5560    1.0340   17.7520 N.am      4 LEU5        0.0000
     40 CA         19.5360    0.2080   17.0940 C.3       4 LEU5        0.0000
     41 C          19.9950   -0.2240   15.6880 C.2       4 LEU5        0.0000
     42 O          19.2680   -0.8250   14.8750 O.2       4 LEU5        0.0000
     43 CB         18.2140    0.9770   17.0400 C.3       4 LEU5        0.0000
     44 CG         17.5280    1.3280   18.3700 C.3       4 LEU5        0.0000
     45 CD1        17.2380    0.0690   19.1770 C.3       4 LEU5        0.0000
     46 CD2        18.3160    2.3170   19.2260 C.3       4 LEU5        0.0000
     47 OXT        21.1630   -0.0060   15.3370 O.3       4 LEU5        0.0000
     48 HNCA       20.4712    2.0666   17.5729 H         4 LEU5        0.0000
     49 HA         19.3680   -0.6966   17.6810 H         4 LEU5        0.0000
     50 HB2        17.4898    0.3944   16.4158 H         4 LEU5        0.0000
     51 HB3        18.3788    1.9264   16.4700 H         4 LEU5        0.0000
     52 HG         16.5557    1.7902   18.1335 H         4 LEU5        0.0000
     53 HD11       18.0742   -0.4364   19.3900 H         4 LEU5        0.0000
     54 HD12       16.7933    0.2800   20.0475 H         4 LEU5        0.0000
     55 HD13       16.6344   -0.5575   18.6838 H         4 LEU5        0.0000
     56 HD21       19.2200    1.9629   19.4655 H         4 LEU5        0.0000
     57 HD22       18.4577    3.1867   18.7532 H         4 LEU5        0.0000
     58 HD23       17.8452    2.5230   20.0838 H         4 LEU5        0.0000
     59 H          21.6661    0.1404   16.1888 H         4 LEU5        0.0000
@<TRIPOS>BOND
     1    2    1 1
     2    7    1 1
     3    8    1 1
     4    9    1 1
     5    3    2 1
     6    5    2 1
     7    6    2 1
     8    4    3 2
     9   10    5 1
    10   11    5 1
    11   12    5 1
    12   14   13 1
    13   18   13 1
    14   15   14 1
    15   17   14 1
    16   19   14 1
    17   16   15 2
    18   20   17 1
    19   21   17 1
    20   22   17 1
    21   24   23 1
    22   30   23 1
    23   25   24 1
    24   27   24 1
    25   31   24 1
    26   26   25 2
    27   28   27 1
    28   29   27 1
    29   32   27 1
    30   33   28 1
    31   34   28 1
    32   35   28 1
    33   36   29 1
    34   37   29 1
    35   38   29 1
    36   40   39 1
    37   48   39 1
    38   41   40 1
    39   43   40 1
    40   49   40 1
    41   42   41 2
    42   47   41 1
    43   44   43 1
    44   50   43 1
    45   51   43 1
    46   45   44 1
    47   46   44 1
    48   52   44 1
    49   53   45 1
    50   54   45 1
    51   55   45 1
    52   56   46 1
    53   57   46 1
    54   58   46 1
    55   59   47 1
    56   13    3 am
    57   23   15 am
    58   39   25 am
@<TRIPOS>SUBSTRUCTURE
     1 ALA2        1 RESIDUE
     2 ARG3       13 RESIDUE
     3 VAL4       23 RESIDUE
     4 LEU5       39 RESIDUE
@<TRIPOS>SET

