#    Name: 3cvk_N34_2_INTS_M
#    Modification time : Mon Mar 24 22:22:40 2014

@<TRIPOS>MOLECULE
3cvk_N34_2_INTS_M
   64     0     9     0     0
SMALL
NO_CHARGES


@<TRIPOS>ATOM
      1 CA         54.4750   -9.9695   56.2775 C.3       3 GLC5        0.0000 
      2 CA         54.8190   -8.7100   54.7550 C.3       9 GLL5        0.0000 
      3 CA         54.1310  -11.2290   57.8000 C.3       6 GLP5        0.0000 
      4 CA         49.3430  -11.6655   52.5500 C.3       3 GLC5        0.0000 
      5 CA         48.8340  -11.0820   54.2830 C.3       9 GLL5        0.0000 
      6 CA         49.8520  -12.2490   50.8170 C.3       6 GLP5        0.0000 
      7 CA         49.3390  -12.8330   54.7460 C.3       3 GLC5        0.0000 
      8 CA         49.8440  -14.5840   55.2090 C.3       6 GLP5        0.0000 
      9 CA         47.1745  -11.4025   55.6370 C.3       3 GLC5        0.0000 
     10 CA         45.5150  -11.7230   56.9910 C.3       6 GLP5        0.0000 
     11 CA         49.8030  -12.4970   55.8645 C.3       3 GLC5        0.0000 
     12 CA         49.7620  -10.4100   56.5200 C.3       9 GLL5        0.0000 
     13 CA         48.4425  -11.7235   57.4750 C.3       3 GLC5        0.0000 
     14 CA         47.1230  -13.0370   58.4300 C.3       6 GLP5        0.0000 
     15 CA         50.9380  -11.4460   57.3685 C.3       3 GLC5        0.0000 
     16 CA         52.1140  -12.4820   58.2170 C.3       6 GLP5        0.0000 
     17 CA         52.4295  -10.9735   55.8075 C.3       3 GLC5        0.0000 
     18 CA         51.7490   -9.8970   54.2720 C.3       9 GLL5        0.0000 
     19 CA         53.1100  -12.0500   57.3430 C.3       6 GLP5        0.0000 
     20 N          53.5920   -8.3550   40.1900 N.am      2 SEC2        0.0000 
     21 N          53.3260   -8.3950   41.5790 N.am      8 SEL2        0.0000 
     22 N          53.8580   -8.3150   38.8010 N.am      5 SEP2        0.0000 
     23 N          52.1195   -9.4410   41.6135 N.am      2 SEC2        0.0000 
     24 N          50.9130  -10.4870   41.6480 N.am      5 SEP2        0.0000 
     25 CA         55.8185   -6.0820   43.6140 C.3       3 GLC5        0.0000 
     26 CA         55.6060   -7.7510   42.6190 C.3       9 GLL5        0.0000 
     27 CA         56.0310   -4.4130   44.6090 C.3       6 GLP5        0.0000 
     28 O          53.3640  -10.2785   43.4680 O.2       1 ALC1        0.0000 
     29 O          53.6690   -9.0540   44.0030 O.2       7 ALL1        0.0000 
     30 O          53.0590  -11.5030   42.9330 O.2       4 ALP1        0.0000 
     31 CA         51.3295  -11.2250   45.8855 C.3       3 GLC5        0.0000 
     32 CA         52.6710   -9.5970   46.1000 C.3       9 GLL5        0.0000 
     33 CA         49.9880  -12.8530   45.6710 C.3       6 GLP5        0.0000 
     34 CA         55.0680   -6.0280   45.3095 C.3       3 GLC5        0.0000 
     35 CA         54.1050   -7.6430   46.0100 C.3       9 GLL5        0.0000 
     36 CA         50.8310  -10.2890   48.4845 C.3       3 GLC5        0.0000 
     37 CA         52.4470   -9.3820   47.4570 C.3       9 GLL5        0.0000 
     38 CA         49.2150  -11.1960   49.5120 C.3       6 GLP5        0.0000 
     39 CA         51.8255   -6.1990   53.0230 C.3       3 GLC5        0.0000 
     40 CA         53.6270   -6.7980   54.0930 C.3       9 GLL5        0.0000 
     41 CA         50.0240   -5.6000   51.9530 C.3       6 GLP5        0.0000 
     42 N          54.0300   -4.2025   51.9360 N.am      2 SEC2        0.0000 
     43 N          54.4670   -5.4960   52.2580 N.am      8 SEL2        0.0000 
     44 N          53.5930   -2.9090   51.6140 N.am      5 SEP2        0.0000 
     45 CA         50.3105   -7.2430   55.2860 C.3       3 GLC5        0.0000 
     46 CA         50.4360   -9.1370   54.4780 C.3       9 GLL5        0.0000 
     47 CA         50.1850   -5.3490   56.0940 C.3       6 GLP5        0.0000 
     48 CA         50.2300   -7.3685   53.2155 C.3       3 GLC5        0.0000 
     49 CA         47.0170   -8.0570   56.7370 C.3       3 GLC5        0.0000 
     50 CA         48.1080   -8.9260   55.4250 C.3       9 GLL5        0.0000 
     51 CA         45.9260   -7.1880   58.0490 C.3       6 GLP5        0.0000 
     52 CA         46.8115  -10.3245   56.2080 C.3       3 GLC5        0.0000 
     53 CA         49.1465   -7.1375   55.7595 C.3       3 GLC5        0.0000 
     54 CA         52.2470   -5.9568   51.7052 C.3       3 GLC5        0.0000 
     55 CA         53.8150   -6.6620   52.5970 C.3       9 GLL5        0.0000 
     56 CA         50.9060   -4.7830   51.2490 C.3       6 GLP5        0.0000 
     57 CA         50.4430   -9.3283   46.7503 C.3       3 GLC5        0.0000 
     58 CA         48.3270   -9.1670   46.7220 C.3       6 GLP5        0.0000 
     59 CA         53.4889   -6.2848   56.0580 C.3       3 GLC5        0.0000 
     60 CA         54.8240   -6.3100   54.9440 C.3       9 GLL5        0.0000 
     61 CA         52.5860   -5.7030   57.4570 C.3       6 GLP5        0.0000 
     62 CA         46.9587  -10.0062   54.2171 C.3       3 GLC5        0.0000 
     63 CA         49.2760   -9.8920   55.1560 C.3       9 GLL5        0.0000 
     64 CA         45.3360  -10.3060   53.3620 C.3       6 GLP5        0.0000 
@<TRIPOS>BOND
@<TRIPOS>SUBSTRUCTURE
     1 ALC1       28 GROUP        1 X    ALC  0     ROOT ALC X 1
     2 SEC2       20 GROUP        1 X    SEC  0     **** SEC X 2
     3 GLC5        1 GROUP        1 X    GLC  0     **** GLC X 6
     4 ALP1       30 GROUP        1 Y    ALP  0     ROOT ALP Y 8
     5 SEP2       22 GROUP        1 Y    SEP  0     **** SEP Y 9
     6 GLP5        3 GROUP        1 Y    GLP  0     **** GLP Y 13
     7 ALL1       29 GROUP        1 Z    ALL  0     ROOT ALL Z 15
     8 SEL2       21 GROUP        1 Z    SEL  0     **** SEL Z 16
     9 GLL5        2 GROUP        1 Z    GLL  0     **** GLL Z 20
@<TRIPOS>SET

