#    Name: 3cvk_N34_2_ligand
#    Modification time : Mon Mar 24 22:22:40 2014

@<TRIPOS>MOLECULE
3cvk_N34_2_ligand
   62    65     1     0     0
SMALL
NO_CHARGES


@<TRIPOS>ATOM
      1 C4         53.0390   -8.2940   48.1130 C.ar      1 N34579      0.0000 
      2 C5         53.4860   -8.7380   45.3830 C.ar      1 N34579      0.0000 
      3 C6         53.8700   -7.4380   47.3800 C.ar      1 N34579      0.0000 
      4 C7         53.3610   -7.5990   51.7260 C.2       1 N34579      0.0000 
      5 C8         53.8150   -6.6620   52.5970 C.2       1 N34579      0.0000 
      6 C10        52.6630   -8.8190   52.2740 C.2       1 N34579      0.0000 
      7 C13        54.8190   -8.7100   54.7550 C.3       1 N34579      0.0000 
      8 C15        48.8340  -11.0820   54.2830 C.3       1 N34579      0.0000 
      9 C17        49.7620  -10.4100   56.5200 C.3       1 N34579      0.0000 
     10 C20        51.7490   -9.8970   54.2720 C.3       1 N34579      0.0000 
     11 C21        49.2760   -9.8920   55.1560 C.3       1 N34579      0.0000 
     12 O31        53.3930   -6.5370   43.2680 O.2       1 N34579      0.0000 
     13 S34        53.8420   -7.8420   42.8210 S.o2      1 N34579      0.0000 
     14 O30        53.3260   -8.3950   41.5790 O.2       1 N34579      0.0000 
     15 C18        55.6060   -7.7510   42.6190 C.3       1 N34579      0.0000 
     16 N26        53.6690   -9.0540   44.0030 N.pl3     1 N34579      0.0000 
     17 C2         52.6710   -9.5970   46.1000 C.ar      1 N34579      0.0000 
     18 C3         54.1050   -7.6430   46.0100 C.ar      1 N34579      0.0000 
     19 S33        54.5830   -6.0520   48.2040 S.o2      1 N34579      0.0000 
     20 O28        55.9850   -5.9700   47.8390 O.2       1 N34579      0.0000 
     21 O29        53.6750   -4.9660   47.8880 O.2       1 N34579      0.0000 
     22 N23        54.4530   -6.5280   49.8210 N.pl3     1 N34579      0.0000 
     23 C9         53.4930   -7.4720   50.2640 C.2       1 N34579      0.0000 
     24 N22        52.7480   -8.1670   49.4810 N.2       1 N34579      0.0000 
     25 C1         52.4470   -9.3820   47.4570 C.ar      1 N34579      0.0000 
     26 O27        52.0980   -9.6260   51.5170 O.2       1 N34579      0.0000 
     27 N24        52.6660   -8.9610   53.6600 N.am      1 N34579      0.0000 
     28 N25        53.4640   -8.1930   54.5280 N.3       1 N34579      0.0000 
     29 C11        55.4890   -7.5600   55.5060 C.3       1 N34579      0.0000 
     30 C14        53.6270   -6.7980   54.0930 C.3       1 N34579      0.0000 
     31 C12        54.8240   -6.3100   54.9440 C.3       1 N34579      0.0000 
     32 O32        54.4670   -5.4960   52.2580 O.co2     1 N34579      0.0000 
     33 C19        50.4360   -9.1370   54.4780 C.3       1 N34579      0.0000 
     34 C16        48.1080   -8.9260   55.4250 C.3       1 N34579      0.0000 
     35 H          55.3324   -8.8692   53.8387 H         1 N34579      0.0000 
     36 H          54.8071   -9.5693   55.3794 H         1 N34579      0.0000 
     37 H          52.1020  -10.2305   55.2359 H         1 N34579      0.0000 
     38 H          51.5536  -10.7428   53.6306 H         1 N34579      0.0000 
     39 H          53.7120   -9.9636   43.6109 H         1 N34579      0.0000 
     40 H          52.2267  -10.4000   45.6305 H         1 N34579      0.0000 
     41 H          54.7050   -7.0179   45.4876 H         1 N34579      0.0000 
     42 H          55.1264   -6.0645   50.3987 H         1 N34579      0.0000 
     43 H          51.8419  -10.0253   47.9870 H         1 N34579      0.0000 
     44 H          56.5283   -7.5464   55.2870 H         1 N34579      0.0000 
     45 H          55.2839   -7.6428   56.5449 H         1 N34579      0.0000 
     46 H          52.7612   -6.2320   54.4206 H         1 N34579      0.0000 
     47 H          55.5078   -5.7822   54.3148 H         1 N34579      0.0000 
     48 H          54.4597   -5.6985   55.7411 H         1 N34579      0.0000 
     49 H          50.0793   -8.7668   53.4868 H         1 N34579      0.0000 
     50 H          50.6472   -8.2155   55.0722 H         1 N34579      0.0000 
     51 H          49.5825  -11.7267   54.1274 H         1 N34579      0.0000 
     52 H          48.0877  -11.5959   54.7060 H         1 N34579      0.0000 
     53 H          48.5122  -10.7840   53.3843 H         1 N34579      0.0000 
     54 H          50.5353  -11.0369   56.4251 H         1 N34579      0.0000 
     55 H          50.0606   -9.6642   57.1156 H         1 N34579      0.0000 
     56 H          49.0422  -10.9042   57.0075 H         1 N34579      0.0000 
     57 H          56.0658   -7.5112   43.4740 H         1 N34579      0.0000 
     58 H          55.9903   -8.6223   42.3139 H         1 N34579      0.0000 
     59 H          55.8673   -7.0625   41.9425 H         1 N34579      0.0000 
     60 H          48.3899   -8.1507   55.9901 H         1 N34579      0.0000 
     61 H          47.7342   -8.5501   54.5771 H         1 N34579      0.0000 
     62 H          47.3546   -9.3781   55.9024 H         1 N34579      0.0000 
@<TRIPOS>BOND
     1    3    1 ar   
     2   24    1 1    
     3   25    1 ar   
     4   16    2 1    
     5   17    2 ar   
     6   18    2 ar   
     7   18    3 ar   
     8   19    3 1    
     9    5    4 2    
    10    6    4 1    
    11   23    4 1    
    12   30    5 1    
    13   32    5 1    
    14   26    6 2    
    15   27    6 am   
    16   28    7 1    
    17   29    7 1    
    18   35    7 1    
    19   36    7 1    
    20   11    8 1    
    21   51    8 1    
    22   52    8 1    
    23   53    8 1    
    24   11    9 1    
    25   54    9 1    
    26   55    9 1    
    27   56    9 1    
    28   27   10 1    
    29   33   10 1    
    30   37   10 1    
    31   38   10 1    
    32   33   11 1    
    33   34   11 1    
    34   13   12 2    
    35   14   13 2    
    36   15   13 1    
    37   16   13 1    
    38   57   15 1    
    39   58   15 1    
    40   59   15 1    
    41   39   16 1    
    42   25   17 ar   
    43   40   17 1    
    44   41   18 1    
    45   20   19 2    
    46   21   19 2    
    47   22   19 1    
    48   23   22 1    
    49   42   22 1    
    50   24   23 2    
    51   43   25 1    
    52   28   27 1    
    53   30   28 1    
    54   31   29 1    
    55   44   29 1    
    56   45   29 1    
    57   31   30 1    
    58   46   30 1    
    59   47   31 1    
    60   48   31 1    
    61   49   33 1    
    62   50   33 1    
    63   60   34 1    
    64   61   34 1    
    65   62   34 1    
@<TRIPOS>SUBSTRUCTURE
     1 N34579      1 GROUP   
@<TRIPOS>SET

