#    Name: 2dsc_APR_2_INTS_M
#    Modification time : Tue Mar 25 10:17:15 2014

@<TRIPOS>MOLECULE
2dsc_APR_2_INTS_M
   77     0    15     0     0
SMALL
NO_CHARGES


@<TRIPOS>ATOM
      1 N          -0.0085   16.3415   75.5585 N.am      2 SEC2        0.0000 
      2 N           0.3740   16.7050   74.2550 N.am     12 SEL2        0.0000 
      3 N          -0.3910   15.9780   76.8620 N.am      7 SEP2        0.0000 
      4 CA          1.4695   15.2150   75.4200 C.3       5 GLC5        0.0000 
      5 CA          1.8190   16.3350   74.2130 C.3      15 GLL5        0.0000 
      6 CA          1.1200   14.0950   76.6270 C.3      10 GLP5        0.0000 
      7 CA         -0.7360   17.7690   75.2185 C.3       5 GLC5        0.0000 
      8 CA         -0.3240   17.2730   73.1600 C.3      15 GLL5        0.0000 
      9 CA         -1.1480   18.2650   77.2770 C.3      10 GLP5        0.0000 
     10 O          -2.3020   17.0310   74.5020 O.2       1 ALC1        0.0000 
     11 O          -1.6190   17.5730   73.2870 O.2      11 ALL1        0.0000 
     12 O          -2.9850   16.4890   75.7170 O.2       6 ALP1        0.0000 
     13 N          -1.1750   18.8380   70.2005 N.am      2 SEC2        0.0000 
     14 N          -0.0470   18.0380   70.7800 N.am     12 SEL2        0.0000 
     15 N          -2.3030   19.6380   69.6210 N.am      7 SEP2        0.0000 
     16 CA          4.3110   18.8010   70.5035 C.3       5 GLC5        0.0000 
     17 CA          3.4650   17.3870   70.0680 C.3      15 GLL5        0.0000 
     18 CA          5.1570   20.2150   70.9390 C.3      10 GLP5        0.0000 
     19 CA          2.8865   14.5175   70.6605 C.3       5 GLC5        0.0000 
     20 CA          3.8220   15.9050   69.9750 C.3      15 GLL5        0.0000 
     21 CA          1.9510   13.1300   71.3460 C.3      10 GLP5        0.0000 
     22 CA          2.1105   14.6025   69.5350 C.3       5 GLC5        0.0000 
     23 CA          3.2430   15.5790   68.6060 C.3      15 GLL5        0.0000 
     24 CA          0.9780   13.6260   70.4640 C.3      10 GLP5        0.0000 
     25 CA          1.7680   18.7230   66.6340 C.3       5 GLC5        0.0000 
     26 CA          2.7810   17.0250   66.5820 C.3      15 GLL5        0.0000 
     27 CA          0.7550   20.4210   66.6860 C.3      10 GLP5        0.0000 
     28 Zn          1.3645   13.8790   63.1200 Zn        4 ZIC7        0.0000 
     29 Zn          2.0770   14.7520   63.5600 Zn       14 ZIL7        0.0000 
     30 Zn          0.6520   13.0060   62.6800 Zn        9 ZIP7        0.0000 
     31 N           1.3715   18.1460   63.0550 N.am      2 SEC2        0.0000 
     32 N           2.4280   17.2060   63.5900 N.am     12 SEL2        0.0000 
     33 N           0.3150   19.0860   62.5200 N.am      7 SEP2        0.0000 
     34 NZ         -0.9935   13.5785   67.0465 N.4       3 LYC4        0.0000 
     35 NZ         -0.3480   14.9010   66.7730 N.4      13 LYL4        0.0000 
     36 NZ         -2.4830   11.5900   66.5400 N.4       8 LYP4        0.0000 
     37 N          -0.9935   13.5785   67.0465 N.am      2 SEC2        0.0000 
     38 N          -0.3480   14.9010   66.7730 N.am     12 SEL2        0.0000 
     39 N          -1.6390   12.2560   67.3200 N.am      7 SEP2        0.0000 
     40 NZ         -1.7195   13.0490   64.8560 N.4       3 LYC4        0.0000 
     41 NZ         -0.7720   14.1180   64.4280 N.4      13 LYL4        0.0000 
     42 Zn         -0.0600   13.5620   63.5540 Zn        4 ZIC7        0.0000 
     43 Zn         -0.7720   14.1180   64.4280 Zn       14 ZIL7        0.0000 
     44 N          -1.7195   13.0490   64.8560 N.am      2 SEC2        0.0000 
     45 N          -0.7720   14.1180   64.4280 N.am     12 SEL2        0.0000 
     46 N          -2.6670   11.9800   65.2840 N.am      7 SEP2        0.0000 
     47 CA         -1.2970   16.7880   62.6870 C.3       5 GLC5        0.0000 
     48 CA         -2.5890   16.5510   64.0920 C.3      15 GLL5        0.0000 
     49 CA         -0.0050   17.0250   61.2820 C.3      10 GLP5        0.0000 
     50 CA         -2.0125   18.4030   64.7875 C.3       5 GLC5        0.0000 
     51 CA         -1.4360   20.2550   65.4830 C.3      10 GLP5        0.0000 
     52 O          -7.2455   15.3810   66.2145 O.2       1 ALC1        0.0000 
     53 O          -6.5070   14.4630   65.1310 O.2      11 ALL1        0.0000 
     54 O          -7.9840   16.2990   67.2980 O.2       6 ALP1        0.0000 
     55 CA         -6.2925   12.9080   66.1520 C.3       5 GLC5        0.0000 
     56 CA         -5.0970   14.6070   65.3600 C.3      15 GLL5        0.0000 
     57 CA         -7.4880   11.2090   66.9440 C.3      10 GLP5        0.0000 
     58 N          -4.8080   16.9525   68.1080 N.am      2 SEC2        0.0000 
     59 N          -5.8010   15.8230   67.3430 N.am     12 SEL2        0.0000 
     60 N          -3.8150   18.0820   68.8730 N.am      7 SEP2        0.0000 
     61 N          -5.7560   14.5665   68.2075 N.am      2 SEC2        0.0000 
     62 N          -5.7110   13.3100   69.0720 N.am      7 SEP2        0.0000 
     63 O          -6.1975   17.3675   67.4225 O.2       1 ALC1        0.0000 
     64 O          -5.8010   15.8230   67.3430 O.2      11 ALL1        0.0000 
     65 O          -6.5940   18.9120   67.5020 O.2       6 ALP1        0.0000 
     66 N          -6.2820   18.2290   66.3615 N.am      2 SEC2        0.0000 
     67 N          -5.9700   17.5460   65.2210 N.am     12 SEL2        0.0000 
     68 N          -6.5940   18.9120   67.5020 N.am      7 SEP2        0.0000 
     69 O          -6.9770   16.9225   66.2595 O.2       1 ALC1        0.0000 
     70 O          -5.9700   17.5460   65.2210 O.2      11 ALL1        0.0000 
     71 CA          0.4900   19.0669   73.1499 C.3       5 GLC5        0.0000 
     72 CA          0.3440   17.5190   71.9540 C.3      15 GLL5        0.0000 
     73 CA          0.6310   20.8160   73.7720 C.3      10 GLP5        0.0000 
     74 CA         -3.4330   15.4645   62.3833 C.3       5 GLC5        0.0000 
     75 CA         -3.5170   14.4630   60.6480 C.3      10 GLP5        0.0000 
     76 CA         -4.6918   14.5288   67.6745 C.3       5 GLC5        0.0000 
     77 CA         -4.4480   13.8900   69.4860 C.3      10 GLP5        0.0000 
@<TRIPOS>BOND
@<TRIPOS>SUBSTRUCTURE
     1 ALC1       10 GROUP        1 X    ALC  0     ROOT ALC X 1
     2 SEC2        1 GROUP        1 X    SEC  0     **** SEC X 2
     3 LYC4       34 GROUP        1 X    LYC  0     **** LYC X 4
     4 ZIC7       28 GROUP        1 X    ZIC  0     **** ZIC X 5
     5 GLC5        4 GROUP        1 X    GLC  0     **** GLC X 6
     6 ALP1       12 GROUP        1 Y    ALP  0     ROOT ALP Y 8
     7 SEP2        3 GROUP        1 Y    SEP  0     **** SEP Y 9
     8 LYP4       36 GROUP        1 Y    LYP  0     **** LYP Y 11
     9 ZIP7       30 GROUP        1 Y    ZIP  0     **** ZIP Y 12
    10 GLP5        6 GROUP        1 Y    GLP  0     **** GLP Y 13
    11 ALL1       11 GROUP        1 Z    ALL  0     ROOT ALL Z 15
    12 SEL2        2 GROUP        1 Z    SEL  0     **** SEL Z 16
    13 LYL4       35 GROUP        1 Z    LYL  0     **** LYL Z 18
    14 ZIL7       29 GROUP        1 Z    ZIL  0     **** ZIL Z 19
    15 GLL5        5 GROUP        1 Z    GLL  0     **** GLL Z 20
@<TRIPOS>SET

