#    Name: 2dsc_APR_2_ligand
#    Modification time : Tue Mar 25 10:17:15 2014

@<TRIPOS>MOLECULE
2dsc_APR_2_ligand
   57    60     1     0     0
SMALL
NO_CHARGES


@<TRIPOS>ATOM
      1 N1          0.3740   16.7050   74.2550 N.ar      1 APR401      0.0000 
      2 C2          1.8190   16.3350   74.2130 C.ar      1 APR401      0.0000 
      3 N3          2.4300   16.6350   72.9070 N.ar      1 APR401      0.0000 
      4 C4          1.7000   17.2060   71.8370 C.ar      1 APR401      0.0000 
      5 C5          0.3440   17.5190   71.9540 C.ar      1 APR401      0.0000 
      6 C6         -0.3240   17.2730   73.1600 C.ar      1 APR401      0.0000 
      7 N6         -1.6190   17.5730   73.2870 N.pl3     1 APR401      0.0000 
      8 N7         -0.0470   18.0380   70.7800 N.2       1 APR401      0.0000 
      9 C8          1.0030   18.0560   69.9710 C.2       1 APR401      0.0000 
     10 N9          2.0760   17.5500   70.6060 N.pl3     1 APR401      0.0000 
     11 C1'         3.4650   17.3870   70.0680 C.3       1 APR401      0.0000 
     12 C2'         3.8220   15.9050   69.9750 C.3       1 APR401      0.0000 
     13 O2'         5.2440   15.7530   70.0530 O.3       1 APR401      0.0000 
     14 C3'         3.2430   15.5790   68.6060 C.3       1 APR401      0.0000 
     15 O3'         3.8220   14.3930   68.1030 O.3       1 APR401      0.0000 
     16 O4'         3.5730   17.8870   68.7100 O.3       1 APR401      0.0000 
     17 C4'         3.6650   16.7850   67.8080 C.3       1 APR401      0.0000 
     18 C5'         2.7810   17.0250   66.5820 C.3       1 APR401      0.0000 
     19 O5'         2.8040   15.9120   65.6790 O.3       1 APR401      0.0000 
     20 PA          1.9540   16.0060   64.3160 P.3       1 APR401      0.0000 
     21 O1A         2.0770   14.7520   63.5600 O.co2     1 APR401      0.0000 
     22 O2A         2.4280   17.2060   63.5900 O.co2     1 APR401      0.0000 
     23 O3A         0.4310   16.3150   64.7990 O.3       1 APR401      0.0000 
     24 PB         -0.6570   15.2590   65.3720 P.3       1 APR401      0.0000 
     25 O1B        -0.3480   14.9010   66.7730 O.co2     1 APR401      0.0000 
     26 O2B        -0.7720   14.1180   64.4280 O.co2     1 APR401      0.0000 
     27 O5D        -2.0120   16.1240   65.3390 O.3       1 APR401      0.0000 
     28 C5D        -2.5890   16.5510   64.0920 C.3       1 APR401      0.0000 
     29 O4D        -4.3910   14.9590   64.1460 O.3       1 APR401      0.0000 
     30 O1D        -6.5070   14.4630   65.1310 O.3       1 APR401      0.0000 
     31 C1D        -5.0970   14.6070   65.3600 C.3       1 APR401      0.0000 
     32 O2D        -5.8010   15.8230   67.3430 O.3       1 APR401      0.0000 
     33 C2D        -4.7740   15.7280   66.3660 C.3       1 APR401      0.0000 
     34 O3D        -5.9700   17.5460   65.2210 O.3       1 APR401      0.0000 
     35 C3D        -4.6830   16.9580   65.4380 C.3       1 APR401      0.0000 
     36 C4D        -4.1090   16.3810   64.1450 C.3       1 APR401      0.0000 
     37 H           2.2768   15.9552   74.9407 H         1 APR401      0.0000 
     38 H          -2.0694   17.9331   72.4700 H         1 APR401      0.0000 
     39 H          -2.0220   17.4106   74.1877 H         1 APR401      0.0000 
     40 H           1.0086   18.3856   69.0483 H         1 APR401      0.0000 
     41 H           4.1751   17.8589   70.7049 H         1 APR401      0.0000 
     42 H           3.2762   15.3963   70.7097 H         1 APR401      0.0000 
     43 H           2.1963   15.5666   68.6850 H         1 APR401      0.0000 
     44 H           4.6827   16.6455   67.4876 H         1 APR401      0.0000 
     45 H           3.1349   17.9493   66.0920 H         1 APR401      0.0000 
     46 H           1.7579   17.2296   66.9440 H         1 APR401      0.0000 
     47 H          -2.2139   15.9595   63.2518 H         1 APR401      0.0000 
     48 H          -2.3757   17.6047   63.8899 H         1 APR401      0.0000 
     49 H          -4.6666   13.6949   65.7680 H         1 APR401      0.0000 
     50 H          -3.8069   15.5353   66.7509 H         1 APR401      0.0000 
     51 H          -3.9685   17.6237   65.8511 H         1 APR401      0.0000 
     52 H          -4.5508   16.8597   63.3136 H         1 APR401      0.0000 
     53 H           5.4933   15.2299   69.2380 H         1 APR401      0.0000 
     54 H           3.6375   14.4117   67.1203 H         1 APR401      0.0000 
     55 H          -6.9396   14.7746   65.9771 H         1 APR401      0.0000 
     56 H          -6.0270   16.7961   67.3870 H         1 APR401      0.0000 
     57 H          -6.5459   17.1862   65.9551 H         1 APR401      0.0000 
@<TRIPOS>BOND
     1    2    1 ar   
     2    6    1 ar   
     3    3    2 ar   
     4   37    2 1    
     5    4    3 ar   
     6    5    4 ar   
     7   10    4 1    
     8    6    5 ar   
     9    8    5 1    
    10    7    6 1    
    11   38    7 1    
    12   39    7 1    
    13    9    8 2    
    14   10    9 1    
    15   40    9 1    
    16   11   10 1    
    17   12   11 1    
    18   16   11 1    
    19   41   11 1    
    20   13   12 1    
    21   14   12 1    
    22   42   12 1    
    23   53   13 1    
    24   15   14 1    
    25   17   14 1    
    26   43   14 1    
    27   54   15 1    
    28   17   16 1    
    29   18   17 1    
    30   44   17 1    
    31   19   18 1    
    32   45   18 1    
    33   46   18 1    
    34   20   19 1    
    35   21   20 ar   
    36   22   20 ar   
    37   23   20 1    
    38   24   23 1    
    39   25   24 ar   
    40   26   24 ar   
    41   27   24 1    
    42   28   27 1    
    43   36   28 1    
    44   47   28 1    
    45   48   28 1    
    46   31   29 1    
    47   36   29 1    
    48   31   30 1    
    49   55   30 1    
    50   33   31 1    
    51   49   31 1    
    52   33   32 1    
    53   56   32 1    
    54   35   33 1    
    55   50   33 1    
    56   35   34 1    
    57   57   34 1    
    58   36   35 1    
    59   51   35 1    
    60   52   36 1    
@<TRIPOS>SUBSTRUCTURE
     1 APR401      1 GROUP   
@<TRIPOS>SET

