#    Name: 4c73_TLH_2_INTS_M
#    Modification time : Tue Mar 25 09:03:24 2014

@<TRIPOS>MOLECULE
4c73_TLH_2_INTS_M
   65     0     6     0     0
SMALL
NO_CHARGES


@<TRIPOS>ATOM
      1 CA        -11.4915  -24.2795   43.0120 C.3       2 GLC5        0.0000 
      2 CA        -10.7440  -26.0020   44.2120 C.3       6 GLL5        0.0000 
      3 CA        -12.2390  -22.5570   41.8120 C.3       4 GLP5        0.0000 
      4 CA         -8.6335  -28.0620   41.7675 C.3       2 GLC5        0.0000 
      5 CA         -9.3620  -27.3660   43.3200 C.3       6 GLL5        0.0000 
      6 CA         -7.9050  -28.7580   40.2150 C.3       4 GLP5        0.0000 
      7 N          -9.3800  -25.1455   40.5710 N.am      1 SEC2        0.0000 
      8 N         -10.0410  -24.7230   42.0450 N.am      5 SEL2        0.0000 
      9 N          -8.7190  -25.5680   39.0970 N.am      3 SEP2        0.0000 
     10 CA         -8.5640  -23.3365   43.5555 C.3       2 GLC5        0.0000 
     11 CA         -7.7510  -24.7280   42.6180 C.3       6 GLL5        0.0000 
     12 CA         -9.3770  -21.9450   44.4930 C.3       4 GLP5        0.0000 
     13 N          -7.9880  -21.5610   41.5365 N.am      1 SEC2        0.0000 
     14 N          -8.3080  -22.8730   41.2530 N.am      5 SEL2        0.0000 
     15 N          -7.6680  -20.2490   41.8200 N.am      3 SEP2        0.0000 
     16 N          -9.7240  -22.5730   41.1450 N.am      1 SEC2        0.0000 
     17 N         -11.1400  -22.2730   41.0370 N.am      3 SEP2        0.0000 
     18 CA         -6.4125  -21.5615   42.3360 C.3       2 GLC5        0.0000 
     19 CA         -5.7320  -23.3220   41.6850 C.3       6 GLL5        0.0000 
     20 CA         -7.0930  -19.8010   42.9870 C.3       4 GLP5        0.0000 
     21 CA         -4.4865  -21.8125   41.6590 C.3       2 GLC5        0.0000 
     22 CA         -3.2410  -20.3030   41.6330 C.3       4 GLP5        0.0000 
     23 CA         -5.0410  -23.0545   39.8355 C.3       2 GLC5        0.0000 
     24 CA         -4.3500  -22.7870   37.9860 C.3       4 GLP5        0.0000 
     25 CA         -3.4070  -24.6505   45.2660 C.3       2 GLC5        0.0000 
     26 CA         -4.9170  -23.9330   44.2430 C.3       6 GLL5        0.0000 
     27 CA         -1.8970  -25.3680   46.2890 C.3       4 GLP5        0.0000 
     28 CA         -5.0215  -24.0360   46.3275 C.3       2 GLC5        0.0000 
     29 CA         -5.1260  -24.1390   48.4120 C.3       4 GLP5        0.0000 
     30 CA         -1.7490  -24.3465   43.5365 C.3       2 GLC5        0.0000 
     31 CA         -2.5740  -23.9990   41.7920 C.3       6 GLL5        0.0000 
     32 CA         -0.9240  -24.6940   45.2810 C.3       4 GLP5        0.0000 
     33 CA         -2.9075  -22.1510   41.7125 C.3       2 GLC5        0.0000 
     34 CA         -3.4620  -23.3930   39.8890 C.3       2 GLC5        0.0000 
     35 CA          0.0525  -25.6750   39.7475 C.3       2 GLC5        0.0000 
     36 CA         -1.0440  -26.4070   40.9150 C.3       6 GLL5        0.0000 
     37 CA          1.1490  -24.9430   38.5800 C.3       4 GLP5        0.0000 
     38 CA        -10.5241  -28.4624   44.0008 C.3       2 GLC5        0.0000 
     39 CA         -9.5050  -26.1450   43.8100 C.3       6 GLL5        0.0000 
     40 CA        -11.3050  -30.2050   44.3360 C.3       4 GLP5        0.0000 
     41 CA        -11.5301  -26.7544   43.6977 C.3       2 GLC5        0.0000 
     42 CA        -13.3170  -26.7890   43.7300 C.3       4 GLP5        0.0000 
     43 CA         -9.8026  -24.3026   45.0795 C.3       2 GLC5        0.0000 
     44 CA         -8.8020  -25.9750   44.9150 C.3       6 GLL5        0.0000 
     45 CA        -10.1420  -22.5810   45.6960 C.3       4 GLP5        0.0000 
     46 CA         -9.5943  -26.6927   45.8736 C.3       2 GLC5        0.0000 
     47 CA         -9.9160  -27.0380   47.4570 C.3       4 GLP5        0.0000 
     48 CA         -6.5219  -26.4129   41.7843 C.3       2 GLC5        0.0000 
     49 CA         -5.3040  -24.6310   42.9450 C.3       6 GLL5        0.0000 
     50 CA         -6.7870  -27.9990   40.6450 C.3       4 GLP5        0.0000 
     51 CA         -4.7520  -26.5500   40.9355 C.3       2 GLC5        0.0000 
     52 CA         -4.3000  -25.5960   42.4430 C.3       6 GLL5        0.0000 
     53 CA         -5.8130  -27.5970   39.6910 C.3       4 GLP5        0.0000 
     54 CA         -3.1120  -25.9644   43.9123 C.3       2 GLC5        0.0000 
     55 CA         -3.0820  -25.4100   41.9170 C.3       6 GLL5        0.0000 
     56 CA         -2.2820  -26.6670   45.5190 C.3       4 GLP5        0.0000 
     57 CA         -2.3792  -28.3850   40.9680 C.3       2 GLC5        0.0000 
     58 CA         -2.2570  -26.4930   41.4170 C.3       6 GLL5        0.0000 
     59 CA         -3.1080  -30.3200   40.7700 C.3       4 GLP5        0.0000 
     60 CA         -1.6847  -27.8495   42.6630 C.3       2 GLC5        0.0000 
     61 CA         -1.7190  -29.2490   44.1600 C.3       4 GLP5        0.0000 
     62 CA         -0.8818  -26.1575   42.9375 C.3       2 GLC5        0.0000 
     63 CA         -0.1130  -25.8650   44.7090 C.3       4 GLP5        0.0000 
     64 CA         -2.7563  -26.4780   39.4370 C.3       2 GLC5        0.0000 
     65 CA         -3.8620  -26.5060   37.7080 C.3       4 GLP5        0.0000 
@<TRIPOS>BOND
@<TRIPOS>SUBSTRUCTURE
     1 SEC2        7 GROUP        1 X    SEC  0     ROOT SEC X 2
     2 GLC5        1 GROUP        1 X    GLC  0     **** GLC X 6
     3 SEP2        9 GROUP        1 Y    SEP  0     ROOT SEP Y 9
     4 GLP5        3 GROUP        1 Y    GLP  0     **** GLP Y 13
     5 SEL2        8 GROUP        1 Z    SEL  0     ROOT SEL Z 16
     6 GLL5        2 GROUP        1 Z    GLL  0     **** GLL Z 20
@<TRIPOS>SET

