#    Name: 4c73_TLH_2_ligand
#    Modification time : Tue Mar 25 09:03:24 2014

@<TRIPOS>MOLECULE
4c73_TLH_2_ligand
   27    27     1     0     0
SMALL
NO_CHARGES


@<TRIPOS>ATOM
      1 F2        -10.7440  -26.0020   44.2120 F         1 TLH1421     0.0000 
      2 C10        -9.5050  -26.1450   43.8100 C.3       1 TLH1421     0.0000 
      3 F          -9.3620  -27.3660   43.3200 F         1 TLH1421     0.0000 
      4 F1         -8.8020  -25.9750   44.9150 F         1 TLH1421     0.0000 
      5 C9         -9.1260  -25.1020   42.7410 C.2       1 TLH1421     0.0000 
      6 O1        -10.0410  -24.7230   42.0450 O.2       1 TLH1421     0.0000 
      7 C8         -7.7510  -24.7280   42.6180 C.2       1 TLH1421     0.0000 
      8 C7         -7.4880  -23.6120   41.7330 C.2       1 TLH1421     0.0000 
      9 O          -8.3080  -22.8730   41.2530 O.2       1 TLH1421     0.0000 
     10 S          -5.7320  -23.3220   41.6850 S.3       1 TLH1421     0.0000 
     11 C11        -6.6680  -25.3170   43.1860 C.2       1 TLH1421     0.0000 
     12 O2         -6.6420  -26.5300   43.8020 O.co2     1 TLH1421     0.0000 
     13 C5         -5.3040  -24.6310   42.9450 C.3       1 TLH1421     0.0000 
     14 C6         -4.9170  -23.9330   44.2430 C.3       1 TLH1421     0.0000 
     15 C4         -4.3000  -25.5960   42.4430 C.2       1 TLH1421     0.0000 
     16 C2         -3.0820  -25.4100   41.9170 C.2       1 TLH1421     0.0000 
     17 C3         -2.5740  -23.9990   41.7920 C.3       1 TLH1421     0.0000 
     18 C1         -2.2570  -26.4930   41.4170 C.2       1 TLH1421     0.0000 
     19 C          -1.0440  -26.4070   40.9150 C.2       1 TLH1421     0.0000 
     20 H          -4.6614  -26.6362   42.5388 H         1 TLH1421     0.0000 
     21 H          -2.7387  -27.4624   41.4864 H         1 TLH1421     0.0000 
     22 H          -4.0342  -23.4695   44.1665 H         1 TLH1421     0.0000 
     23 H          -5.5892  -23.2415   44.5076 H         1 TLH1421     0.0000 
     24 H          -4.8446  -24.5776   45.0040 H         1 TLH1421     0.0000 
     25 H          -1.6576  -23.9682   41.3929 H         1 TLH1421     0.0000 
     26 H          -3.1660  -23.4413   41.2102 H         1 TLH1421     0.0000 
     27 H          -2.5223  -23.5428   42.6804 H         1 TLH1421     0.0000 
@<TRIPOS>BOND
     1    2    1 1    
     2    3    2 1    
     3    4    2 1    
     4    5    2 1    
     5    6    5 2    
     6    7    5 1    
     7    8    7 1    
     8   11    7 2    
     9    9    8 2    
    10   10    8 1    
    11   13   10 1    
    12   12   11 1    
    13   13   11 1    
    14   14   13 1    
    15   15   13 1    
    16   22   14 1    
    17   23   14 1    
    18   24   14 1    
    19   16   15 2    
    20   20   15 1    
    21   17   16 1    
    22   18   16 1    
    23   25   17 1    
    24   26   17 1    
    25   27   17 1    
    26   19   18 2    
    27   21   18 1    
@<TRIPOS>SUBSTRUCTURE
     1 TLH1421     1 GROUP   
@<TRIPOS>SET

