#    Name: 2q8i_RDC_1_INTS_M
#    Modification time : Mon Mar 24 21:01:58 2014

@<TRIPOS>MOLECULE
2q8i_RDC_1_INTS_M
   52     0     9     0     0
SMALL
NO_CHARGES


@<TRIPOS>ATOM
      1 CA        -51.5895   21.7040   65.6475 C.3       3 GLC5        0.0000 
      2 CA        -49.9830   21.3490   66.9130 C.3       9 GLL5        0.0000 
      3 CA        -53.1960   22.0590   64.3820 C.3       6 GLP5        0.0000 
      4 CA        -51.5480   22.9155   65.5460 C.3       3 GLC5        0.0000 
      5 CA        -50.7330   22.5800   67.2160 C.3       9 GLL5        0.0000 
      6 CA        -52.3630   23.2510   63.8760 C.3       6 GLP5        0.0000 
      7 CA        -51.3475   24.2420   69.2190 C.3       3 GLC5        0.0000 
      8 CA        -51.8400   22.5770   68.0540 C.3       9 GLL5        0.0000 
      9 CA        -50.8550   25.9070   70.3840 C.3       6 GLP5        0.0000 
     10 CA        -49.8225   17.1250   66.1715 C.3       3 GLC5        0.0000 
     11 CA        -49.7260   18.6810   67.1680 C.3       9 GLL5        0.0000 
     12 CA        -49.9190   15.5690   65.1750 C.3       6 GLP5        0.0000 
     13 CA        -51.5235   17.9445   66.2475 C.3       3 GLC5        0.0000 
     14 CA        -53.3210   17.2080   65.3270 C.3       6 GLP5        0.0000 
     15 CA        -47.9505   22.0455   71.2045 C.3       3 GLC5        0.0000 
     16 CA        -46.2860   21.3070   70.2840 C.3       9 GLL5        0.0000 
     17 CA        -49.6150   22.7840   72.1250 C.3       6 GLP5        0.0000 
     18 CA        -45.2610   22.7135   71.3670 C.3       3 GLC5        0.0000 
     19 CA        -44.2360   24.1200   72.4500 C.3       6 GLP5        0.0000 
     20 CA        -47.7110   20.4425   64.2095 C.3       3 GLC5        0.0000 
     21 CA        -46.4270   21.3820   65.7310 C.3       9 GLL5        0.0000 
     22 CA        -48.9950   19.5030   62.6880 C.3       6 GLP5        0.0000 
     23 CA        -46.4670   19.0215   63.9035 C.3       3 GLC5        0.0000 
     24 CA        -45.7410   20.0360   65.4190 C.3       9 GLL5        0.0000 
     25 CA        -47.1930   18.0070   62.3880 C.3       6 GLP5        0.0000 
     26 N         -50.0695   22.4040   64.0550 N.am      2 SEC2        0.0000 
     27 N         -48.9640   22.0170   64.9020 N.am      8 SEL2        0.0000 
     28 N         -51.1750   22.7910   63.2080 N.am      5 SEP2        0.0000 
     29 N         -49.0380   23.4785   64.6040 N.am      2 SEC2        0.0000 
     30 N         -49.1120   24.9400   64.3060 N.am      5 SEP2        0.0000 
     31 N         -49.6750   24.3155   65.4535 N.am      2 SEC2        0.0000 
     32 N         -50.2380   23.6910   66.6010 N.am      8 SEL2        0.0000 
     33 O         -51.0690   24.6680   66.8255 O.2       1 ALC1        0.0000 
     34 O         -50.2380   23.6910   66.6010 O.2       7 ALL1        0.0000 
     35 O         -51.9000   25.6450   67.0500 O.2       4 ALP1        0.0000 
     36 CA        -51.1475   20.0510   70.1640 C.3       3 GLC5        0.0000 
     37 CA        -52.0140   18.5270   68.9210 C.3       9 GLL5        0.0000 
     38 CA        -50.2810   21.5750   71.4070 C.3       6 GLP5        0.0000 
     39 CA        -52.2750   16.7240   68.9250 C.3       3 GLC5        0.0000 
     40 CA        -52.5360   14.9210   68.9290 C.3       6 GLP5        0.0000 
     41 CA        -53.3645   18.8285   67.4960 C.3       3 GLC5        0.0000 
     42 CA        -54.7150   19.1300   66.0710 C.3       6 GLP5        0.0000 
     43 CA        -50.7837   22.0768   69.5210 C.3       3 GLC5        0.0000 
     44 CA        -52.6142   22.0130   66.3493 C.3       3 GLC5        0.0000 
     45 CA        -52.2250   21.3570   68.5790 C.3       9 GLL5        0.0000 
     46 CA        -53.2938   19.9257   67.2497 C.3       3 GLC5        0.0000 
     47 CA        -50.6986   20.9741   69.6761 C.3       3 GLC5        0.0000 
     48 CA        -48.8989   20.5661   70.6799 C.3       3 GLC5        0.0000 
     49 CA        -48.5860   18.5240   69.5770 C.3       9 GLL5        0.0000 
     50 CA        -46.4494   23.7675   67.6287 C.3       3 GLC5        0.0000 
     51 CA        -46.2740   22.0750   68.9770 C.3       9 GLL5        0.0000 
     52 CA        -47.2900   25.4760   67.7430 C.3       6 GLP5        0.0000 
@<TRIPOS>BOND
@<TRIPOS>SUBSTRUCTURE
     1 ALC1       33 GROUP        1 X    ALC  0     ROOT ALC X 1
     2 SEC2       26 GROUP        1 X    SEC  0     **** SEC X 2
     3 GLC5        1 GROUP        1 X    GLC  0     **** GLC X 6
     4 ALP1       35 GROUP        1 Y    ALP  0     ROOT ALP Y 8
     5 SEP2       28 GROUP        1 Y    SEP  0     **** SEP Y 9
     6 GLP5        3 GROUP        1 Y    GLP  0     **** GLP Y 13
     7 ALL1       34 GROUP        1 Z    ALL  0     ROOT ALL Z 15
     8 SEL2       27 GROUP        1 Z    SEL  0     **** SEL Z 16
     9 GLL5        2 GROUP        1 Z    GLL  0     **** GLL Z 20
@<TRIPOS>SET

