#    Name: 2q8i_RDC_1_ligand
#    Modification time : Mon Mar 24 21:01:58 2014

@<TRIPOS>MOLECULE
2q8i_RDC_1_ligand
   42    44     1     0     0
SMALL
NO_CHARGES


@<TRIPOS>ATOM
      1 C1        -48.8340   21.5200   66.0020 C.2       1 RDC408      0.0000 
      2 C2        -49.9830   21.3490   66.9130 C.ar      1 RDC408      0.0000 
      3 C3        -50.7330   22.5800   67.2160 C.ar      1 RDC408      0.0000 
      4 C4        -51.8400   22.5770   68.0540 C.ar      1 RDC408      0.0000 
      5 C5        -52.2250   21.3570   68.5790 C.ar      1 RDC408      0.0000 
      6 C6        -51.5200   20.0860   68.2780 C.ar      1 RDC408      0.0000 
      7 C7        -50.3600   20.0250   67.4620 C.ar      1 RDC408      0.0000 
      8 C8        -49.7260   18.6810   67.1680 C.3       1 RDC408      0.0000 
      9 C9        -49.2710   17.8950   68.3810 C.2       1 RDC408      0.0000 
     10 C10       -48.5860   18.5240   69.5770 C.2       1 RDC408      0.0000 
     11 C11       -47.6430   19.4450   69.3540 C.2       1 RDC408      0.0000 
     12 C12       -46.9190   20.1300   70.4400 C.2       1 RDC408      0.0000 
     13 C13       -46.2860   21.3070   70.2840 C.2       1 RDC408      0.0000 
     14 C14       -46.2740   22.0750   68.9770 C.3       1 RDC408      0.0000 
     15 C15       -45.1850   21.6570   67.9610 C.3       1 RDC408      0.0000 
     16 C16       -45.4880   22.2520   66.5600 C.3       1 RDC408      0.0000 
     17 C17       -46.4270   21.3820   65.7310 C.3       1 RDC408      0.0000 
     18 C18       -45.7410   20.0360   65.4190 C.3       1 RDC408      0.0000 
     19 O1        -47.5910   21.0780   66.5160 O.3       1 RDC408      0.0000 
     20 O2        -48.9640   22.0170   64.9020 O.2       1 RDC408      0.0000 
     21 O3        -50.2380   23.6910   66.6010 O.3       1 RDC408      0.0000 
     22 O4        -53.2750   21.2510   69.4170 O.3       1 RDC408      0.0000 
     23 CL1       -52.0140   18.5270   68.9210 Cl        1 RDC408      0.0000 
     24 O5        -49.4560   16.7000   68.3340 O.2       1 RDC408      0.0000 
     25 O6        -45.0380   22.7570   68.8420 O.3       1 RDC408      0.0000 
     26 H         -52.3387   23.4272   68.2684 H         1 RDC408      0.0000 
     27 H         -48.8555   18.8349   66.4935 H         1 RDC408      0.0000 
     28 H         -50.4474   18.0627   66.5903 H         1 RDC408      0.0000 
     29 H         -48.8908   18.2018   70.4812 H         1 RDC408      0.0000 
     30 H         -47.3657   19.7316   68.3870 H         1 RDC408      0.0000 
     31 H         -46.9283   19.6316   71.3625 H         1 RDC408      0.0000 
     32 H         -45.7607   21.7696   71.0538 H         1 RDC408      0.0000 
     33 H         -46.9487   22.4942   68.5417 H         1 RDC408      0.0000 
     34 H         -44.7862   20.9296   68.1906 H         1 RDC408      0.0000 
     35 H         -44.5395   22.3786   66.0251 H         1 RDC408      0.0000 
     36 H         -45.9330   23.2448   66.6944 H         1 RDC408      0.0000 
     37 H         -46.6662   21.8630   64.8279 H         1 RDC408      0.0000 
     38 H         -44.8946   20.1617   64.9015 H         1 RDC408      0.0000 
     39 H         -45.5034   19.5381   66.2531 H         1 RDC408      0.0000 
     40 H         -46.3295   19.4360   64.8771 H         1 RDC408      0.0000 
     41 H         -50.5433   24.4573   67.1664 H         1 RDC408      0.0000 
     42 H         -53.3770   22.1604   69.8203 H         1 RDC408      0.0000 
@<TRIPOS>BOND
     1    2    1 1    
     2   19    1 1    
     3   20    1 2    
     4    3    2 ar   
     5    7    2 ar   
     6    4    3 ar   
     7   21    3 1    
     8    5    4 ar   
     9   26    4 1    
    10    6    5 ar   
    11   22    5 1    
    12    7    6 ar   
    13   23    6 1    
    14    8    7 1    
    15    9    8 1    
    16   27    8 1    
    17   28    8 1    
    18   10    9 1    
    19   24    9 2    
    20   11   10 2    
    21   29   10 1    
    22   12   11 1    
    23   30   11 1    
    24   13   12 2    
    25   31   12 1    
    26   14   13 1    
    27   32   13 1    
    28   15   14 1    
    29   25   14 1    
    30   33   14 1    
    31   16   15 1    
    32   25   15 1    
    33   34   15 1    
    34   17   16 1    
    35   35   16 1    
    36   36   16 1    
    37   18   17 1    
    38   19   17 1    
    39   37   17 1    
    40   38   18 1    
    41   39   18 1    
    42   40   18 1    
    43   41   21 1    
    44   42   22 1    
@<TRIPOS>SUBSTRUCTURE
     1 RDC408      1 GROUP   
@<TRIPOS>SET

