#    Name: 2bru_NAD_1_INTS_M
#    Modification time : Mon Mar 24 21:34:48 2014

@<TRIPOS>MOLECULE
2bru_NAD_1_INTS_M
   78     0     9     0     0
SMALL
NO_CHARGES


@<TRIPOS>ATOM
      1 CA        -13.6675    1.8445   14.5300 C.3       3 GLC5        0.0000 
      2 CA        -14.9610    2.5800   15.8860 C.3       9 GLL5        0.0000 
      3 CA        -12.3740    1.1090   13.1740 C.3       6 GLP5        0.0000 
      4 CA        -16.1070   -0.1345   14.7985 C.3       3 GLC5        0.0000 
      5 CA        -16.1200    1.6000   15.8710 C.3       9 GLL5        0.0000 
      6 CA        -16.0940   -1.8690   13.7260 C.3       6 GLP5        0.0000 
      7 N         -14.4930   -0.0320   17.5975 N.am      2 SEC2        0.0000 
      8 N         -15.8420    0.3900   16.6050 N.am      8 SEL2        0.0000 
      9 N         -13.1440   -0.4540   18.5900 N.am      5 SEP2        0.0000 
     10 O         -18.7685    1.4205   14.7790 O.2       1 ALC1        0.0000 
     11 O         -18.3080    2.6050   15.4900 O.2       7 ALL1        0.0000 
     12 O         -19.2290    0.2360   14.0680 O.2       4 ALP1        0.0000 
     13 N         -20.6370    1.7830   16.3680 N.am      2 SEC2        0.0000 
     14 N         -19.3600    0.8650   17.0990 N.am      8 SEL2        0.0000 
     15 N         -21.9140    2.7010   15.6370 N.am      5 SEP2        0.0000 
     16 O         -20.2615    0.4355   15.9685 O.2       1 ALC1        0.0000 
     17 O         -19.3600    0.8650   17.0990 O.2       7 ALL1        0.0000 
     18 O         -21.1630    0.0060   14.8380 O.2       4 ALP1        0.0000 
     19 O         -19.2945    0.5505   15.5835 O.2       1 ALC1        0.0000 
     20 CA        -16.6200   -1.0140   15.2970 C.3       3 GLC5        0.0000 
     21 CA        -17.1460   -0.1590   16.8680 C.3       9 GLL5        0.0000 
     22 CA        -15.3130   -1.1900   16.9470 C.3       3 GLC5        0.0000 
     23 CA        -13.4800   -2.2210   17.0260 C.3       6 GLP5        0.0000 
     24 O         -18.0305   -6.7745   20.1130 O.2       1 ALC1        0.0000 
     25 O         -17.9060   -5.2640   19.8170 O.2       7 ALL1        0.0000 
     26 O         -18.1550   -8.2850   20.4090 O.2       4 ALP1        0.0000 
     27 O         -18.8565   -6.3530   19.6275 O.2       1 ALC1        0.0000 
     28 O         -19.8070   -7.4420   19.4380 O.2       4 ALP1        0.0000 
     29 CA        -16.4740   -5.3400   15.4420 C.3       3 GLC5        0.0000 
     30 CA        -18.2720   -4.4480   16.3810 C.3       9 GLL5        0.0000 
     31 CA        -14.6760   -6.2320   14.5030 C.3       6 GLP5        0.0000 
     32 CA        -17.1830   -3.1585   15.0535 C.3       3 GLC5        0.0000 
     33 CA        -19.4425   -3.6925   15.0395 C.3       3 GLC5        0.0000 
     34 CA        -20.6130   -2.9370   13.6980 C.3       6 GLP5        0.0000 
     35 CA        -20.0300   -4.0595   17.5415 C.3       3 GLC5        0.0000 
     36 CA        -21.7880   -3.6710   18.7020 C.3       6 GLP5        0.0000 
     37 CA        -16.1250   -4.0275   16.8280 C.3       3 GLC5        0.0000 
     38 CA        -13.9780   -3.6070   17.2750 C.3       6 GLP5        0.0000 
     39 CA        -16.8770   -2.1845   15.5950 C.3       3 GLC5        0.0000 
     40 CA        -17.6600   -2.5000   17.4640 C.3       9 GLL5        0.0000 
     41 CA        -16.5930    8.8220   18.8810 C.3       3 GLC5        0.0000 
     42 CA        -18.0920    7.3940   18.5240 C.3       9 GLL5        0.0000 
     43 CA        -15.0940   10.2500   19.2380 C.3       6 GLP5        0.0000 
     44 CA        -18.1275    9.8705   19.1375 C.3       3 GLC5        0.0000 
     45 CA        -19.0710    8.4790   18.1000 C.3       9 GLL5        0.0000 
     46 CA        -17.1840   11.2620   20.1750 C.3       6 GLP5        0.0000 
     47 CA        -20.6615    8.5885   20.1055 C.3       3 GLC5        0.0000 
     48 CA        -20.5060    7.9930   17.9900 C.3       9 GLL5        0.0000 
     49 CA        -20.8170    9.1840   22.2210 C.3       6 GLP5        0.0000 
     50 O         -20.9425   10.6675   18.8695 O.2       1 ALC1        0.0000 
     51 O         -21.8380   10.0080   17.8730 O.2       7 ALL1        0.0000 
     52 O         -20.0470   11.3270   19.8660 O.2       4 ALP1        0.0000 
     53 CA        -18.7505   11.0880   15.6500 C.3       3 GLC5        0.0000 
     54 CA        -19.9570    9.7130   16.3750 C.3       9 GLL5        0.0000 
     55 CA        -17.5440   12.4630   14.9250 C.3       6 GLP5        0.0000 
     56 CA        -21.4625   12.7575   14.9165 C.3       3 GLC5        0.0000 
     57 CA        -21.0920   10.6570   14.3480 C.3       9 GLL5        0.0000 
     58 CA        -21.8330   14.8580   15.4850 C.3       6 GLP5        0.0000 
     59 N         -23.9800   11.7325   11.0200 N.am      2 SEC2        0.0000 
     60 N         -22.5330   11.4290   11.0750 N.am      8 SEL2        0.0000 
     61 N         -25.4270   12.0360   10.9650 N.am      5 SEP2        0.0000 
     62 O         -24.3825   12.0145   12.0180 O.2       1 ALC1        0.0000 
     63 O         -23.3380   11.9930   13.0710 O.2       7 ALL1        0.0000 
     64 O         -25.4270   12.0360   10.9650 O.2       4 ALP1        0.0000 
     65 CA        -20.2500   11.2330   10.4555 C.3       3 GLC5        0.0000 
     66 CA        -20.3070   10.1100   12.1340 C.3       9 GLL5        0.0000 
     67 CA        -20.1930   12.3560    8.7770 C.3       6 GLP5        0.0000 
     68 CA        -17.0019    2.7270   14.3674 C.3       3 GLC5        0.0000 
     69 CA        -17.5440    3.3180   12.5420 C.3       6 GLP5        0.0000 
     70 CA        -19.7515   -3.4340   18.3841 C.3       3 GLC5        0.0000 
     71 CA        -17.6210   -3.2180   18.6460 C.3       9 GLL5        0.0000 
     72 CA        -15.8465   -3.4020   17.6706 C.3       3 GLC5        0.0000 
     73 CA        -17.9190   -4.5700   18.6910 C.3       9 GLL5        0.0000 
     74 CA        -19.3438   11.5962   14.2925 C.3       3 GLC5        0.0000 
     75 CA        -18.4238   10.8037   14.1338 C.3       3 GLC5        0.0000 
     76 CA        -19.2540    9.0650   14.0340 C.3       9 GLL5        0.0000 
     77 CA        -17.6343    8.3438   13.1363 C.3       3 GLC5        0.0000 
     78 CA        -15.9650    7.5430   12.9300 C.3       6 GLP5        0.0000 
@<TRIPOS>BOND
@<TRIPOS>SUBSTRUCTURE
     1 ALC1       10 GROUP        1 X    ALC  0     ROOT ALC X 1
     2 SEC2        7 GROUP        1 X    SEC  0     **** SEC X 2
     3 GLC5        1 GROUP        1 X    GLC  0     **** GLC X 6
     4 ALP1       12 GROUP        1 Y    ALP  0     ROOT ALP Y 8
     5 SEP2        9 GROUP        1 Y    SEP  0     **** SEP Y 9
     6 GLP5        3 GROUP        1 Y    GLP  0     **** GLP Y 13
     7 ALL1       11 GROUP        1 Z    ALL  0     ROOT ALL Z 15
     8 SEL2        8 GROUP        1 Z    SEL  0     **** SEL Z 16
     9 GLL5        2 GROUP        1 Z    GLL  0     **** GLL Z 20
@<TRIPOS>SET

