#    Name: 2bru_NAD_1_ligand
#    Modification time : Mon Mar 24 21:34:49 2014

@<TRIPOS>MOLECULE
2bru_NAD_1_ligand
   70    74     1     0     0
SMALL
NO_CHARGES


@<TRIPOS>ATOM
      1 PA        -14.2180    4.6230   17.4710 P.3       1 NAD1        0.0000 
      2 O1A       -13.4200    5.0320   16.2840 O.co2     1 NAD1        0.0000 
      3 O2A       -13.5690    4.6080   18.8240 O.co2     1 NAD1        0.0000 
      4 O5B       -14.7160    3.0880   17.2220 O.3       1 NAD1        0.0000 
      5 C5B       -14.9610    2.5800   15.8860 C.3       1 NAD1        0.0000 
      6 C4B       -16.1200    1.6000   15.8710 C.3       1 NAD1        0.0000 
      7 O4B       -15.8420    0.3900   16.6050 O.3       1 NAD1        0.0000 
      8 C3B       -17.3790    2.1820   16.5070 C.3       1 NAD1        0.0000 
      9 O3B       -18.3080    2.6050   15.4900 O.3       1 NAD1        0.0000 
     10 C2B       -17.9570    1.0390   17.3430 C.3       1 NAD1        0.0000 
     11 O2B       -19.3600    0.8650   17.0990 O.3       1 NAD1        0.0000 
     12 C1B       -17.1460   -0.1590   16.8680 C.3       1 NAD1        0.0000 
     13 N9A       -17.1890   -1.3110   17.7980 N.pl3     1 NAD1        0.0000 
     14 C8A       -16.8620   -1.3150   19.1000 C.2       1 NAD1        0.0000 
     15 N7A       -17.1430   -2.5180   19.6530 N.2       1 NAD1        0.0000 
     16 C5A       -17.6210   -3.2180   18.6460 C.ar      1 NAD1        0.0000 
     17 C6A       -17.9190   -4.5700   18.6910 C.ar      1 NAD1        0.0000 
     18 N6A       -17.9060   -5.2640   19.8170 N.pl3     1 NAD1        0.0000 
     19 N1A       -18.2420   -5.1500   17.5120 N.ar      1 NAD1        0.0000 
     20 C2A       -18.2720   -4.4480   16.3810 C.ar      1 NAD1        0.0000 
     21 N3A       -18.0140   -3.1480   16.3300 N.ar      1 NAD1        0.0000 
     22 C4A       -17.6600   -2.5000   17.4640 C.ar      1 NAD1        0.0000 
     23 O3        -15.5950    5.4520   17.5870 O.3       1 NAD1        0.0000 
     24 PN        -16.5930    6.2600   16.6160 P.3       1 NAD1        0.0000 
     25 O1N       -16.9390    5.3980   15.4590 O.co2     1 NAD1        0.0000 
     26 O2N       -16.0010    7.5950   16.3670 O.co2     1 NAD1        0.0000 
     27 O5D       -17.9510    6.3920   17.5120 O.3       1 NAD1        0.0000 
     28 C5D       -18.0920    7.3940   18.5240 C.3       1 NAD1        0.0000 
     29 C4D       -19.0710    8.4790   18.1000 C.3       1 NAD1        0.0000 
     30 O4D       -18.8040    8.9620   16.7770 O.3       1 NAD1        0.0000 
     31 C3D       -20.5060    7.9930   17.9900 C.3       1 NAD1        0.0000 
     32 O3D       -21.1810    7.9310   19.2720 O.3       1 NAD1        0.0000 
     33 C2D       -21.1390    9.0480   17.0860 C.3       1 NAD1        0.0000 
     34 O2D       -21.8380   10.0080   17.8730 O.3       1 NAD1        0.0000 
     35 C1D       -19.9570    9.7130   16.3750 C.3       1 NAD1        0.0000 
     36 N1N       -20.1060    9.7820   14.8900 N.pl3     1 NAD1        0.0000 
     37 C2N       -21.0920   10.6570   14.3480 C.ar      1 NAD1        0.0000 
     38 C3N       -21.1950   10.8020   12.9720 C.ar      1 NAD1        0.0000 
     39 C7N       -22.4170   11.4440   12.2940 C.2       1 NAD1        0.0000 
     40 O7N       -22.5330   11.4290   11.0750 O.2       1 NAD1        0.0000 
     41 N7N       -23.3380   11.9930   13.0710 N.am      1 NAD1        0.0000 
     42 C4N       -20.3070   10.1100   12.1340 C.ar      1 NAD1        0.0000 
     43 C5N       -19.3530    9.2240   12.6510 C.ar      1 NAD1        0.0000 
     44 C6N       -19.2540    9.0650   14.0340 C.ar      1 NAD1        0.0000 
     45 H         -14.0708    2.0655   15.4921 H         1 NAD1        0.0000 
     46 H         -15.1960    3.4008   15.1907 H         1 NAD1        0.0000 
     47 H         -16.3683    1.3551   14.8405 H         1 NAD1        0.0000 
     48 H         -17.0916    2.9661   17.1623 H         1 NAD1        0.0000 
     49 H         -17.7155    1.2222   18.3593 H         1 NAD1        0.0000 
     50 H         -17.5998   -0.4499   15.8973 H         1 NAD1        0.0000 
     51 H         -16.4750   -0.5586   19.5861 H         1 NAD1        0.0000 
     52 H         -18.5501   -6.0271   19.8711 H         1 NAD1        0.0000 
     53 H         -17.2533   -4.9627   20.5121 H         1 NAD1        0.0000 
     54 H         -18.5155   -4.9577   15.4732 H         1 NAD1        0.0000 
     55 H         -17.1267    7.8798   18.7469 H         1 NAD1        0.0000 
     56 H         -18.4580    6.9613   19.4708 H         1 NAD1        0.0000 
     57 H         -19.0526    9.2930   18.8009 H         1 NAD1        0.0000 
     58 H         -20.5102    7.0700   17.4643 H         1 NAD1        0.0000 
     59 H         -21.7385    8.5654   16.3669 H         1 NAD1        0.0000 
     60 H         -19.8814   10.7281   16.7823 H         1 NAD1        0.0000 
     61 H         -21.7091   11.1651   14.9811 H         1 NAD1        0.0000 
     62 H         -24.1323   12.3820   12.6044 H         1 NAD1        0.0000 
     63 H         -23.1558   11.9688   14.0540 H         1 NAD1        0.0000 
     64 H         -20.3590   10.2584   11.1110 H         1 NAD1        0.0000 
     65 H         -18.7407    8.7037   12.0238 H         1 NAD1        0.0000 
     66 H         -18.5580    8.4233   14.4305 H         1 NAD1        0.0000 
     67 H         -18.5913    1.7625   15.0318 H         1 NAD1        0.0000 
     68 H         -19.4249    0.6074   16.1349 H         1 NAD1        0.0000 
     69 H         -21.8559    8.6685   19.2450 H         1 NAD1        0.0000 
     70 H         -21.1539   10.3717   18.5053 H         1 NAD1        0.0000 
@<TRIPOS>BOND
     1    2    1 ar   
     2    3    1 ar   
     3    4    1 1    
     4   23    1 1    
     5    5    4 1    
     6    6    5 1    
     7   45    5 1    
     8   46    5 1    
     9    7    6 1    
    10    8    6 1    
    11   47    6 1    
    12   12    7 1    
    13    9    8 1    
    14   10    8 1    
    15   48    8 1    
    16   67    9 1    
    17   11   10 1    
    18   12   10 1    
    19   49   10 1    
    20   68   11 1    
    21   13   12 1    
    22   50   12 1    
    23   14   13 1    
    24   22   13 1    
    25   15   14 2    
    26   51   14 1    
    27   16   15 1    
    28   17   16 ar   
    29   22   16 ar   
    30   18   17 1    
    31   19   17 ar   
    32   52   18 1    
    33   53   18 1    
    34   20   19 ar   
    35   21   20 ar   
    36   54   20 1    
    37   22   21 ar   
    38   24   23 1    
    39   25   24 ar   
    40   26   24 ar   
    41   27   24 1    
    42   28   27 1    
    43   29   28 1    
    44   55   28 1    
    45   56   28 1    
    46   30   29 1    
    47   31   29 1    
    48   57   29 1    
    49   35   30 1    
    50   32   31 1    
    51   33   31 1    
    52   58   31 1    
    53   69   32 1    
    54   34   33 1    
    55   35   33 1    
    56   59   33 1    
    57   70   34 1    
    58   36   35 1    
    59   60   35 1    
    60   37   36 ar   
    61   44   36 ar   
    62   38   37 ar   
    63   61   37 1    
    64   39   38 1    
    65   42   38 ar   
    66   40   39 2    
    67   41   39 am   
    68   62   41 1    
    69   63   41 1    
    70   43   42 ar   
    71   64   42 1    
    72   44   43 ar   
    73   65   43 1    
    74   66   44 1    
@<TRIPOS>SUBSTRUCTURE
     1 NAD1        1 GROUP   
@<TRIPOS>SET

