#    Name: 4KC4_1_CAVITY_N1_ALL.mol2
#    Modification time : Tue Mar 11 10:22:49 2014

@<TRIPOS>MOLECULE
4KC4_1_CAVITY_N1_ALL.mol2
  114     0     7     0     0
SMALL
NO_CHARGES


@<TRIPOS>ATOM
      1 CA         17.5877   21.5296   13.2049 C.3       6 GLY6        0.0000 
      2 CZ         18.9395   21.4027   12.5674 C.ar      5 PHE5        0.0000 
      3 CA         15.9998   20.1900   13.6340 C.3       6 GLY6        0.0000 
      4 CZ         18.7035   19.9362   12.3589 C.ar      5 PHE5        0.0000 
      5 CA         18.8058   24.6241   11.6427 C.3       6 GLY6        0.0000 
      6 CA         17.2180   23.2844   12.0717 C.3       6 GLY6        0.0000 
      7 CZ         18.5698   23.1575   11.4342 C.ar      5 PHE5        0.0000 
      8 CA         16.9820   21.8178   11.8632 C.3       6 GLY6        0.0000 
      9 OG         16.7459   20.3513   11.6547 O.2       1 SER1        0.0000 
     10 CA         16.8483   25.0392   10.9386 C.3       6 GLY6        0.0000 
     11 N          18.2001   24.9123   10.3010 N.2       2 ALA2        0.0000 
     12 CA         16.6123   23.5726   10.7301 C.3       6 GLY6        0.0000 
     13 CZ         17.9641   23.4457   10.0925 C.ar      5 PHE5        0.0000 
     14 CZ         16.3762   22.1061   10.5216 C.ar      5 PHE5        0.0000 
     15 CA         14.7884   20.7664   10.9506 C.3       6 GLY6        0.0000 
     16 OG         16.1402   20.6395   10.3131 O.2       1 SER1        0.0000 
     17 CZ         14.5524   19.2998   10.7421 C.ar      5 PHE5        0.0000 
     18 CA         17.5944   25.2005    8.9594 C.3       6 GLY6        0.0000 
     19 CA         16.0065   23.8608    9.3884 C.3       6 GLY6        0.0000 
     20 CZ         17.3584   23.7339    8.7509 C.ar      5 PHE5        0.0000 
     21 CZ         18.7102   23.6070    8.1133 C.ar      5 PHE5        0.0000 
     22 N          14.4187   22.5212    9.8175 N.2       2 ALA2        0.0000 
     23 DU         15.7705   22.3943    9.1799 H         7 CUB7        0.0000 
     24 CZ         17.1224   22.2674    8.5424 C.ar      5 PHE5        0.0000 
     25 CZ         12.8309   21.1815   10.2465 C.ar      5 PHE5        0.0000 
     26 N          14.1827   21.0546    9.6090 N.2       2 ALA2        0.0000 
     27 OG         15.5345   20.9277    8.9714 O.2       1 SER1        0.0000 
     28 CZ         13.9467   19.5880    9.4005 C.ar      5 PHE5        0.0000 
     29 OG         15.2985   19.4611    8.7629 O.2       1 SER1        0.0000 
     30 CZ         12.3589   18.2484    9.8295 C.ar      5 PHE5        0.0000 
     31 CZ         13.7107   18.1215    9.1920 C.ar      5 PHE5        0.0000 
     32 OG         15.0625   17.9946    8.5544 O.2       1 SER1        0.0000 
     33 CZ         10.7710   16.9087   10.2586 C.ar      5 PHE5        0.0000 
     34 CA         16.9887   25.4887    7.6177 C.3       6 GLY6        0.0000 
     35 CA         14.0490   24.2760    8.6843 C.3       6 GLY6        0.0000 
     36 CA         15.4008   24.1491    8.0468 C.3       6 GLY6        0.0000 
     37 CA         16.7527   24.0222    7.4092 C.3       6 GLY6        0.0000 
     38 N          18.1045   23.8953    6.7717 N.2       2 ALA2        0.0000 
     39 CA         13.8130   22.8094    8.4758 C.3       6 GLY6        0.0000 
     40 DU         15.1648   22.6825    7.8383 H         7 CUB7        0.0000 
     41 CZ         16.5167   22.5556    7.2007 C.ar      5 PHE5        0.0000 
     42 CZ         17.8685   22.4287    6.5632 C.ar      5 PHE5        0.0000 
     43 CA         13.5770   21.3428    8.2673 C.3       6 GLY6        0.0000 
     44 DU         14.9288   21.2159    7.6298 H         7 CUB7        0.0000 
     45 CZ         16.2807   21.0890    6.9922 C.ar      5 PHE5        0.0000 
     46 CZ         10.6374   20.1300    9.3339 C.ar      5 PHE5        0.0000 
     47 CZ         11.9892   20.0031    8.6964 C.ar      5 PHE5        0.0000 
     48 DU         13.3410   19.8762    8.0588 H         7 CUB7        0.0000 
     49 DU         14.6928   19.7493    7.4213 H         7 CUB7        0.0000 
     50 CZ         16.0446   19.6224    6.7837 C.ar      5 PHE5        0.0000 
     51 CZ          9.0495   18.7904    9.7630 C.ar      5 PHE5        0.0000 
     52 CZ         10.4013   18.6635    9.1254 C.ar      5 PHE5        0.0000 
     53 CZ         11.7532   18.5366    8.4879 C.ar      5 PHE5        0.0000 
     54 OD1        13.1050   18.4097    7.8503 O.3       3 ASP3        0.0000 
     55 OD1        14.4568   18.2828    7.2128 O.3       3 ASP3        0.0000 
     56 CZ          8.8135   17.3238    9.5545 C.ar      5 PHE5        0.0000 
     57 CZ         10.1653   17.1969    8.9169 C.ar      5 PHE5        0.0000 
     58 DU         11.5172   17.0700    8.2794 H         7 CUB7        0.0000 
     59 OD1        12.8690   16.9431    7.6418 O.3       3 ASP3        0.0000 
     60 CA         14.7951   24.4373    6.7051 C.3       6 GLY6        0.0000 
     61 N          16.1470   24.3104    6.0676 N.2       2 ALA2        0.0000 
     62 CA         13.2073   23.0976    7.1342 C.3       6 GLY6        0.0000 
     63 DU         14.5591   22.9707    6.4966 H         7 CUB7        0.0000 
     64 DU         15.9110   22.8438    5.8591 H         7 CUB7        0.0000 
     65 N          17.2628   22.7169    5.2215 N.2       2 ALA2        0.0000 
     66 OG         12.9713   21.6310    6.9257 O.2       1 SER1        0.0000 
     67 DU         14.3231   21.5041    6.2881 H         7 CUB7        0.0000 
     68 DU         15.6749   21.3772    5.6505 H         7 CUB7        0.0000 
     69 CZ         17.0268   21.2503    5.0130 C.ar      5 PHE5        0.0000 
     70 OG         11.3835   20.2914    7.3547 O.2       1 SER1        0.0000 
     71 OG         12.7353   20.1645    6.7172 O.2       1 SER1        0.0000 
     72 NZ         14.0871   20.0376    6.0796 N.2       4 LYS4        0.0000 
     73 NZ         15.4389   19.9107    5.4420 N.2       4 LYS4        0.0000 
     74 O           8.4438   19.0786    8.4213 O.2       2 ALA2        0.0000 
     75 OG          9.7956   18.9517    7.7838 O.2       1 SER1        0.0000 
     76 OG         11.1475   18.8248    7.1462 O.2       1 SER1        0.0000 
     77 NZ         12.4993   18.6979    6.5087 N.2       4 LYS4        0.0000 
     78 OD1        13.8511   18.5710    5.8711 O.3       3 ASP3        0.0000 
     79 CZ          8.2078   17.6120    8.2128 C.ar      5 PHE5        0.0000 
     80 DU          9.5596   17.4851    7.5753 H         7 CUB7        0.0000 
     81 DU         10.9115   17.3582    6.9377 H         7 CUB7        0.0000 
     82 OD1        12.2633   17.2313    6.3002 O.3       3 ASP3        0.0000 
     83 CZ          9.3236   16.0186    7.3668 C.ar      5 PHE5        0.0000 
     84 DU         10.6755   15.8917    6.7292 H         7 CUB7        0.0000 
     85 CA         20.0172   24.0476   14.3260 C.3       6 GLY6        0.0000 
     86 OD1        18.4294   22.7080   14.7551 O.3       3 ASP3        0.0000 
     87 CA         19.7812   22.5811   14.1175 C.3       6 GLY6        0.0000 
     88 CA         21.1330   22.4542   13.4800 C.3       6 GLY6        0.0000 
     89 CA         16.8415   21.3683   15.1841 C.3       6 GLY6        0.0000 
     90 DU         18.1934   21.2414   14.5466 H         7 CUB7        0.0000 
     91 DU         19.5452   21.1145   13.9090 H         7 CUB7        0.0000 
     92 CA         20.8970   20.9876   13.2715 C.3       6 GLY6        0.0000 
     93 CA         16.4718   23.1231   14.0510 C.3       6 GLY6        0.0000 
     94 CA         17.8237   22.9962   13.4134 C.3       6 GLY6        0.0000 
     95 CA         19.1755   22.8693   12.7759 C.3       6 GLY6        0.0000 
     96 O          20.5273   22.7424   12.1383 O.2       2 ALA2        0.0000 
     97 OD1        13.9534   23.2589    5.1549 O.3       3 ASP3        0.0000 
     98 O          15.3053   23.1320    4.5174 O.2       2 ALA2        0.0000 
     99 O          13.7174   21.7923    4.9464 O.2       2 ALA2        0.0000 
    100 NZ         15.0692   21.6654    4.3089 N.2       4 LYS4        0.0000 
    101 NZ         13.4814   20.3258    4.7379 N.2       4 LYS4        0.0000 
    102 N           7.8381   19.3668    7.0796 N.2       2 ALA2        0.0000 
    103 OG          9.1899   19.2399    6.4421 O.2       1 SER1        0.0000 
    104 OG         10.5418   19.1130    5.8045 O.2       1 SER1        0.0000 
    105 NZ         11.8936   18.9861    5.1670 N.2       4 LYS4        0.0000 
    106 N           7.6021   17.9002    6.8711 N.2       2 ALA2        0.0000 
    107 DU          8.9539   17.7733    6.2336 H         7 CUB7        0.0000 
    108 DU         10.3058   17.6464    5.5960 H         7 CUB7        0.0000 
    109 CZ          7.3661   16.4337    6.6626 C.ar      5 PHE5        0.0000 
    110 NZ          8.7179   16.3068    6.0251 N.2       4 LYS4        0.0000 
    111 NZ          8.5842   19.5281    5.1004 N.2       4 LYS4        0.0000 
    112 O           9.9361   19.4012    4.4629 O.2       2 ALA2        0.0000 
    113 NZ          8.3482   18.0616    4.8919 N.2       4 LYS4        0.0000 
    114 NZ          9.7001   17.9347    4.2544 N.2       4 LYS4        0.0000 
@<TRIPOS>BOND
@<TRIPOS>SUBSTRUCTURE
     1 SER1        9 GROUP   
     2 ALA2       11 GROUP   
     3 ASP3       54 GROUP   
     4 LYS4       72 GROUP   
     5 PHE5        2 GROUP   
     6 GLY6        1 GROUP   
     7 CUB7       23 GROUP   
@<TRIPOS>SET

