#    Name: 4kc4_WS3_1_INTS_M
#    Modification time : Tue Mar 25 07:43:48 2014

@<TRIPOS>MOLECULE
4kc4_WS3_1_INTS_M
   52     0    12     0     0
SMALL
NO_CHARGES


@<TRIPOS>ATOM
      1 O          19.4555   24.7545    9.3090 O.2       1 ALC1        0.0000 
      2 O          18.1520   24.2200    9.0960 O.2       9 ALL1        0.0000 
      3 O          20.7590   25.2890    9.5220 O.2       5 ALP1        0.0000 
      4 N          19.2910   25.6720    7.0425 N.am      2 SEC2        0.0000 
      5 N          18.2980   24.7080    6.9240 N.am     10 SEL2        0.0000 
      6 N          20.2840   26.6360    7.1610 N.am      6 SEP2        0.0000 
      7 CA         15.1920   22.3650   11.5875 C.3       4 GLC5        0.0000 
      8 CA         16.3280   22.9170    9.8680 C.3      12 GLL5        0.0000 
      9 CA         14.0560   21.8130   13.3070 C.3       8 GLP5        0.0000 
     10 CA         16.2175   25.1600    4.9200 C.3       4 GLC5        0.0000 
     11 CA         16.0000   23.3880    6.1590 C.3      12 GLL5        0.0000 
     12 CA         16.4350   26.9320    3.6810 C.3       8 GLP5        0.0000 
     13 CA         15.5890   24.9180    7.7075 C.3       4 GLC5        0.0000 
     14 CA         15.1780   26.4480    9.2560 C.3       8 GLP5        0.0000 
     15 CA         18.2425   21.5400    6.1720 C.3       4 GLC5        0.0000 
     16 CA         16.8830   22.5090    5.2720 C.3      12 GLL5        0.0000 
     17 CA         19.6020   20.5710    7.0720 C.3       8 GLP5        0.0000 
     18 N          17.4135   21.9610    2.6435 N.am      2 SEC2        0.0000 
     19 N          16.9270   22.9990    3.9170 N.am     10 SEL2        0.0000 
     20 N          17.9000   20.9230    1.3700 N.am      6 SEP2        0.0000 
     21 O          17.8320   23.9255    3.8325 O.2       1 ALC1        0.0000 
     22 O          16.9270   22.9990    3.9170 O.2       9 ALL1        0.0000 
     23 O          18.7370   24.8520    3.7480 O.2       5 ALP1        0.0000 
     24 CA         17.4795   20.3820    6.4525 C.3       4 GLC5        0.0000 
     25 CA         16.1380   21.1990    5.2740 C.3      12 GLL5        0.0000 
     26 CA         18.8210   19.5650    7.6310 C.3       8 GLP5        0.0000 
     27 CA         15.6255   20.2705    3.3620 C.3       4 GLC5        0.0000 
     28 CA         15.1130   19.3420    1.4500 C.3       8 GLP5        0.0000 
     29 N          17.1910   20.6740    2.7455 N.am      2 SEC2        0.0000 
     30 N          16.4820   20.4250    4.1210 N.am     10 SEL2        0.0000 
     31 O          16.9410   19.0330    3.8600 O.2       1 ALC1        0.0000 
     32 O          16.4820   20.4250    4.1210 O.2       9 ALL1        0.0000 
     33 O          17.4000   17.6410    3.5990 O.2       5 ALP1        0.0000 
     34 Zn         15.3425   17.2910    5.6640 Zn        3 ZIC7        0.0000 
     35 Zn         15.1270   18.3300    5.7810 Zn       11 ZIL7        0.0000 
     36 Zn         15.5580   16.2520    5.5470 Zn        7 ZIP7        0.0000 
     37 Zn         15.5210   16.4730    6.7570 Zn        3 ZIC7        0.0000 
     38 Zn         15.4840   16.6940    7.9670 Zn       11 ZIL7        0.0000 
     39 CA         17.5660   11.4025    3.8235 C.3       4 GLC5        0.0000 
     40 CA         17.5560   11.5590    5.9460 C.3      12 GLL5        0.0000 
     41 CA         17.5760   11.2460    1.7010 C.3       8 GLP5        0.0000 
     42 N          19.0040    9.4635    4.6365 N.am      2 SEC2        0.0000 
     43 N          18.7500   10.8170    5.6570 N.am     10 SEL2        0.0000 
     44 N          19.2580    8.1100    3.6160 N.am      6 SEP2        0.0000 
     45 CA         17.6520   21.6752    9.5188 C.3       4 GLC5        0.0000 
     46 CA         19.2240   20.4720    9.8210 C.3       8 GLP5        0.0000 
     47 CA         15.6290   24.6632    9.2363 C.3       4 GLC5        0.0000 
     48 CA         18.3098   21.8295    4.3640 C.3       4 GLC5        0.0000 
     49 CA         20.1090   21.8050    3.4550 C.3       8 GLP5        0.0000 
     50 CA         19.9830   10.2782    9.0840 C.3       4 GLC5        0.0000 
     51 CA         18.4430   11.1850    8.2530 C.3      12 GLL5        0.0000 
     52 CA         21.5600    9.1400    9.1940 C.3       8 GLP5        0.0000 
@<TRIPOS>BOND
@<TRIPOS>SUBSTRUCTURE
     1 ALC1        1 GROUP        1 X    ALC  0     ROOT ALC X 1
     2 SEC2        4 GROUP        1 X    SEC  0     **** SEC X 2
     3 ZIC7       34 GROUP        1 X    ZIC  0     **** ZIC X 5
     4 GLC5        7 GROUP        1 X    GLC  0     **** GLC X 6
     5 ALP1        3 GROUP        1 Y    ALP  0     ROOT ALP Y 8
     6 SEP2        6 GROUP        1 Y    SEP  0     **** SEP Y 9
     7 ZIP7       36 GROUP        1 Y    ZIP  0     **** ZIP Y 12
     8 GLP5        9 GROUP        1 Y    GLP  0     **** GLP Y 13
     9 ALL1        2 GROUP        1 Z    ALL  0     ROOT ALL Z 15
    10 SEL2        5 GROUP        1 Z    SEL  0     **** SEL Z 16
    11 ZIL7       35 GROUP        1 Z    ZIL  0     **** ZIL Z 19
    12 GLL5        8 GROUP        1 Z    GLL  0     **** GLL Z 20
@<TRIPOS>SET

