#    Name: 4kc4_WS3_1_ligand
#    Modification time : Tue Mar 25 07:43:48 2014

@<TRIPOS>MOLECULE
4kc4_WS3_1_ligand
   66    69     1     0     0
SMALL
NO_CHARGES


@<TRIPOS>ATOM
      1 O4         17.9710   23.7190   11.2720 O.2       1 WS3403      0.0000 
      2 C4         17.5040   23.6300   10.1120 C.2       1 WS3403      0.0000 
      3 N3         18.1520   24.2200    9.0960 N.am      1 WS3403      0.0000 
      4 C2         17.6810   24.1460    7.8420 C.2       1 WS3403      0.0000 
      5 O2         18.2980   24.7080    6.9240 O.2       1 WS3403      0.0000 
      6 C5         16.3280   22.9170    9.8680 C.2       1 WS3403      0.0000 
      7 C6         15.8320   22.8400    8.5650 C.2       1 WS3403      0.0000 
      8 N1         16.4920   23.4360    7.5500 N.am      1 WS3403      0.0000 
      9 C11        16.0000   23.3880    6.1590 C.3       1 WS3403      0.0000 
     10 O44        14.6800   22.8300    6.1120 O.3       1 WS3403      0.0000 
     11 C22        16.8830   22.5090    5.2720 C.3       1 WS3403      0.0000 
     12 O22        16.9270   22.9990    3.9170 O.3       1 WS3403      0.0000 
     13 C33        16.1380   21.1990    5.2740 C.3       1 WS3403      0.0000 
     14 O33        16.4820   20.4250    4.1210 O.3       1 WS3403      0.0000 
     15 C44        14.6830   21.6600    5.2850 C.3       1 WS3403      0.0000 
     16 C55        13.6480   20.6540    5.7940 C.3       1 WS3403      0.0000 
     17 N11        14.1080   19.9340    6.9710 N.am      1 WS3403      0.0000 
     18 C12        14.7070   18.7480    6.8620 C.2       1 WS3403      0.0000 
     19 O13        15.1270   18.3300    5.7810 O.2       1 WS3403      0.0000 
     20 C14        14.8800   17.9010    8.0900 C.ar      1 WS3403      0.0000 
     21 C15        14.4290   18.3410    9.3390 C.ar      1 WS3403      0.0000 
     22 C16        14.6070   17.5240   10.4560 C.ar      1 WS3403      0.0000 
     23 C17        15.2320   16.2860   10.3010 C.ar      1 WS3403      0.0000 
     24 C18        15.6680   15.8820    9.0360 C.ar      1 WS3403      0.0000 
     25 N19        15.4840   16.6940    7.9670 N.ar      1 WS3403      0.0000 
     26 C20        16.3460   14.5400    8.8610 C.3       1 WS3403      0.0000 
     27 O1'        15.6930   13.5670    9.6440 O.3       1 WS3403      0.0000 
     28 C1'        15.9220   12.2090    9.2520 C.3       1 WS3403      0.0000 
     29 O5'        16.2120   12.0750    7.8480 O.3       1 WS3403      0.0000 
     30 C5'        17.5660   12.0710    7.3870 C.3       1 WS3403      0.0000 
     31 C6'        17.5560   11.5590    5.9460 C.3       1 WS3403      0.0000 
     32 O6'        18.7500   10.8170    5.6570 O.3       1 WS3403      0.0000 
     33 C4'        18.4430   11.1850    8.2530 C.3       1 WS3403      0.0000 
     34 O4'        17.9900    9.8290    8.1560 O.3       1 WS3403      0.0000 
     35 C3'        18.3690   11.6480    9.6950 C.3       1 WS3403      0.0000 
     36 O3'        19.1810   10.8040   10.5140 O.3       1 WS3403      0.0000 
     37 C2'        16.9370   11.5580   10.1910 C.3       1 WS3403      0.0000 
     38 O2'        16.8390   12.1890   11.4710 O.3       1 WS3403      0.0000 
     39 H          19.0410   24.7475    9.2852 H         1 WS3403      0.0000 
     40 H          15.8356   22.4563   10.6356 H         1 WS3403      0.0000 
     41 H          14.9524   22.3184    8.3984 H         1 WS3403      0.0000 
     42 H          15.9980   24.3815    5.7309 H         1 WS3403      0.0000 
     43 H          17.8120   22.3817    5.7179 H         1 WS3403      0.0000 
     44 H          16.3372   20.7095    6.1970 H         1 WS3403      0.0000 
     45 H          14.4215   21.9519    4.2656 H         1 WS3403      0.0000 
     46 H          13.4210   19.9560    4.9698 H         1 WS3403      0.0000 
     47 H          12.7172   21.2063    6.0097 H         1 WS3403      0.0000 
     48 H          13.9430   20.3944    7.8846 H         1 WS3403      0.0000 
     49 H          13.9745   19.2509    9.4306 H         1 WS3403      0.0000 
     50 H          14.2840   17.8282   11.3755 H         1 WS3403      0.0000 
     51 H          15.3713   15.6744   11.1113 H         1 WS3403      0.0000 
     52 H          17.4024   14.6575    9.1464 H         1 WS3403      0.0000 
     53 H          16.3237   14.2895    7.7896 H         1 WS3403      0.0000 
     54 H          14.9480   11.6467    9.4560 H         1 WS3403      0.0000 
     55 H          17.9750   13.0679    7.3763 H         1 WS3403      0.0000 
     56 H          17.4522   12.4299    5.2820 H         1 WS3403      0.0000 
     57 H          16.6558   10.9401    5.8169 H         1 WS3403      0.0000 
     58 H          19.4605   11.2801    7.9147 H         1 WS3403      0.0000 
     59 H          18.6856   12.6696    9.7500 H         1 WS3403      0.0000 
     60 H          16.6734   10.5021   10.2833 H         1 WS3403      0.0000 
     61 H          17.8710   23.2995    3.7811 H         1 WS3403      0.0000 
     62 H          16.6053   19.4932    4.4623 H         1 WS3403      0.0000 
     63 H          18.8807   10.2189    6.4477 H         1 WS3403      0.0000 
     64 H          18.4308    9.3539    8.9176 H         1 WS3403      0.0000 
     65 H          20.0939   10.8508   10.1085 H         1 WS3403      0.0000 
     66 H          16.5802   13.1347   11.2740 H         1 WS3403      0.0000 
@<TRIPOS>BOND
     1    2    1 2    
     2    3    2 1    
     3    6    2 1    
     4    4    3 1    
     5   39    3 1    
     6    5    4 2    
     7    8    4 1    
     8    7    6 2    
     9   40    6 1    
    10    8    7 1    
    11   41    7 1    
    12    9    8 1    
    13   10    9 1    
    14   11    9 1    
    15   42    9 1    
    16   15   10 1    
    17   12   11 1    
    18   13   11 1    
    19   43   11 1    
    20   61   12 1    
    21   14   13 1    
    22   15   13 1    
    23   44   13 1    
    24   62   14 1    
    25   16   15 1    
    26   45   15 1    
    27   17   16 1    
    28   46   16 1    
    29   47   16 1    
    30   18   17 am   
    31   48   17 1    
    32   19   18 2    
    33   20   18 1    
    34   21   20 ar   
    35   25   20 ar   
    36   22   21 ar   
    37   49   21 1    
    38   23   22 ar   
    39   50   22 1    
    40   24   23 ar   
    41   51   23 1    
    42   25   24 ar   
    43   26   24 1    
    44   27   26 1    
    45   52   26 1    
    46   53   26 1    
    47   28   27 1    
    48   29   28 1    
    49   37   28 1    
    50   54   28 1    
    51   30   29 1    
    52   31   30 1    
    53   33   30 1    
    54   55   30 1    
    55   32   31 1    
    56   56   31 1    
    57   57   31 1    
    58   63   32 1    
    59   34   33 1    
    60   35   33 1    
    61   58   33 1    
    62   64   34 1    
    63   36   35 1    
    64   37   35 1    
    65   59   35 1    
    66   65   36 1    
    67   38   37 1    
    68   60   37 1    
    69   66   38 1    
@<TRIPOS>SUBSTRUCTURE
     1 WS3403      1 GROUP   
@<TRIPOS>SET

