#    Name: 3v2u_ATP_2_INTS_M
#    Modification time : Mon Mar 24 23:55:05 2014

@<TRIPOS>MOLECULE
3v2u_ATP_2_INTS_M
   65     0    12     0     0
SMALL
NO_CHARGES


@<TRIPOS>ATOM
      1 NZ        -24.8525   36.3550   17.2840 N.4       2 LYC4        0.0000 
      2 NZ        -24.4730   37.4640   18.1750 N.4      10 LYL4        0.0000 
      3 NZ        -25.2320   35.2460   16.3930 N.4       6 LYP4        0.0000 
      4 Zn        -23.5160   36.9375   17.9475 Zn        3 ZIC7        0.0000 
      5 Zn        -24.4730   37.4640   18.1750 Zn       11 ZIL7        0.0000 
      6 Zn        -22.5590   36.4110   17.7200 Zn        7 ZIP7        0.0000 
      7 N         -24.8525   36.3550   17.2840 N.am      1 SEC2        0.0000 
      8 N         -24.4730   37.4640   18.1750 N.am      9 SEL2        0.0000 
      9 N         -25.2320   35.2460   16.3930 N.am      5 SEP2        0.0000 
     10 NZ        -24.5185   40.0425   19.5765 N.4       2 LYC4        0.0000 
     11 NZ        -24.4510   38.8310   20.1710 N.4      10 LYL4        0.0000 
     12 NZ        -24.0430   42.2400   19.6960 N.4       6 LYP4        0.0000 
     13 N         -24.5185   40.0425   19.5765 N.am      1 SEC2        0.0000 
     14 N         -24.4510   38.8310   20.1710 N.am      9 SEL2        0.0000 
     15 N         -24.5860   41.2540   18.9820 N.am      5 SEP2        0.0000 
     16 N         -23.3010   39.2280   20.8975 N.am      1 SEC2        0.0000 
     17 N         -22.1510   39.6250   21.6240 N.am      5 SEP2        0.0000 
     18 N         -27.6585   38.4115   19.1180 N.am      1 SEC2        0.0000 
     19 N         -26.5390   37.5440   19.5580 N.am      9 SEL2        0.0000 
     20 N         -28.7780   39.2790   18.6780 N.am      5 SEP2        0.0000 
     21 N         -23.7885   36.5600   22.9965 N.am      1 SEC2        0.0000 
     22 N         -22.6900   36.2850   22.1770 N.am      9 SEL2        0.0000 
     23 N         -24.8870   36.8350   23.8160 N.am      5 SEP2        0.0000 
     24 N         -21.3800   37.0640   21.8575 N.am      1 SEC2        0.0000 
     25 N         -20.0700   37.8430   21.5380 N.am      5 SEP2        0.0000 
     26 Zn        -22.2650   36.4480   18.7730 Zn        3 ZIC7        0.0000 
     27 Zn        -21.9710   36.4850   19.8260 Zn       11 ZIL7        0.0000 
     28 N         -20.6165   36.1725   19.7445 N.am      1 SEC2        0.0000 
     29 N         -21.9710   36.4850   19.8260 N.am      9 SEL2        0.0000 
     30 N         -19.2620   35.8600   19.6630 N.am      5 SEP2        0.0000 
     31 N         -24.7265   36.6330   22.1225 N.am      1 SEC2        0.0000 
     32 N         -24.5660   36.4310   20.4290 N.am      9 SEL2        0.0000 
     33 NZ        -25.0850   34.1620   17.9380 N.4       2 LYC4        0.0000 
     34 NZ        -24.9380   33.0780   19.4830 N.4      10 LYL4        0.0000 
     35 NZ        -24.2955   34.8035   17.3025 N.4       2 LYC4        0.0000 
     36 NZ        -23.3590   34.3610   18.2120 N.4      10 LYL4        0.0000 
     37 Zn        -22.9590   35.3860   17.9660 Zn        3 ZIC7        0.0000 
     38 Zn        -23.3590   34.3610   18.2120 Zn       11 ZIL7        0.0000 
     39 N         -24.2955   34.8035   17.3025 N.am      1 SEC2        0.0000 
     40 N         -23.3590   34.3610   18.2120 N.am      9 SEL2        0.0000 
     41 CA        -19.3825   27.6750   22.8625 C.3       4 GLC5        0.0000 
     42 CA        -20.1200   28.7560   21.2470 C.3      12 GLL5        0.0000 
     43 CA        -18.6450   26.5940   24.4780 C.3       8 GLP5        0.0000 
     44 CA        -18.5950   31.9205   21.7730 C.3       4 GLC5        0.0000 
     45 CA        -19.2870   29.9860   21.1840 C.3      12 GLL5        0.0000 
     46 CA        -17.9030   33.8550   22.3620 C.3       8 GLP5        0.0000 
     47 CA        -14.8940   32.3655   24.2375 C.3       4 GLC5        0.0000 
     48 CA        -16.3050   30.9720   24.8410 C.3      12 GLL5        0.0000 
     49 CA        -13.4830   33.7590   23.6340 C.3       8 GLP5        0.0000 
     50 CA        -17.4390   32.6865   24.7840 C.3       4 GLC5        0.0000 
     51 CA        -18.5730   34.4010   24.7270 C.3       8 GLP5        0.0000 
     52 N         -14.1080   29.9035   24.6170 N.am      1 SEC2        0.0000 
     53 N         -15.1480   30.8090   24.1610 N.am      9 SEL2        0.0000 
     54 N         -13.0680   28.9980   25.0730 N.am      5 SEP2        0.0000 
     55 CA        -14.3340   32.1190   23.2440 C.3       4 GLC5        0.0000 
     56 CA        -15.1850   30.4790   22.8540 C.3      12 GLL5        0.0000 
     57 CA        -15.7015   28.5905   21.9625 C.3       4 GLC5        0.0000 
     58 CA        -16.2180   26.7020   21.0710 C.3       8 GLP5        0.0000 
     59 CA        -16.5440   32.1670   22.6080 C.3       4 GLC5        0.0000 
     60 CA        -16.8715   28.5750   21.9695 C.3       4 GLC5        0.0000 
     61 CA        -17.5250   30.4480   22.8680 C.3      12 GLL5        0.0000 
     62 CA        -17.9607   28.0365   21.1433 C.3       4 GLC5        0.0000 
     63 CA        -17.7172   32.2383   22.9510 C.3       4 GLC5        0.0000 
     64 CA        -19.9025   29.7771   19.1562 C.3       4 GLC5        0.0000 
     65 CA        -19.2580   29.9520   17.3420 C.3       8 GLP5        0.0000 
@<TRIPOS>BOND
@<TRIPOS>SUBSTRUCTURE
     1 SEC2        7 GROUP        1 X    SEC  0     ROOT SEC X 2
     2 LYC4        1 GROUP        1 X    LYC  0     **** LYC X 4
     3 ZIC7        4 GROUP        1 X    ZIC  0     **** ZIC X 5
     4 GLC5       41 GROUP        1 X    GLC  0     **** GLC X 6
     5 SEP2        9 GROUP        1 Y    SEP  0     ROOT SEP Y 9
     6 LYP4        3 GROUP        1 Y    LYP  0     **** LYP Y 11
     7 ZIP7        6 GROUP        1 Y    ZIP  0     **** ZIP Y 12
     8 GLP5       43 GROUP        1 Y    GLP  0     **** GLP Y 13
     9 SEL2        8 GROUP        1 Z    SEL  0     ROOT SEL Z 16
    10 LYL4        2 GROUP        1 Z    LYL  0     **** LYL Z 18
    11 ZIL7        5 GROUP        1 Z    ZIL  0     **** ZIL Z 19
    12 GLL5       42 GROUP        1 Z    GLL  0     **** GLL Z 20
@<TRIPOS>SET

