#    Name: 3v2u_ATP_2_ligand
#    Modification time : Mon Mar 24 23:55:06 2014

@<TRIPOS>MOLECULE
3v2u_ATP_2_ligand
   43    45     1     0     0
SMALL
NO_CHARGES


@<TRIPOS>ATOM
      1 PG        -24.9890   37.5660   19.5670 P.3       1 ATP523      0.0000 
      2 O1G       -24.4730   37.4640   18.1750 O.co2     1 ATP523      0.0000 
      3 O2G       -24.4510   38.8310   20.1710 O.co2     1 ATP523      0.0000 
      4 O3G       -26.5390   37.5440   19.5580 O.co2     1 ATP523      0.0000 
      5 PB        -23.1070   35.9440   20.7530 P.3       1 ATP523      0.0000 
      6 O1B       -22.6900   36.2850   22.1770 O.co2     1 ATP523      0.0000 
      7 O2B       -21.9710   36.4850   19.8260 O.co2     1 ATP523      0.0000 
      8 O3B       -24.5660   36.4310   20.4290 O.3       1 ATP523      0.0000 
      9 PA        -23.5180   33.5540   19.4170 P.3       1 ATP523      0.0000 
     10 O1A       -24.9380   33.0780   19.4830 O.co2     1 ATP523      0.0000 
     11 O2A       -23.3590   34.3610   18.2120 O.co2     1 ATP523      0.0000 
     12 O3A       -23.1550   34.3800   20.7100 O.3       1 ATP523      0.0000 
     13 O5'       -22.4730   32.3270   19.4010 O.3       1 ATP523      0.0000 
     14 C5'       -22.3730   31.4090   20.4660 C.3       1 ATP523      0.0000 
     15 C4'       -21.3230   30.4360   20.2800 C.3       1 ATP523      0.0000 
     16 O4'       -20.1010   31.0090   20.5990 O.3       1 ATP523      0.0000 
     17 C3'       -21.4580   29.2310   21.1710 C.3       1 ATP523      0.0000 
     18 O3'       -22.2570   28.2910   20.5450 O.3       1 ATP523      0.0000 
     19 C2'       -20.1200   28.7560   21.2470 C.3       1 ATP523      0.0000 
     20 O2'       -19.7960   27.9630   20.1520 O.3       1 ATP523      0.0000 
     21 C1'       -19.2870   29.9860   21.1840 C.3       1 ATP523      0.0000 
     22 N9        -18.8250   30.3470   22.4970 N.pl3     1 ATP523      0.0000 
     23 C8        -19.6050   30.6030   23.5510 C.2       1 ATP523      0.0000 
     24 N7        -18.8270   30.8810   24.6050 N.2       1 ATP523      0.0000 
     25 C5        -17.5380   30.7950   24.2120 C.ar      1 ATP523      0.0000 
     26 C6        -16.3050   30.9720   24.8410 C.ar      1 ATP523      0.0000 
     27 N6        -16.2960   31.3430   26.2490 N.pl3     1 ATP523      0.0000 
     28 N1        -15.1480   30.8090   24.1610 N.ar      1 ATP523      0.0000 
     29 C2        -15.1850   30.4790   22.8540 C.ar      1 ATP523      0.0000 
     30 N3        -16.3490   30.2950   22.2140 N.ar      1 ATP523      0.0000 
     31 C4        -17.5250   30.4480   22.8680 C.ar      1 ATP523      0.0000 
     32 H         -23.3468   30.8729   20.6128 H         1 ATP523      0.0000 
     33 H         -22.2036   31.9497   21.4336 H         1 ATP523      0.0000 
     34 H         -21.3134   30.0818   19.2510 H         1 ATP523      0.0000 
     35 H         -21.8053   29.5498   22.1100 H         1 ATP523      0.0000 
     36 H         -19.9347   28.2797   22.1806 H         1 ATP523      0.0000 
     37 H         -18.4414   29.7743   20.5299 H         1 ATP523      0.0000 
     38 H         -20.5773   30.5901   23.5543 H         1 ATP523      0.0000 
     39 H         -17.1906   31.4239   26.6885 H         1 ATP523      0.0000 
     40 H         -15.3959   31.4864   26.6605 H         1 ATP523      0.0000 
     41 H         -14.2802   30.3643   22.3285 H         1 ATP523      0.0000 
     42 H         -21.6180   27.6636   20.0998 H         1 ATP523      0.0000 
     43 H         -19.7969   28.5876   19.3710 H         1 ATP523      0.0000 
@<TRIPOS>BOND
     1    2    1 ar   
     2    3    1 ar   
     3    4    1 ar   
     4    8    1 1    
     5    6    5 ar   
     6    7    5 ar   
     7    8    5 1    
     8   12    5 1    
     9   10    9 ar   
    10   11    9 ar   
    11   12    9 1    
    12   13    9 1    
    13   14   13 1    
    14   15   14 1    
    15   32   14 1    
    16   33   14 1    
    17   16   15 1    
    18   17   15 1    
    19   34   15 1    
    20   21   16 1    
    21   18   17 1    
    22   19   17 1    
    23   35   17 1    
    24   42   18 1    
    25   20   19 1    
    26   21   19 1    
    27   36   19 1    
    28   43   20 1    
    29   22   21 1    
    30   37   21 1    
    31   23   22 1    
    32   31   22 1    
    33   24   23 2    
    34   38   23 1    
    35   25   24 1    
    36   26   25 ar   
    37   31   25 ar   
    38   27   26 1    
    39   28   26 ar   
    40   39   27 1    
    41   40   27 1    
    42   29   28 ar   
    43   30   29 ar   
    44   41   29 1    
    45   31   30 ar   
@<TRIPOS>SUBSTRUCTURE
     1 ATP523      1 GROUP   
@<TRIPOS>SET

