#    Name: 4gj3_0XP_1_INTS_M
#    Modification time : Mon Mar 24 22:17:38 2014

@<TRIPOS>MOLECULE
4gj3_0XP_1_INTS_M
   66     0     9     0     0
SMALL
NO_CHARGES


@<TRIPOS>ATOM
      1 CA        -11.3475  -12.5610  -15.0315 C.3       3 GLC5        0.0000 
      2 CA        -10.1590  -10.8300  -15.3970 C.3       9 GLL5        0.0000 
      3 CA        -12.5360  -14.2920  -14.6660 C.3       6 GLP5        0.0000 
      4 CA        -12.1875  -10.4590  -15.6820 C.3       3 GLC5        0.0000 
      5 CA        -14.2160  -10.0880  -15.9670 C.3       6 GLP5        0.0000 
      6 N         -11.7160  -12.0845  -16.4685 N.am      2 SEC2        0.0000 
      7 N         -10.2190  -11.4610  -16.5650 N.am      8 SEL2        0.0000 
      8 N         -13.2130  -12.7080  -16.3720 N.am      5 SEP2        0.0000 
      9 CA         -8.0645   -2.4995  -16.7900 C.3       3 GLC5        0.0000 
     10 CA         -6.4130   -3.6810  -16.1360 C.3       9 GLL5        0.0000 
     11 CA         -9.7160   -1.3180  -17.4440 C.3       6 GLP5        0.0000 
     12 CA         -3.6795   -4.5055  -14.3905 C.3       3 GLC5        0.0000 
     13 CA         -4.5140   -5.1790  -16.3650 C.3       9 GLL5        0.0000 
     14 CA         -2.8450   -3.8320  -12.4160 C.3       6 GLP5        0.0000 
     15 CA         -4.5110   -9.7890  -16.3320 C.3       3 GLC5        0.0000 
     16 CA         -4.6060   -7.8380  -15.9560 C.3       9 GLL5        0.0000 
     17 CA         -4.4160  -11.7400  -16.7080 C.3       6 GLP5        0.0000 
     18 CA         -2.8960   -8.1285  -16.4150 C.3       3 GLC5        0.0000 
     19 CA         -1.1860   -8.4190  -16.8740 C.3       6 GLP5        0.0000 
     20 CA         -4.4395   -8.6545  -14.4270 C.3       3 GLC5        0.0000 
     21 CA         -4.2730   -9.4710  -12.8980 C.3       6 GLP5        0.0000 
     22 CA         -5.0785   -1.2470  -18.2015 C.3       3 GLC5        0.0000 
     23 CA         -4.2310   -2.7840  -16.8040 C.3       9 GLL5        0.0000 
     24 CA         -5.9260    0.2900  -19.5990 C.3       6 GLP5        0.0000 
     25 N          -3.5110   -0.9350  -18.3335 N.am      2 SEC2        0.0000 
     26 N          -3.5700   -1.9080  -17.0950 N.am      8 SEL2        0.0000 
     27 N          -3.4520    0.0380  -19.5720 N.am      5 SEP2        0.0000 
     28 N          -4.2480   -0.9680  -15.8855 N.am      2 SEC2        0.0000 
     29 N          -4.9260   -0.0280  -14.6760 N.am      5 SEP2        0.0000 
     30 CA         -9.3110   -2.8810  -16.4470 C.3       3 GLC5        0.0000 
     31 CA         -8.9060   -4.4440  -15.4500 C.3       9 GLL5        0.0000 
     32 CA        -10.3690   -5.7685  -15.7905 C.3       3 GLC5        0.0000 
     33 CA        -11.8320   -7.0930  -16.1310 C.3       6 GLP5        0.0000 
     34 CA        -10.5615   -4.2605  -14.6355 C.3       3 GLC5        0.0000 
     35 CA        -12.2170   -4.0770  -13.8210 C.3       6 GLP5        0.0000 
     36 CA         -8.4665   -3.1865  -14.1025 C.3       3 GLC5        0.0000 
     37 CA         -8.0270   -1.9290  -12.7550 C.3       6 GLP5        0.0000 
     38 O         -10.9825  -12.1115  -18.9585 O.2       1 ALC1        0.0000 
     39 O          -9.6660  -11.7610  -18.8310 O.2       7 ALL1        0.0000 
     40 O         -12.2990  -12.4620  -19.0860 O.2       4 ALP1        0.0000 
     41 CA         -6.3095  -14.0105  -19.3085 C.3       3 GLC5        0.0000 
     42 CA         -7.2530  -14.3110  -20.6290 C.3       9 GLL5        0.0000 
     43 CA         -5.3660  -13.7100  -17.9880 C.3       6 GLP5        0.0000 
     44 CA         -9.4127  -11.5140  -13.9775 C.3       3 GLC5        0.0000 
     45 CA         -9.0710  -12.7560  -12.6430 C.3       6 GLP5        0.0000 
     46 CA        -11.1967   -9.4415  -14.0190 C.3       3 GLC5        0.0000 
     47 CA        -12.6390   -8.6110  -12.7260 C.3       6 GLP5        0.0000 
     48 CA        -10.7933   -8.6825  -15.7215 C.3       3 GLC5        0.0000 
     49 CA         -9.8902  -10.0963  -19.5592 C.3       3 GLC5        0.0000 
     50 CA         -9.5060  -11.0690  -17.6230 C.3       9 GLL5        0.0000 
     51 CA        -10.6740   -9.6940  -21.5400 C.3       6 GLP5        0.0000 
     52 CA         -9.7221   -8.3814  -17.6104 C.3       3 GLC5        0.0000 
     53 CA         -8.5880   -9.2470  -16.3170 C.3       9 GLL5        0.0000 
     54 CA        -10.5970   -6.8900  -18.2730 C.3       6 GLP5        0.0000 
     55 CA         -5.2490   -7.1132  -14.0855 C.3       3 GLC5        0.0000 
     56 CA         -6.6730   -6.0450  -15.6910 C.3       9 GLL5        0.0000 
     57 CA         -4.5050   -8.0780  -12.3210 C.3       6 GLP5        0.0000 
     58 CA         -7.4230   -3.0718  -14.3580 C.3       3 GLC5        0.0000 
     59 CA         -7.2250   -4.7480  -15.7860 C.3       9 GLL5        0.0000 
     60 CA         -9.7125  -11.2245  -21.5855 C.3       3 GLC5        0.0000 
     61 CA         -9.1760  -12.7790  -20.9950 C.3       9 GLL5        0.0000 
     62 CA         -9.0081  -14.6629  -19.5817 C.3       3 GLC5        0.0000 
     63 CA        -10.0040  -15.4750  -18.2470 C.3       6 GLP5        0.0000 
     64 CA         -7.8089  -11.5295  -16.3042 C.3       3 GLC5        0.0000 
     65 CA         -8.7070   -9.9280  -17.5340 C.3       9 GLL5        0.0000 
     66 CA         -6.4790  -12.9300  -15.9120 C.3       6 GLP5        0.0000 
@<TRIPOS>BOND
@<TRIPOS>SUBSTRUCTURE
     1 ALC1       38 GROUP        1 X    ALC  0     ROOT ALC X 1
     2 SEC2        6 GROUP        1 X    SEC  0     **** SEC X 2
     3 GLC5        1 GROUP        1 X    GLC  0     **** GLC X 6
     4 ALP1       40 GROUP        1 Y    ALP  0     ROOT ALP Y 8
     5 SEP2        8 GROUP        1 Y    SEP  0     **** SEP Y 9
     6 GLP5        3 GROUP        1 Y    GLP  0     **** GLP Y 13
     7 ALL1       39 GROUP        1 Z    ALL  0     ROOT ALL Z 15
     8 SEL2        7 GROUP        1 Z    SEL  0     **** SEL Z 16
     9 GLL5        2 GROUP        1 Z    GLL  0     **** GLL Z 20
@<TRIPOS>SET

