#    Name: 4gj3_0XP_1_ligand
#    Modification time : Mon Mar 24 22:17:38 2014

@<TRIPOS>MOLECULE
4gj3_0XP_1_ligand
   37    39     1     0     0
SMALL
NO_CHARGES


@<TRIPOS>ATOM
      1 C1         -9.3500   -9.7140  -15.2270 C.ar      1 0XP1201     0.0000 
      2 C2        -10.1590  -10.8300  -15.3970 C.ar      1 0XP1201     0.0000 
      3 N3        -10.2190  -11.4610  -16.5650 N.ar      1 0XP1201     0.0000 
      4 C4         -9.5060  -11.0690  -17.6230 C.ar      1 0XP1201     0.0000 
      5 C5         -8.7070   -9.9280  -17.5340 C.ar      1 0XP1201     0.0000 
      6 C6         -8.5880   -9.2470  -16.3170 C.ar      1 0XP1201     0.0000 
      7 N7         -7.7790   -8.0990  -16.3170 N.am      1 0XP1201     0.0000 
      8 C8         -7.5430   -7.1890  -15.3400 C.2       1 0XP1201     0.0000 
      9 O9         -8.0030   -7.2710  -14.2150 O.2       1 0XP1201     0.0000 
     10 C10        -6.6730   -6.0450  -15.6910 C.ar      1 0XP1201     0.0000 
     11 C11        -7.2250   -4.7480  -15.7860 C.ar      1 0XP1201     0.0000 
     12 C12        -6.4130   -3.6810  -16.1360 C.ar      1 0XP1201     0.0000 
     13 C13        -5.0600   -3.8900  -16.4350 C.ar      1 0XP1201     0.0000 
     14 C14        -4.5140   -5.1790  -16.3650 C.ar      1 0XP1201     0.0000 
     15 C15        -5.3130   -6.2520  -16.0090 C.ar      1 0XP1201     0.0000 
     16 CL1        -4.6060   -7.8380  -15.9560 Cl        1 0XP1201     0.0000 
     17 C17        -4.2310   -2.7840  -16.8040 C.1       1 0XP1201     0.0000 
     18 N18        -3.5700   -1.9080  -17.0950 N.1       1 0XP1201     0.0000 
     19 CL2        -8.9060   -4.4440  -15.4500 Cl        1 0XP1201     0.0000 
     20 N20        -9.6660  -11.7610  -18.8310 N.am      1 0XP1201     0.0000 
     21 C21        -8.7230  -12.0170  -19.7730 C.2       1 0XP1201     0.0000 
     22 O22        -7.5630  -11.6590  -19.6640 O.2       1 0XP1201     0.0000 
     23 C23        -9.1760  -12.7790  -20.9950 C.3       1 0XP1201     0.0000 
     24 C25        -8.3260  -12.7310  -22.2670 C.3       1 0XP1201     0.0000 
     25 C26        -8.3670  -14.0020  -21.4130 C.3       1 0XP1201     0.0000 
     26 F1         -7.2530  -14.3110  -20.6290 F         1 0XP1201     0.0000 
     27 H          -9.3014   -9.2326  -14.3300 H         1 0XP1201     0.0000 
     28 H         -10.7196  -11.1584  -14.5769 H         1 0XP1201     0.0000 
     29 H          -8.2049   -9.5862  -18.3618 H         1 0XP1201     0.0000 
     30 H          -7.2571   -7.9233  -17.2767 H         1 0XP1201     0.0000 
     31 H          -6.7991   -2.7275  -16.1785 H         1 0XP1201     0.0000 
     32 H          -3.5187   -5.3197  -16.5796 H         1 0XP1201     0.0000 
     33 H         -10.6706  -12.1301  -19.0213 H         1 0XP1201     0.0000 
     34 H         -10.0828  -12.9473  -21.2825 H         1 0XP1201     0.0000 
     35 H          -7.5268  -12.2751  -22.0560 H         1 0XP1201     0.0000 
     36 H          -8.9058  -12.8647  -22.9998 H         1 0XP1201     0.0000 
     37 H          -9.0141  -14.5809  -21.8626 H         1 0XP1201     0.0000 
@<TRIPOS>BOND
     1    2    1 ar   
     2    6    1 ar   
     3   27    1 1    
     4    3    2 ar   
     5   28    2 1    
     6    4    3 ar   
     7    5    4 ar   
     8   20    4 1    
     9    6    5 ar   
    10   29    5 1    
    11    7    6 1    
    12    8    7 am   
    13   30    7 1    
    14    9    8 2    
    15   10    8 1    
    16   11   10 ar   
    17   15   10 ar   
    18   12   11 ar   
    19   19   11 1    
    20   13   12 ar   
    21   31   12 1    
    22   14   13 ar   
    23   17   13 1    
    24   15   14 ar   
    25   32   14 1    
    26   16   15 1    
    27   18   17 3    
    28   21   20 am   
    29   33   20 1    
    30   22   21 2    
    31   23   21 1    
    32   24   23 1    
    33   25   23 1    
    34   34   23 1    
    35   25   24 1    
    36   35   24 1    
    37   36   24 1    
    38   26   25 1    
    39   37   25 1    
@<TRIPOS>SUBSTRUCTURE
     1 0XP1201     1 GROUP   
@<TRIPOS>SET

