#    Name: 4h8a_NAI_2_INTS_M
#    Modification time : Tue Mar 25 00:40:48 2014

@<TRIPOS>MOLECULE
4h8a_NAI_2_INTS_M
   87     0    12     0     0
SMALL
NO_CHARGES


@<TRIPOS>ATOM
      1 CA         38.7660    0.3150  -11.3085 C.3       4 GLC5        0.0000 
      2 CA         37.1310    0.9890   -9.9400 C.3      12 GLL5        0.0000 
      3 CA         40.4010   -0.3590  -12.6770 C.3       8 GLP5        0.0000 
      4 CA         36.9950   -0.5285  -11.4885 C.3       4 GLC5        0.0000 
      5 CA         36.8590   -2.0460  -13.0370 C.3       8 GLP5        0.0000 
      6 CA         36.7145   -1.6235   -7.9800 C.3       4 GLC5        0.0000 
      7 CA         35.8180    0.3260   -7.9810 C.3      12 GLL5        0.0000 
      8 CA         37.6110   -3.5730   -7.9790 C.3       8 GLP5        0.0000 
      9 N          34.8415   -2.0580   -8.1300 N.am      2 SEC2        0.0000 
     10 N          35.4470   -0.8660   -7.3400 N.am     10 SEL2        0.0000 
     11 N          34.2360   -3.2500   -8.9200 N.am      6 SEP2        0.0000 
     12 O          35.8970    2.0270   -4.7230 O.2       1 ALC1        0.0000 
     13 O          35.4850    1.2550   -5.8730 O.2       9 ALL1        0.0000 
     14 O          36.3090    2.7990   -3.5730 O.2       5 ALP1        0.0000 
     15 CA         39.6635    1.1170   -7.3570 C.3       4 GLC5        0.0000 
     16 CA         37.6520    0.8320   -6.7270 C.3      12 GLL5        0.0000 
     17 CA         41.6750    1.4020   -7.9870 C.3       8 GLP5        0.0000 
     18 CA         40.5585    2.6380   -1.8565 C.3       4 GLC5        0.0000 
     19 CA         40.8250    3.2780   -3.9450 C.3      12 GLL5        0.0000 
     20 CA         40.2920    1.9980    0.2320 C.3       8 GLP5        0.0000 
     21 N          42.2170    2.3790   -2.3135 N.am      2 SEC2        0.0000 
     22 N          40.9880    2.3040   -3.0320 N.am     10 SEL2        0.0000 
     23 N          43.4460    2.4540   -1.5950 N.am      6 SEP2        0.0000 
     24 CA         40.3080    1.5695   -1.4565 C.3       4 GLC5        0.0000 
     25 CA         40.3240    1.1410   -3.1450 C.3      12 GLL5        0.0000 
     26 CA         39.6195   -0.7055   -3.1205 C.3       4 GLC5        0.0000 
     27 CA         38.9150   -2.5520   -3.0960 C.3       8 GLP5        0.0000 
     28 N          38.2030   -0.1460   -3.7805 N.am      2 SEC2        0.0000 
     29 N          39.4770    0.8880   -4.1620 N.am     10 SEL2        0.0000 
     30 N          36.9290   -1.1800   -3.3990 N.am      6 SEP2        0.0000 
     31 NZ         37.3520    1.9580  -14.6485 N.4       3 LYC4        0.0000 
     32 NZ         35.9490    2.1590  -13.9220 N.4      11 LYL4        0.0000 
     33 NZ         38.7550    1.7570  -15.3750 N.4       7 LYP4        0.0000 
     34 N          37.3520    1.9580  -14.6485 N.am      2 SEC2        0.0000 
     35 N          35.9490    2.1590  -13.9220 N.am     10 SEL2        0.0000 
     36 N          38.7550    1.7570  -15.3750 N.am      6 SEP2        0.0000 
     37 N          35.4945    0.8955  -14.5470 N.am      2 SEC2        0.0000 
     38 N          35.0400   -0.3680  -15.1720 N.am      6 SEP2        0.0000 
     39 CA         33.6230    1.7650  -15.4410 C.3       4 GLC5        0.0000 
     40 CA         32.5060    2.3900  -13.7940 C.3      12 GLL5        0.0000 
     41 CA         34.7400    1.1400  -17.0880 C.3       8 GLP5        0.0000 
     42 CA         32.8500    3.8865  -15.2225 C.3       4 GLC5        0.0000 
     43 CA         33.1940    5.3830  -16.6510 C.3       8 GLP5        0.0000 
     44 CA         29.7190    3.1550  -12.2625 C.3       4 GLC5        0.0000 
     45 CA         31.1190    2.0560  -13.3150 C.3      12 GLL5        0.0000 
     46 CA         28.3190    4.2540  -11.2100 C.3       8 GLP5        0.0000 
     47 CA         31.5450   -0.8435  -11.2945 C.3       4 GLC5        0.0000 
     48 CA         30.9880    0.6540  -12.8590 C.3      12 GLL5        0.0000 
     49 CA         32.1020   -2.3410   -9.7300 C.3       8 GLP5        0.0000 
     50 O          29.9655   -0.5740  -11.2450 O.2       1 ALC1        0.0000 
     51 O          29.9610    0.5970  -11.8440 O.2       9 ALL1        0.0000 
     52 O          29.9700   -1.7450  -10.6460 O.2       5 ALP1        0.0000 
     53 CA         30.9410   -1.4640  -15.2585 C.3       4 GLC5        0.0000 
     54 CA         30.5490   -0.0470  -13.9830 C.3      12 GLL5        0.0000 
     55 CA         31.3330   -2.8810  -16.5340 C.3       8 GLP5        0.0000 
     56 N          28.2200   -1.8390  -13.1030 N.am      2 SEC2        0.0000 
     57 N          29.7010   -1.1430  -13.6350 N.am     10 SEL2        0.0000 
     58 N          26.7390   -2.5350  -12.5710 N.am      6 SEP2        0.0000 
     59 O          30.5390   -1.9300  -12.8245 O.2       1 ALC1        0.0000 
     60 O          29.7010   -1.1430  -13.6350 O.2       9 ALL1        0.0000 
     61 O          31.3770   -2.7170  -12.0140 O.2       5 ALP1        0.0000 
     62 O          29.8355   -1.4440  -12.1405 O.2       1 ALC1        0.0000 
     63 CA         26.9725    1.6100  -16.1445 C.3       4 GLC5        0.0000 
     64 CA         28.5530    0.1810  -16.6750 C.3      12 GLL5        0.0000 
     65 CA         25.3920    3.0390  -15.6140 C.3       8 GLP5        0.0000 
     66 O          27.8635   -0.3070  -21.3615 O.2       1 ALC1        0.0000 
     67 O          27.1950   -0.6430  -20.1160 O.2       9 ALL1        0.0000 
     68 O          28.5320    0.0290  -22.6070 O.2       5 ALP1        0.0000 
     69 CA         29.3895   -0.4945  -20.8430 C.3       4 GLC5        0.0000 
     70 CA         29.6290    0.2390  -18.8300 C.3      12 GLL5        0.0000 
     71 CA         29.1500   -1.2280  -22.8560 C.3       8 GLP5        0.0000 
     72 CA         31.0440   -0.9550  -16.7005 C.3       4 GLC5        0.0000 
     73 CA         30.7550    0.9710  -16.8670 C.3      12 GLL5        0.0000 
     74 CA         37.7997   -1.3195   -9.1657 C.3       4 GLC5        0.0000 
     75 CA         38.5160   -3.1780   -8.9630 C.3       8 GLP5        0.0000 
     76 CA         36.2400    0.0977   -5.0640 C.3       4 GLC5        0.0000 
     77 CA         35.5250   -0.8580   -3.2550 C.3       8 GLP5        0.0000 
     78 CA         40.6465    1.9215   -6.5243 C.3       4 GLC5        0.0000 
     79 CA         39.2790    1.8320   -5.1100 C.3      12 GLL5        0.0000 
     80 CA         29.3320   -1.5547  -17.3803 C.3       4 GLC5        0.0000 
     81 CA         30.1300   -3.1710  -17.4030 C.3       8 GLP5        0.0000 
     82 CA         31.5515    0.9088  -19.8483 C.3       4 GLC5        0.0000 
     83 CA         32.8970    1.3200  -21.1650 C.3       8 GLP5        0.0000 
     84 CA         30.4430   -1.3347  -18.6773 C.3       4 GLC5        0.0000 
     85 CA         30.7830    0.7560  -18.2330 C.3      12 GLL5        0.0000 
     86 CA         30.6800   -3.1670  -18.8230 C.3       8 GLP5        0.0000 
     87 CA         32.7545    1.0017  -17.3190 C.3       4 GLC5        0.0000 
@<TRIPOS>BOND
@<TRIPOS>SUBSTRUCTURE
     1 ALC1       12 GROUP        1 X    ALC  0     ROOT ALC X 1
     2 SEC2        9 GROUP        1 X    SEC  0     **** SEC X 2
     3 LYC4       31 GROUP        1 X    LYC  0     **** LYC X 4
     4 GLC5        1 GROUP        1 X    GLC  0     **** GLC X 6
     5 ALP1       14 GROUP        1 Y    ALP  0     ROOT ALP Y 8
     6 SEP2       11 GROUP        1 Y    SEP  0     **** SEP Y 9
     7 LYP4       33 GROUP        1 Y    LYP  0     **** LYP Y 11
     8 GLP5        3 GROUP        1 Y    GLP  0     **** GLP Y 13
     9 ALL1       13 GROUP        1 Z    ALL  0     ROOT ALL Z 15
    10 SEL2       10 GROUP        1 Z    SEL  0     **** SEL Z 16
    11 LYL4       32 GROUP        1 Z    LYL  0     **** LYL Z 18
    12 GLL5        2 GROUP        1 Z    GLL  0     **** GLL Z 20
@<TRIPOS>SET

