#    Name: 4h8a_NAI_2_ligand
#    Modification time : Tue Mar 25 00:40:49 2014

@<TRIPOS>MOLECULE
4h8a_NAI_2_ligand
   71    75     1     0     0
SMALL
NO_CHARGES


@<TRIPOS>ATOM
      1 PA         36.7040    3.4620  -10.8170 P.3       1 NAI401      0.0000 
      2 O1A        36.3060    4.7630  -10.0690 O.co2     1 NAI401      0.0000 
      3 O2A        37.8980    3.6900  -11.6830 O.co2     1 NAI401      0.0000 
      4 O5B        37.0560    2.3940   -9.6780 O.3       1 NAI401      0.0000 
      5 C5B        37.1310    0.9890   -9.9400 C.3       1 NAI401      0.0000 
      6 C4B        37.0360    0.0890   -8.7970 C.3       1 NAI401      0.0000 
      7 O4B        38.1330    0.3300   -7.9300 O.3       1 NAI401      0.0000 
      8 C3B        35.8180    0.3260   -7.9810 C.3       1 NAI401      0.0000 
      9 O3B        35.4470   -0.8660   -7.3400 O.3       1 NAI401      0.0000 
     10 C2B        36.2580    1.2750   -7.0190 C.3       1 NAI401      0.0000 
     11 O2B        35.4850    1.2550   -5.8730 O.3       1 NAI401      0.0000 
     12 C1B        37.6520    0.8320   -6.7270 C.3       1 NAI401      0.0000 
     13 N9A        38.5180    1.8890   -6.2310 N.pl3     1 NAI401      0.0000 
     14 C8A        38.7090    3.0880   -6.8150 C.2       1 NAI401      0.0000 
     15 N7A        39.5840    3.7930   -6.0790 N.2       1 NAI401      0.0000 
     16 C5A        39.9570    3.0500   -5.0130 C.ar      1 NAI401      0.0000 
     17 C6A        40.8250    3.2780   -3.9450 C.ar      1 NAI401      0.0000 
     18 N6A        41.5030    4.5020   -3.8460 N.pl3     1 NAI401      0.0000 
     19 N1A        40.9880    2.3040   -3.0320 N.ar      1 NAI401      0.0000 
     20 C2A        40.3240    1.1410   -3.1450 C.ar      1 NAI401      0.0000 
     21 N3A        39.4770    0.8880   -4.1620 N.ar      1 NAI401      0.0000 
     22 C4A        39.2790    1.8320   -5.1100 C.ar      1 NAI401      0.0000 
     23 O3         35.4500    2.9290  -11.5510 O.3       1 NAI401      0.0000 
     24 PN         35.0040    2.9700  -13.0580 P.3       1 NAI401      0.0000 
     25 O1N        35.9490    2.1590  -13.9220 O.co2     1 NAI401      0.0000 
     26 O2N        34.8280    4.3860  -13.6170 O.co2     1 NAI401      0.0000 
     27 O5D        33.5710    2.3110  -12.8690 O.3       1 NAI401      0.0000 
     28 C5D        32.5060    2.3900  -13.7940 C.3       1 NAI401      0.0000 
     29 C4D        31.1190    2.0560  -13.3150 C.3       1 NAI401      0.0000 
     30 O4D        30.2880    2.1750  -14.4170 O.3       1 NAI401      0.0000 
     31 C3D        30.9880    0.6540  -12.8590 C.3       1 NAI401      0.0000 
     32 O3D        29.9610    0.5970  -11.8440 O.3       1 NAI401      0.0000 
     33 C2D        30.5490   -0.0470  -13.9830 C.3       1 NAI401      0.0000 
     34 O2D        29.7010   -1.1430  -13.6350 O.3       1 NAI401      0.0000 
     35 C1D        29.7250    0.9480  -14.6920 C.3       1 NAI401      0.0000 
     36 N1N        29.6660    0.6850  -16.1400 N.pl3     1 NAI401      0.0000 
     37 C2N        28.5530    0.1810  -16.6750 C.2       1 NAI401      0.0000 
     38 C3N        28.5150   -0.0580  -18.0400 C.2       1 NAI401      0.0000 
     39 C7N        27.3180   -0.6150  -18.6370 C.2       1 NAI401      0.0000 
     40 O7N        26.4480   -1.0580  -17.9430 O.2       1 NAI401      0.0000 
     41 N7N        27.1950   -0.6430  -20.1160 N.am      1 NAI401      0.0000 
     42 C4N        29.6290    0.2390  -18.8300 C.3       1 NAI401      0.0000 
     43 C5N        30.7830    0.7560  -18.2330 C.2       1 NAI401      0.0000 
     44 C6N        30.7550    0.9710  -16.8670 C.2       1 NAI401      0.0000 
     45 H          38.0915    0.7586  -10.5001 H         1 NAI401      0.0000 
     46 H          36.3309    0.7004  -10.6923 H         1 NAI401      0.0000 
     47 H          37.0425   -0.9377   -9.1220 H         1 NAI401      0.0000 
     48 H          35.0645    0.7288   -8.5983 H         1 NAI401      0.0000 
     49 H          36.3224    2.2499   -7.4730 H         1 NAI401      0.0000 
     50 H          37.5899    0.0245   -5.9907 H         1 NAI401      0.0000 
     51 H          38.2837    3.3902   -7.6323 H         1 NAI401      0.0000 
     52 H          42.0926    4.6150   -3.0462 H         1 NAI401      0.0000 
     53 H          41.3388    5.1569   -4.5837 H         1 NAI401      0.0000 
     54 H          40.4710    0.3941   -2.4075 H         1 NAI401      0.0000 
     55 H          32.7127    1.7305  -14.6973 H         1 NAI401      0.0000 
     56 H          32.4561    3.4277  -14.2569 H         1 NAI401      0.0000 
     57 H          30.8391    2.7253  -12.5374 H         1 NAI401      0.0000 
     58 H          31.9144    0.3095  -12.5016 H         1 NAI401      0.0000 
     59 H          31.3467   -0.3361  -14.6146 H         1 NAI401      0.0000 
     60 H          28.7118    0.8909  -14.2788 H         1 NAI401      0.0000 
     61 H          27.7222   -0.0354  -16.1039 H         1 NAI401      0.0000 
     62 H          26.3576   -1.0506  -20.4803 H         1 NAI401      0.0000 
     63 H          27.9595   -0.2521  -20.6286 H         1 NAI401      0.0000 
     64 H          29.3029    0.9456  -19.6849 H         1 NAI401      0.0000 
     65 H          29.9141   -0.6997  -19.4415 H         1 NAI401      0.0000 
     66 H          31.6040    0.9627  -18.7859 H         1 NAI401      0.0000 
     67 H          31.6102    1.3653  -16.4098 H         1 NAI401      0.0000 
     68 H          34.9038   -0.5775   -6.5516 H         1 NAI401      0.0000 
     69 H          35.9376    1.8877   -5.2446 H         1 NAI401      0.0000 
     70 H          29.6934   -0.3655  -11.8006 H         1 NAI401      0.0000 
     71 H          30.2544   -1.7166  -13.0311 H         1 NAI401      0.0000 
@<TRIPOS>BOND
     1    2    1 ar   
     2    3    1 ar   
     3    4    1 1    
     4   23    1 1    
     5    5    4 1    
     6    6    5 1    
     7   45    5 1    
     8   46    5 1    
     9    7    6 1    
    10    8    6 1    
    11   47    6 1    
    12   12    7 1    
    13    9    8 1    
    14   10    8 1    
    15   48    8 1    
    16   68    9 1    
    17   11   10 1    
    18   12   10 1    
    19   49   10 1    
    20   69   11 1    
    21   13   12 1    
    22   50   12 1    
    23   14   13 1    
    24   22   13 1    
    25   15   14 2    
    26   51   14 1    
    27   16   15 1    
    28   17   16 ar   
    29   22   16 ar   
    30   18   17 1    
    31   19   17 ar   
    32   52   18 1    
    33   53   18 1    
    34   20   19 ar   
    35   21   20 ar   
    36   54   20 1    
    37   22   21 ar   
    38   24   23 1    
    39   25   24 ar   
    40   26   24 ar   
    41   27   24 1    
    42   28   27 1    
    43   29   28 1    
    44   55   28 1    
    45   56   28 1    
    46   30   29 1    
    47   31   29 1    
    48   57   29 1    
    49   35   30 1    
    50   32   31 1    
    51   33   31 1    
    52   58   31 1    
    53   70   32 1    
    54   34   33 1    
    55   35   33 1    
    56   59   33 1    
    57   71   34 1    
    58   36   35 1    
    59   60   35 1    
    60   37   36 1    
    61   44   36 1    
    62   38   37 2    
    63   61   37 1    
    64   39   38 1    
    65   42   38 1    
    66   40   39 2    
    67   41   39 am   
    68   62   41 1    
    69   63   41 1    
    70   43   42 1    
    71   64   42 1    
    72   65   42 1    
    73   44   43 2    
    74   66   43 1    
    75   67   44 1    
@<TRIPOS>SUBSTRUCTURE
     1 NAI401      1 GROUP   
@<TRIPOS>SET

