#    Name: 3qcx_3Q2_1_INTS_M
#    Modification time : Tue Mar 25 09:38:41 2014

@<TRIPOS>MOLECULE
3qcx_3Q2_1_INTS_M
   68     0     9     0     0
SMALL
NO_CHARGES


@<TRIPOS>ATOM
      1 CA        -43.2650   15.1190   13.9070 C.3       3 GLC5        0.0000 
      2 CA        -42.9100   15.0750   11.8780 C.3       9 GLL5        0.0000 
      3 CA        -43.6200   15.1630   15.9360 C.3       6 GLP5        0.0000 
      4 CA        -42.7570   13.3890   13.3595 C.3       3 GLC5        0.0000 
      5 CA        -42.6040   11.7030   14.8410 C.3       6 GLP5        0.0000 
      6 CA        -44.7630   14.2285   12.0475 C.3       3 GLC5        0.0000 
      7 CA        -46.6160   13.3820   12.2170 C.3       6 GLP5        0.0000 
      8 CA        -47.1230   18.0120   12.5535 C.3       3 GLC5        0.0000 
      9 CA        -45.5240   19.0700   11.4710 C.3       9 GLL5        0.0000 
     10 CA        -48.7220   16.9540   13.6360 C.3       6 GLP5        0.0000 
     11 CA        -45.6775   19.3810    9.4680 C.3       3 GLC5        0.0000 
     12 CA        -45.8310   19.6920    7.4650 C.3       6 GLP5        0.0000 
     13 CA        -39.7650   13.6820   14.8685 C.3       3 GLC5        0.0000 
     14 CA        -39.6520   14.0240   12.8860 C.3       9 GLL5        0.0000 
     15 CA        -39.8780   13.3400   16.8510 C.3       6 GLP5        0.0000 
     16 CA        -38.8770   12.3100   13.8895 C.3       3 GLC5        0.0000 
     17 CA        -38.1020   10.5960   14.8930 C.3       6 GLP5        0.0000 
     18 CA        -38.7280   12.9460   11.2360 C.3       3 GLC5        0.0000 
     19 CA        -37.8040   11.8680    9.5860 C.3       6 GLP5        0.0000 
     20 CA        -47.4900   17.0130   12.1545 C.3       3 GLC5        0.0000 
     21 CA        -46.2580   17.0720   10.6730 C.3       9 GLL5        0.0000 
     22 CA        -46.4370   15.2270   11.4450 C.3       3 GLC5        0.0000 
     23 CA        -44.6625   16.9710    9.3925 C.3       3 GLC5        0.0000 
     24 CA        -43.0670   16.8700    8.1120 C.3       6 GLP5        0.0000 
     25 CA        -46.5490   17.8075    8.9905 C.3       3 GLC5        0.0000 
     26 CA        -46.8400   18.5430    7.3080 C.3       6 GLP5        0.0000 
     27 CA        -48.3205   19.5280   12.4870 C.3       3 GLC5        0.0000 
     28 CA        -47.0610   20.9290   11.7300 C.3       9 GLL5        0.0000 
     29 CA        -49.5800   18.1270   13.2440 C.3       6 GLP5        0.0000 
     30 CA        -45.5390   23.5020   13.7545 C.3       3 GLC5        0.0000 
     31 CA        -44.7440   22.5510   12.1170 C.3       9 GLL5        0.0000 
     32 CA        -46.3340   24.4530   15.3920 C.3       6 GLP5        0.0000 
     33 CA        -44.4205   21.9350   15.7185 C.3       3 GLC5        0.0000 
     34 CA        -45.2040   21.0400   14.0050 C.3       9 GLL5        0.0000 
     35 CA        -43.6370   22.8300   17.4320 C.3       6 GLP5        0.0000 
     36 CA        -45.7690   22.7465   14.6985 C.3       3 GLC5        0.0000 
     37 CA        -45.0610   19.1750   14.7175 C.3       3 GLC5        0.0000 
     38 CA        -44.9180   17.3100   15.4300 C.3       6 GLP5        0.0000 
     39 N         -45.0195   15.8665    9.7790 N.am      2 SEC2        0.0000 
     40 N         -45.1440   16.4210   11.0680 N.am      8 SEL2        0.0000 
     41 N         -44.8950   15.3120    8.4900 N.am      5 SEP2        0.0000 
     42 N         -47.8735   18.4760   11.3425 N.am      2 SEC2        0.0000 
     43 N         -46.4790   18.3740   10.8450 N.am      8 SEL2        0.0000 
     44 N         -49.2680   18.5780   11.8400 N.am      5 SEP2        0.0000 
     45 O         -37.2705   13.3300   12.6150 O.2       1 ALC1        0.0000 
     46 O         -38.3840   14.1870   13.3820 O.2       7 ALL1        0.0000 
     47 O         -36.1570   12.4730   11.8480 O.2       4 ALP1        0.0000 
     48 O         -48.4860   16.9290    9.5470 O.2       1 ALC1        0.0000 
     49 O         -47.2810   16.3820   10.0280 O.2       7 ALL1        0.0000 
     50 O         -49.6910   17.4760    9.0660 O.2       4 ALP1        0.0000 
     51 CA        -40.1585   15.7875   14.9215 C.3       3 GLC5        0.0000 
     52 CA        -40.6850   16.4550   12.9350 C.3       9 GLL5        0.0000 
     53 CA        -39.6670   15.8090   17.0160 C.3       6 GLP5        0.0000 
     54 CA        -42.1350   15.4645   14.3815 C.3       3 GLC5        0.0000 
     55 CA        -40.5810   16.0405   11.0557 C.3       3 GLC5        0.0000 
     56 CA        -39.8820   15.3070    9.3380 C.3       6 GLP5        0.0000 
     57 CA        -43.6707   17.0370   13.8880 C.3       3 GLC5        0.0000 
     58 CA        -41.8750   17.0930   12.6120 C.3       9 GLL5        0.0000 
     59 CA        -41.4115   15.5310   10.6585 C.3       3 GLC5        0.0000 
     60 CA        -42.9720   16.4350   12.0800 C.3       9 GLL5        0.0000 
     61 CA        -43.0040   16.3125   10.0455 C.3       3 GLC5        0.0000 
     62 CA        -43.6690   17.3375    9.9490 C.3       3 GLC5        0.0000 
     63 CA        -44.3540   18.4770   11.8950 C.3       9 GLL5        0.0000 
     64 CA        -41.3687   13.1267   13.8217 C.3       3 GLC5        0.0000 
     65 CA        -40.6150   15.0770   12.7190 C.3       9 GLL5        0.0000 
     66 CA        -40.0078   14.9288   11.0702 C.3       3 GLC5        0.0000 
     67 CA        -44.9078   17.8737   13.5293 C.3       3 GLC5        0.0000 
     68 CA        -44.1880   17.1330   11.6770 C.3       9 GLL5        0.0000 
@<TRIPOS>BOND
@<TRIPOS>SUBSTRUCTURE
     1 ALC1       45 GROUP        1 X    ALC  0     ROOT ALC X 1
     2 SEC2       39 GROUP        1 X    SEC  0     **** SEC X 2
     3 GLC5        1 GROUP        1 X    GLC  0     **** GLC X 6
     4 ALP1       47 GROUP        1 Y    ALP  0     ROOT ALP Y 8
     5 SEP2       41 GROUP        1 Y    SEP  0     **** SEP Y 9
     6 GLP5        3 GROUP        1 Y    GLP  0     **** GLP Y 13
     7 ALL1       46 GROUP        1 Z    ALL  0     ROOT ALL Z 15
     8 SEL2       40 GROUP        1 Z    SEL  0     **** SEL Z 16
     9 GLL5        2 GROUP        1 Z    GLL  0     **** GLL Z 20
@<TRIPOS>SET

