#    Name: 3qcx_3Q2_1_ligand
#    Modification time : Tue Mar 25 09:38:41 2014

@<TRIPOS>MOLECULE
3qcx_3Q2_1_ligand
   43    46     1     0     0
SMALL
NO_CHARGES


@<TRIPOS>ATOM
      1 C1        -40.6850   16.4550   12.9350 C.ar      1 3Q2370      0.0000 
      2 C2        -41.8750   17.0930   12.6120 C.ar      1 3Q2370      0.0000 
      3 C3        -42.9100   15.0750   11.8780 C.ar      1 3Q2370      0.0000 
      4 C4        -44.3540   18.4770   11.8950 C.ar      1 3Q2370      0.0000 
      5 C5        -40.6150   15.0770   12.7190 C.ar      1 3Q2370      0.0000 
      6 C6        -42.9720   16.4350   12.0800 C.ar      1 3Q2370      0.0000 
      7 C7        -41.7370   14.4430   12.2140 C.ar      1 3Q2370      0.0000 
      8 C8        -44.1880   17.1330   11.6770 C.ar      1 3Q2370      0.0000 
      9 C9        -45.5240   19.0700   11.4710 C.ar      1 3Q2370      0.0000 
     10 C10       -39.6520   14.0240   12.8860 C.2       1 3Q2370      0.0000 
     11 C11       -46.2580   17.0720   10.6730 C.ar      1 3Q2370      0.0000 
     12 C12       -47.0610   20.9290   11.7300 C.3       1 3Q2370      0.0000 
     13 C13       -46.9770   22.3920   11.3480 C.3       1 3Q2370      0.0000 
     14 C14       -44.7440   22.5510   12.1170 C.3       1 3Q2370      0.0000 
     15 C15       -44.7480   21.1090   12.5730 C.3       1 3Q2370      0.0000 
     16 C16       -45.2040   21.0400   14.0050 C.3       1 3Q2370      0.0000 
     17 N17       -45.1440   16.4210   11.0680 N.ar      1 3Q2370      0.0000 
     18 N18       -46.4790   18.3740   10.8450 N.ar      1 3Q2370      0.0000 
     19 N19       -40.1520   12.8400   12.5000 N.pl3     1 3Q2370      0.0000 
     20 N20       -41.4040   13.1190   12.0980 N.2       1 3Q2370      0.0000 
     21 N21       -45.6910   20.4680   11.6540 N.3       1 3Q2370      0.0000 
     22 N22       -38.3840   14.1870   13.3820 N.pl3     1 3Q2370      0.0000 
     23 N23       -47.2810   16.3820   10.0280 N.pl3     1 3Q2370      0.0000 
     24 O24       -46.0780   23.0730   12.2250 O.3       1 3Q2370      0.0000 
     25 H         -39.8985   16.9639   13.3116 H         1 3Q2370      0.0000 
     26 H         -41.9463   18.1301   12.7804 H         1 3Q2370      0.0000 
     27 H         -43.6974   14.5618   11.4972 H         1 3Q2370      0.0000 
     28 H         -43.6297   19.0283   12.3603 H         1 3Q2370      0.0000 
     29 H         -47.6887   20.4215   11.0243 H         1 3Q2370      0.0000 
     30 H         -47.4493   20.8522   12.7264 H         1 3Q2370      0.0000 
     31 H         -47.9886   22.8161   11.3992 H         1 3Q2370      0.0000 
     32 H         -46.6443   22.4528   10.3033 H         1 3Q2370      0.0000 
     33 H         -44.3841   22.5851   11.0861 H         1 3Q2370      0.0000 
     34 H         -44.0450   23.1086   12.7446 H         1 3Q2370      0.0000 
     35 H         -43.7768   20.7151   12.4567 H         1 3Q2370      0.0000 
     36 H         -39.7226   12.0000   12.5083 H         1 3Q2370      0.0000 
     37 H         -38.3189   14.5186   14.3232 H         1 3Q2370      0.0000 
     38 H         -37.6353   13.9600   12.7591 H         1 3Q2370      0.0000 
     39 H         -48.0783   16.9242    9.7626 H         1 3Q2370      0.0000 
     40 H         -47.1303   15.4037    9.8857 H         1 3Q2370      0.0000 
     41 H         -45.2194   20.0997   14.3450 H         1 3Q2370      0.0000 
     42 H         -44.6035   21.5611   14.6115 H         1 3Q2370      0.0000 
     43 H         -46.1268   21.4081   14.1191 H         1 3Q2370      0.0000 
@<TRIPOS>BOND
     1    2    1 ar   
     2    5    1 ar   
     3   25    1 1    
     4    6    2 ar   
     5   26    2 1    
     6    6    3 ar   
     7    7    3 ar   
     8   27    3 1    
     9    8    4 ar   
    10    9    4 ar   
    11   28    4 1    
    12    7    5 ar   
    13   10    5 2    
    14    8    6 1    
    15   20    7 2    
    16   17    8 ar   
    17   18    9 ar   
    18   21    9 1    
    19   19   10 1    
    20   22   10 1    
    21   17   11 ar   
    22   18   11 ar   
    23   23   11 1    
    24   13   12 1    
    25   21   12 1    
    26   29   12 1    
    27   30   12 1    
    28   24   13 1    
    29   31   13 1    
    30   32   13 1    
    31   15   14 1    
    32   24   14 1    
    33   33   14 1    
    34   34   14 1    
    35   16   15 1    
    36   21   15 1    
    37   35   15 1    
    38   41   16 1    
    39   42   16 1    
    40   43   16 1    
    41   20   19 1    
    42   36   19 1    
    43   37   22 1    
    44   38   22 1    
    45   39   23 1    
    46   40   23 1    
@<TRIPOS>SUBSTRUCTURE
     1 3Q2370      1 GROUP   
@<TRIPOS>SET

