#    Name: 3c11_GDM_1_INTS_M
#    Modification time : Mon Mar 24 20:19:19 2014

@<TRIPOS>MOLECULE
3c11_GDM_1_INTS_M
   64     0     9     0     0
SMALL
NO_CHARGES


@<TRIPOS>ATOM
      1 N          24.7530  -31.7220    0.8815 N.am      2 SEC2        0.0000 
      2 N          25.4320  -32.7470    0.1420 N.am      8 SEL2        0.0000 
      3 N          24.0740  -30.6970    1.6210 N.am      5 SEP2        0.0000 
      4 N          23.2105  -35.0485   -9.7275 N.am      2 SEC2        0.0000 
      5 N          22.5040  -36.1690   -9.2770 N.am      8 SEL2        0.0000 
      6 N          23.9170  -33.9280  -10.1780 N.am      5 SEP2        0.0000 
      7 N          24.6075  -33.4590   -8.8800 N.am      2 SEC2        0.0000 
      8 N          25.2980  -32.9900   -7.5820 N.am      8 SEL2        0.0000 
      9 O          15.6420  -31.2495   -5.0910 O.2       1 ALC1        0.0000 
     10 O          16.9270  -31.5910   -4.6400 O.2       7 ALL1        0.0000 
     11 O          14.3570  -30.9080   -5.5420 O.2       4 ALP1        0.0000 
     12 CA         20.5180  -31.6950   -3.2265 C.3       3 GLC5        0.0000 
     13 CA         20.5390  -33.9140   -2.9820 C.3       9 GLL5        0.0000 
     14 CA         20.4970  -29.4760   -3.4710 C.3       6 GLP5        0.0000 
     15 CA         19.5405  -36.3350   -5.1735 C.3       3 GLC5        0.0000 
     16 CA         20.5170  -34.8920   -6.3610 C.3       9 GLL5        0.0000 
     17 CA         18.5640  -37.7780   -3.9860 C.3       6 GLP5        0.0000 
     18 CA         23.1360  -36.4890   -0.2805 C.3       3 GLC5        0.0000 
     19 CA         24.9320  -35.5290   -0.8290 C.3       9 GLL5        0.0000 
     20 CA         21.3400  -37.4490    0.2680 C.3       6 GLP5        0.0000 
     21 CA         26.4785  -36.5725    0.3245 C.3       3 GLC5        0.0000 
     22 CA         28.0250  -37.6160    1.4780 C.3       6 GLP5        0.0000 
     23 CA         25.3890  -35.4980    1.3225 C.3       3 GLC5        0.0000 
     24 CA         25.8460  -35.4670    3.4740 C.3       6 GLP5        0.0000 
     25 CA         18.6220  -36.2395   -2.7960 C.3       3 GLC5        0.0000 
     26 CA         18.6800  -34.7010   -1.6060 C.3       9 GLL5        0.0000 
     27 CA         20.0100  -36.0750   -0.6690 C.3       3 GLC5        0.0000 
     28 CA         19.4640  -34.0380    0.0800 C.3       3 GLC5        0.0000 
     29 CA         20.2480  -33.3750    1.7660 C.3       6 GLP5        0.0000 
     30 CA         16.9925  -35.7820   -0.8730 C.3       3 GLC5        0.0000 
     31 CA         15.3050  -36.8630   -0.1400 C.3       6 GLP5        0.0000 
     32 CA         17.0895  -33.5445   -0.8955 C.3       3 GLC5        0.0000 
     33 CA         15.4990  -32.3880   -0.1850 C.3       6 GLP5        0.0000 
     34 CA         20.9170  -31.0435   -4.6365 C.3       3 GLC5        0.0000 
     35 CA         21.3370  -32.6110   -5.8020 C.3       9 GLL5        0.0000 
     36 CA         21.7530  -31.0020   -7.2990 C.3       3 GLC5        0.0000 
     37 CA         22.1690  -29.3930   -8.7960 C.3       6 GLP5        0.0000 
     38 CA         19.3590  -32.9680   -9.3460 C.3       3 GLC5        0.0000 
     39 CA         20.3350  -34.5020   -8.7810 C.3       9 GLL5        0.0000 
     40 CA         18.3830  -31.4340   -9.9110 C.3       6 GLP5        0.0000 
     41 CA         19.0740  -35.0095   -9.9325 C.3       3 GLC5        0.0000 
     42 CA         17.8130  -35.5170  -11.0840 C.3       6 GLP5        0.0000 
     43 CA         21.1980  -38.9670   -5.5200 C.3       3 GLC5        0.0000 
     44 CA         22.4510  -39.0260   -7.1890 C.3       9 GLL5        0.0000 
     45 CA         19.9450  -38.9080   -3.8510 C.3       6 GLP5        0.0000 
     46 CA         21.4480  -40.9195   -7.3775 C.3       3 GLC5        0.0000 
     47 CA         20.4450  -42.8130   -7.5660 C.3       6 GLP5        0.0000 
     48 CA         23.1150  -39.6525   -5.1880 C.3       3 GLC5        0.0000 
     49 CA         23.7790  -40.2790   -3.1870 C.3       6 GLP5        0.0000 
     50 CA         24.3010  -38.4515   -3.9215 C.3       3 GLC5        0.0000 
     51 CA         24.8230  -36.6240   -4.6560 C.3       9 GLL5        0.0000 
     52 CA         24.8540  -32.8560   -9.9830 C.3       3 GLC5        0.0000 
     53 CA         26.0960  -32.1010   -8.3650 C.3       9 GLL5        0.0000 
     54 CA         23.6120  -33.6110  -11.6010 C.3       6 GLP5        0.0000 
     55 CA         21.6105  -36.3645   -1.1912 C.3       3 GLC5        0.0000 
     56 CA         22.5150  -35.3150   -2.4370 C.3       9 GLL5        0.0000 
     57 CA         19.4318  -36.0049   -3.7882 C.3       3 GLC5        0.0000 
     58 CA         21.2470  -35.2450   -2.8640 C.3       9 GLL5        0.0000 
     59 CA         21.4630  -34.1900  -10.0350 C.3       3 GLC5        0.0000 
     60 CA         21.2950  -34.8860   -7.6590 C.3       9 GLL5        0.0000 
     61 CA         22.1110  -33.6860  -11.8500 C.3       6 GLP5        0.0000 
     62 CA         23.5389  -33.7841    0.1091 C.3       3 GLC5        0.0000 
     63 CA         23.2940  -34.1300   -2.0750 C.3       9 GLL5        0.0000 
     64 CA         22.6800  -32.7180    1.4900 C.3       6 GLP5        0.0000 
@<TRIPOS>BOND
@<TRIPOS>SUBSTRUCTURE
     1 ALC1        9 GROUP        1 X    ALC  0     ROOT ALC X 1
     2 SEC2        1 GROUP        1 X    SEC  0     **** SEC X 2
     3 GLC5       12 GROUP        1 X    GLC  0     **** GLC X 6
     4 ALP1       11 GROUP        1 Y    ALP  0     ROOT ALP Y 8
     5 SEP2        3 GROUP        1 Y    SEP  0     **** SEP Y 9
     6 GLP5       14 GROUP        1 Y    GLP  0     **** GLP Y 13
     7 ALL1       10 GROUP        1 Z    ALL  0     ROOT ALL Z 15
     8 SEL2        2 GROUP        1 Z    SEL  0     **** SEL Z 16
     9 GLL5       13 GROUP        1 Z    GLL  0     **** GLL Z 20
@<TRIPOS>SET

