#    Name: 3c11_GDM_1_ligand
#    Modification time : Mon Mar 24 20:19:19 2014

@<TRIPOS>MOLECULE
3c11_GDM_1_ligand
   80    81     1     0     0
SMALL
NO_CHARGES


@<TRIPOS>ATOM
      1 O1         25.4320  -32.7470    0.1420 O.2       1 GDM300      0.0000 
      2 O2         19.6360  -33.6900   -1.8910 O.3       1 GDM300      0.0000 
      3 O3         18.9300  -32.6880   -4.1720 O.3       1 GDM300      0.0000 
      4 O4         17.3730  -33.5690   -5.6540 O.2       1 GDM300      0.0000 
      5 O5         22.5040  -36.1690   -9.2770 O.3       1 GDM300      0.0000 
      6 O6         23.4200  -37.9860   -7.3570 O.3       1 GDM300      0.0000 
      7 O7         25.2980  -32.9900   -7.5820 O.3       1 GDM300      0.0000 
      8 O8         24.3800  -30.7140   -6.3200 O.2       1 GDM300      0.0000 
      9 O9         26.5020  -34.5570   -3.1990 O.2       1 GDM300      0.0000 
     10 N1         25.5420  -32.1570   -2.0000 N.am      1 GDM300      0.0000 
     11 N2         16.9270  -31.5910   -4.6400 N.am      1 GDM300      0.0000 
     12 C1         25.1800  -32.9940   -1.0320 C.2       1 GDM300      0.0000 
     13 C2         24.4330  -34.2130   -1.3540 C.2       1 GDM300      0.0000 
     14 C3         23.2940  -34.1300   -2.0750 C.2       1 GDM300      0.0000 
     15 C4         22.5150  -35.3150   -2.4370 C.2       1 GDM300      0.0000 
     16 C5         21.2470  -35.2450   -2.8640 C.2       1 GDM300      0.0000 
     17 C6         20.5390  -33.9140   -2.9820 C.3       1 GDM300      0.0000 
     18 C7         19.7060  -33.8840   -4.2580 C.3       1 GDM300      0.0000 
     19 C8         20.5350  -33.8520   -5.5070 C.2       1 GDM300      0.0000 
     20 C9         20.5170  -34.8920   -6.3610 C.2       1 GDM300      0.0000 
     21 C10        21.2950  -34.8860   -7.6590 C.3       1 GDM300      0.0000 
     22 C11        21.8950  -36.2470   -7.9750 C.3       1 GDM300      0.0000 
     23 C12        22.9410  -36.6940   -6.9580 C.3       1 GDM300      0.0000 
     24 C13        24.1240  -35.7290   -6.8940 C.3       1 GDM300      0.0000 
     25 C14        25.3030  -36.2310   -6.0560 C.3       1 GDM300      0.0000 
     26 C15        26.4370  -35.1870   -6.0030 C.3       1 GDM300      0.0000 
     27 C16        25.9410  -33.8970   -5.3870 C.2       1 GDM300      0.0000 
     28 C17        25.3530  -32.8440   -6.2260 C.2       1 GDM300      0.0000 
     29 C18        24.8780  -31.5990   -5.5840 C.2       1 GDM300      0.0000 
     30 C19        24.9470  -31.4340   -4.1940 C.2       1 GDM300      0.0000 
     31 C20        25.4850  -32.4050   -3.3410 C.2       1 GDM300      0.0000 
     32 C21        26.0110  -33.6710   -3.9240 C.2       1 GDM300      0.0000 
     33 C22        24.9320  -35.5290   -0.8290 C.3       1 GDM300      0.0000 
     34 C23        18.6800  -34.7010   -1.6060 C.3       1 GDM300      0.0000 
     35 C24        17.6760  -32.6610   -4.8790 C.2       1 GDM300      0.0000 
     36 C25        21.3370  -32.6110   -5.8020 C.3       1 GDM300      0.0000 
     37 C26        20.3350  -34.5020   -8.7810 C.3       1 GDM300      0.0000 
     38 C27        22.4510  -39.0260   -7.1890 C.3       1 GDM300      0.0000 
     39 C28        24.8230  -36.6240   -4.6560 C.3       1 GDM300      0.0000 
     40 C29        26.0960  -32.1010   -8.3650 C.3       1 GDM300      0.0000 
     41 H          25.9199  -31.1821   -1.7106 H         1 GDM300      0.0000 
     42 H          17.3027  -30.9262   -3.9944 H         1 GDM300      0.0000 
     43 H          16.0549  -31.5466   -5.1272 H         1 GDM300      0.0000 
     44 H          22.9194  -33.2192   -2.4054 H         1 GDM300      0.0000 
     45 H          23.0140  -36.2283   -2.3409 H         1 GDM300      0.0000 
     46 H          20.6855  -36.0608   -3.1320 H         1 GDM300      0.0000 
     47 H          21.2683  -33.1265   -3.0496 H         1 GDM300      0.0000 
     48 H          19.0640  -34.7444   -4.2611 H         1 GDM300      0.0000 
     49 H          19.9752  -35.7562   -6.1882 H         1 GDM300      0.0000 
     50 H          22.0707  -34.1512   -7.6123 H         1 GDM300      0.0000 
     51 H          21.0939  -36.9776   -7.9885 H         1 GDM300      0.0000 
     52 H          22.4800  -36.7421   -5.9892 H         1 GDM300      0.0000 
     53 H          23.7783  -34.7659   -6.4805 H         1 GDM300      0.0000 
     54 H          24.4772  -35.5273   -7.9199 H         1 GDM300      0.0000 
     55 H          25.6966  -37.1299   -6.5404 H         1 GDM300      0.0000 
     56 H          26.7886  -35.0022   -7.0152 H         1 GDM300      0.0000 
     57 H          27.2545  -35.5897   -5.4097 H         1 GDM300      0.0000 
     58 H          24.5813  -30.5486   -3.7772 H         1 GDM300      0.0000 
     59 H          25.8547  -35.7334   -1.1558 H         1 GDM300      0.0000 
     60 H          24.9655  -35.5415    0.1704 H         1 GDM300      0.0000 
     61 H          24.3459  -36.2881   -1.1122 H         1 GDM300      0.0000 
     62 H          19.1165  -35.5720   -1.3805 H         1 GDM300      0.0000 
     63 H          18.0991  -34.4548   -0.8301 H         1 GDM300      0.0000 
     64 H          18.0744  -34.8693   -2.3838 H         1 GDM300      0.0000 
     65 H          21.9978  -32.4149   -5.0775 H         1 GDM300      0.0000 
     66 H          21.8532  -32.6962   -6.6542 H         1 GDM300      0.0000 
     67 H          20.7531  -31.8042   -5.8924 H         1 GDM300      0.0000 
     68 H          20.7930  -34.4777   -9.6696 H         1 GDM300      0.0000 
     69 H          19.5772  -35.1498   -8.8594 H         1 GDM300      0.0000 
     70 H          19.9337  -33.5980   -8.6333 H         1 GDM300      0.0000 
     71 H          22.8086  -39.9160   -7.4718 H         1 GDM300      0.0000 
     72 H          22.1635  -39.1152   -6.2354 H         1 GDM300      0.0000 
     73 H          21.6266  -38.8563   -7.7290 H         1 GDM300      0.0000 
     74 H          25.5739  -36.9574   -4.0859 H         1 GDM300      0.0000 
     75 H          24.4102  -35.8510   -4.1743 H         1 GDM300      0.0000 
     76 H          24.1356  -37.3496   -4.6891 H         1 GDM300      0.0000 
     77 H          27.0688  -32.1889   -8.1508 H         1 GDM300      0.0000 
     78 H          25.9946  -32.2758   -9.3444 H         1 GDM300      0.0000 
     79 H          25.8471  -31.1449   -8.2106 H         1 GDM300      0.0000 
     80 H          22.0779  -36.9027   -9.8063 H         1 GDM300      0.0000 
@<TRIPOS>BOND
     1   12    1 2    
     2   17    2 1    
     3   34    2 1    
     4   18    3 1    
     5   35    3 1    
     6   35    4 2    
     7   22    5 1    
     8   80    5 1    
     9   23    6 1    
    10   38    6 1    
    11   28    7 1    
    12   40    7 1    
    13   29    8 2    
    14   32    9 2    
    15   12   10 am   
    16   31   10 1    
    17   41   10 1    
    18   35   11 am   
    19   42   11 1    
    20   43   11 1    
    21   13   12 1    
    22   14   13 2    
    23   33   13 1    
    24   15   14 1    
    25   44   14 1    
    26   16   15 2    
    27   45   15 1    
    28   17   16 1    
    29   46   16 1    
    30   18   17 1    
    31   47   17 1    
    32   19   18 1    
    33   48   18 1    
    34   20   19 2    
    35   36   19 1    
    36   21   20 1    
    37   49   20 1    
    38   22   21 1    
    39   37   21 1    
    40   50   21 1    
    41   23   22 1    
    42   51   22 1    
    43   24   23 1    
    44   52   23 1    
    45   25   24 1    
    46   53   24 1    
    47   54   24 1    
    48   26   25 1    
    49   39   25 1    
    50   55   25 1    
    51   27   26 1    
    52   56   26 1    
    53   57   26 1    
    54   28   27 2    
    55   32   27 1    
    56   29   28 1    
    57   30   29 1    
    58   31   30 2    
    59   58   30 1    
    60   32   31 1    
    61   59   33 1    
    62   60   33 1    
    63   61   33 1    
    64   62   34 1    
    65   63   34 1    
    66   64   34 1    
    67   65   36 1    
    68   66   36 1    
    69   67   36 1    
    70   68   37 1    
    71   69   37 1    
    72   70   37 1    
    73   71   38 1    
    74   72   38 1    
    75   73   38 1    
    76   74   39 1    
    77   75   39 1    
    78   76   39 1    
    79   77   40 1    
    80   78   40 1    
    81   79   40 1    
@<TRIPOS>SUBSTRUCTURE
     1 GDM300      1 GROUP   
@<TRIPOS>SET

