#    Name: 3dy7_1CX_1_INTS_M
#    Modification time : Tue Mar 25 00:36:40 2014

@<TRIPOS>MOLECULE
3dy7_1CX_1_INTS_M
   58     0     6     0     0
SMALL
NO_CHARGES


@<TRIPOS>ATOM
      1 CA         40.8835  -14.0805    4.4875 C.3       2 GLC5        0.0000 
      2 CA         39.2230  -12.9730    4.8320 C.3       6 GLL5        0.0000 
      3 CA         42.5440  -15.1880    4.1430 C.3       4 GLP5        0.0000 
      4 CA         40.8760  -16.2835   10.0330 C.3       2 GLC5        0.0000 
      5 CA         42.0090  -16.6440    8.3430 C.3       6 GLL5        0.0000 
      6 CA         39.7430  -15.9230   11.7230 C.3       4 GLP5        0.0000 
      7 CA         43.5355  -16.2215    9.4855 C.3       2 GLC5        0.0000 
      8 CA         45.0620  -15.7990   10.6280 C.3       4 GLP5        0.0000 
      9 CA         44.8845  -19.8040    8.4410 C.3       2 GLC5        0.0000 
     10 CA         42.8430  -19.4690    8.3210 C.3       6 GLL5        0.0000 
     11 CA         46.9260  -20.1390    8.5610 C.3       4 GLP5        0.0000 
     12 CA         44.3235  -18.2775    7.2065 C.3       2 GLC5        0.0000 
     13 CA         45.8040  -17.0860    6.0920 C.3       4 GLP5        0.0000 
     14 CA         42.5870  -20.1135    6.3900 C.3       2 GLC5        0.0000 
     15 CA         42.3310  -20.7580    4.4590 C.3       4 GLP5        0.0000 
     16 CA         35.8620  -13.3945    2.0740 C.3       2 GLC5        0.0000 
     17 CA         37.2710  -13.6310    3.6470 C.3       6 GLL5        0.0000 
     18 CA         34.4530  -13.1580    0.5010 C.3       4 GLP5        0.0000 
     19 CA         34.2435  -15.8430    4.9475 C.3       2 GLC5        0.0000 
     20 CA         36.0770  -15.4960    4.3790 C.3       6 GLL5        0.0000 
     21 CA         32.4100  -16.1900    5.5160 C.3       4 GLP5        0.0000 
     22 CA         36.3750  -16.3120    7.5135 C.3       2 GLC5        0.0000 
     23 CA         37.9180  -15.8000    6.3960 C.3       6 GLL5        0.0000 
     24 CA         34.8320  -16.8240    8.6310 C.3       4 GLP5        0.0000 
     25 CA         37.4615  -17.4585    5.7135 C.3       2 GLC5        0.0000 
     26 CA         37.0050  -19.1170    5.0310 C.3       4 GLP5        0.0000 
     27 CA         42.2470  -12.8465    8.6275 C.3       2 GLC5        0.0000 
     28 CA         41.5730  -14.4120    8.6250 C.3       6 GLL5        0.0000 
     29 CA         42.9210  -11.2810    8.6300 C.3       4 GLP5        0.0000 
     30 CA         43.2240  -14.2165    9.6890 C.3       2 GLC5        0.0000 
     31 CA         44.8750  -14.0210   10.7530 C.3       4 GLP5        0.0000 
     32 CA         39.5980   -8.0285    4.4000 C.3       2 GLC5        0.0000 
     33 CA         41.5130   -8.9080    4.1450 C.3       6 GLL5        0.0000 
     34 CA         37.6830   -7.1490    4.6550 C.3       4 GLP5        0.0000 
     35 N          42.3600   -9.2100    6.9880 N.am      1 SEC2        0.0000 
     36 N          41.3970   -8.1250    6.3920 N.am      5 SEL2        0.0000 
     37 N          43.3230  -10.2950    7.5840 N.am      3 SEP2        0.0000 
     38 CA         38.7540  -18.1835    5.7665 C.3       2 GLC5        0.0000 
     39 CA         40.1590  -16.6760    6.3200 C.3       6 GLL5        0.0000 
     40 CA         39.8745  -19.3113    7.3472 C.3       2 GLC5        0.0000 
     41 CA         40.8470  -17.8240    6.6840 C.3       6 GLL5        0.0000 
     42 CA         38.4380  -20.7940    7.4960 C.3       4 GLP5        0.0000 
     43 CA         43.8480  -17.1623    7.0600 C.3       2 GLC5        0.0000 
     44 CA         41.7750  -17.8330    7.7130 C.3       6 GLL5        0.0000 
     45 CA         37.0362  -12.6795    5.6430 C.3       2 GLC5        0.0000 
     46 CA         35.2940  -12.4860    6.9670 C.3       4 GLP5        0.0000 
     47 CA         38.1077  -14.6058    7.9170 C.3       2 GLC5        0.0000 
     48 CA         37.9990  -14.8370    5.5240 C.3       6 GLL5        0.0000 
     49 CA         38.2570  -13.8930    9.8740 C.3       4 GLP5        0.0000 
     50 CA         36.6262  -13.9023    6.4635 C.3       2 GLC5        0.0000 
     51 CA         36.7974  -15.9564    2.6139 C.3       2 GLC5        0.0000 
     52 CA         36.9630  -17.0890    0.9970 C.3       4 GLP5        0.0000 
     53 CA         36.9094  -17.1211    4.8655 C.3       2 GLC5        0.0000 
     54 CA         35.9629  -13.6549    5.5989 C.3       2 GLC5        0.0000 
     55 CA         39.7380  -14.4269    8.9634 C.3       2 GLC5        0.0000 
     56 CA         40.4040  -15.4980    6.9830 C.3       6 GLL5        0.0000 
     57 CA         41.8023  -15.7081    5.7973 C.3       2 GLC5        0.0000 
     58 CA         41.3260  -15.5210    7.9780 C.3       6 GLL5        0.0000 
@<TRIPOS>BOND
@<TRIPOS>SUBSTRUCTURE
     1 SEC2       35 GROUP        1 X    SEC  0     ROOT SEC X 2
     2 GLC5        1 GROUP        1 X    GLC  0     **** GLC X 6
     3 SEP2       37 GROUP        1 Y    SEP  0     ROOT SEP Y 9
     4 GLP5        3 GROUP        1 Y    GLP  0     **** GLP Y 13
     5 SEL2       36 GROUP        1 Z    SEL  0     ROOT SEL Z 16
     6 GLL5        2 GROUP        1 Z    GLL  0     **** GLL Z 20
@<TRIPOS>SET

