#    Name: 3dy7_1CX_1_ligand
#    Modification time : Tue Mar 25 00:36:40 2014

@<TRIPOS>MOLECULE
3dy7_1CX_1_ligand
   36    37     1     0     0
SMALL
NO_CHARGES


@<TRIPOS>ATOM
      1 N1         39.8250  -14.3060    6.7210 N.2       1 1CX9002     0.0000 
      2 C4         40.1590  -16.6760    6.3200 C.ar      1 1CX9002     0.0000 
      3 C5         40.8470  -17.8240    6.6840 C.ar      1 1CX9002     0.0000 
      4 C6         41.7750  -17.8330    7.7130 C.ar      1 1CX9002     0.0000 
      5 C7         39.2230  -12.9730    4.8320 C.2       1 1CX9002     0.0000 
      6 C8         38.3340  -12.7730    3.8060 C.2       1 1CX9002     0.0000 
      7 C10        37.1020  -14.6720    4.5180 C.2       1 1CX9002     0.0000 
      8 C13        40.3400  -12.0170    4.9900 C.2       1 1CX9002     0.0000 
      9 C15        42.2130   -8.1190    5.2330 C.3       1 1CX9002     0.0000 
     10 C1         42.0090  -16.6440    8.3430 C.ar      1 1CX9002     0.0000 
     11 C2         41.3260  -15.5210    7.9780 C.ar      1 1CX9002     0.0000 
     12 C3         40.4040  -15.4980    6.9830 C.ar      1 1CX9002     0.0000 
     13 I1         42.8430  -19.4690    8.3210 I         1 1CX9002     0.0000 
     14 C9         37.2710  -13.6310    3.6470 C.2       1 1CX9002     0.0000 
     15 C11        37.9990  -14.8370    5.5240 C.3       1 1CX9002     0.0000 
     16 C12        39.0420  -14.0260    5.6860 C.2       1 1CX9002     0.0000 
     17 F1         36.0770  -15.4960    4.3790 F         1 1CX9002     0.0000 
     18 F2         37.9180  -15.8000    6.3960 F         1 1CX9002     0.0000 
     19 F3         41.5730  -14.4120    8.6250 F         1 1CX9002     0.0000 
     20 O1         41.0060  -12.0110    5.9720 O.2       1 1CX9002     0.0000 
     21 N2         40.5960  -11.1190    4.0960 N.am      1 1CX9002     0.0000 
     22 O2         41.6210  -10.3020    4.3880 O.3       1 1CX9002     0.0000 
     23 C14        41.5130   -8.9080    4.1450 C.3       1 1CX9002     0.0000 
     24 O3         41.3970   -8.1250    6.3920 O.3       1 1CX9002     0.0000 
     25 H          39.4698  -16.7126    5.5565 H         1 1CX9002     0.0000 
     26 H          40.6589  -18.7111    6.1648 H         1 1CX9002     0.0000 
     27 H          38.4614  -11.9820    3.1553 H         1 1CX9002     0.0000 
     28 H          42.3845   -7.1055    4.8585 H         1 1CX9002     0.0000 
     29 H          43.1862   -8.5844    5.4153 H         1 1CX9002     0.0000 
     30 H          42.7135  -16.5952    9.1068 H         1 1CX9002     0.0000 
     31 H          36.6042  -13.4869    2.8712 H         1 1CX9002     0.0000 
     32 H          37.2135  -13.9861    6.3859 H         1 1CX9002     0.0000 
     33 H          40.0735  -11.0175    3.2255 H         1 1CX9002     0.0000 
     34 H          41.9657   -8.6266    3.1800 H         1 1CX9002     0.0000 
     35 H          40.4609   -8.5803    4.1146 H         1 1CX9002     0.0000 
     36 H          41.7610   -7.3934    6.9684 H         1 1CX9002     0.0000 
@<TRIPOS>BOND
     1   12    1 1    
     2   16    1 2    
     3    3    2 ar   
     4   12    2 ar   
     5   25    2 1    
     6    4    3 ar   
     7   26    3 1    
     8   10    4 ar   
     9   13    4 1    
    10    6    5 2    
    11    8    5 1    
    12   16    5 1    
    13   14    6 1    
    14   27    6 1    
    15   14    7 2    
    16   15    7 1    
    17   17    7 1    
    18   20    8 2    
    19   21    8 am   
    20   23    9 1    
    21   24    9 1    
    22   28    9 1    
    23   29    9 1    
    24   11   10 ar   
    25   30   10 1    
    26   12   11 ar   
    27   19   11 1    
    28   31   14 1    
    29   16   15 1    
    30   18   15 1    
    31   32   15 1    
    32   22   21 1    
    33   33   21 1    
    34   23   22 1    
    35   34   23 1    
    36   35   23 1    
    37   36   24 1    
@<TRIPOS>SUBSTRUCTURE
     1 1CX9002     1 GROUP   
@<TRIPOS>SET

