#    Name: 4CA6_1_CAVITY_N1_ALL.mol2
#    Modification time : Mon Mar 10 12:54:15 2014

@<TRIPOS>MOLECULE
4CA6_1_CAVITY_N1_ALL.mol2
  172     0     7     0     0
SMALL
NO_CHARGES


@<TRIPOS>ATOM
      1 CA         -4.8913  -21.1688  -18.7139 C.3       6 GLY6        0.0000 
      2 O          -5.3531  -19.8684  -19.3018 O.2       2 ALA2        0.0000 
      3 O          -5.8150  -18.5680  -19.8897 O.2       2 ALA2        0.0000 
      4 O          -6.2768  -17.2675  -20.4775 O.2       2 ALA2        0.0000 
      5 OG         -6.7387  -15.9671  -21.0654 O.2       1 SER1        0.0000 
      6 OG         -7.2005  -14.6667  -21.6533 O.2       1 SER1        0.0000 
      7 CA         -7.6624  -13.3663  -22.2412 C.3       6 GLY6        0.0000 
      8 N          -8.1242  -12.0659  -22.8291 N.2       2 ALA2        0.0000 
      9 CA         -5.8444  -22.8061  -17.7595 C.3       6 GLY6        0.0000 
     10 DU         -6.3063  -21.5057  -18.3474 H         7 CUB7        0.0000 
     11 O          -6.7681  -20.2052  -18.9353 O.2       2 ALA2        0.0000 
     12 O          -7.2300  -18.9048  -19.5231 O.2       2 ALA2        0.0000 
     13 O          -7.6918  -17.6044  -20.1110 O.2       2 ALA2        0.0000 
     14 OG         -8.1537  -16.3040  -20.6989 O.2       1 SER1        0.0000 
     15 N          -9.0774  -13.7031  -21.8747 N.2       2 ALA2        0.0000 
     16 N          -9.5392  -12.4027  -22.4625 N.2       2 ALA2        0.0000 
     17 N         -10.0011  -11.1023  -23.0504 N.2       2 ALA2        0.0000 
     18 CA         -7.2594  -23.1429  -17.3930 C.3       6 GLY6        0.0000 
     19 DU         -7.7213  -21.8425  -17.9809 H         7 CUB7        0.0000 
     20 DU         -8.1831  -20.5421  -18.5687 H         7 CUB7        0.0000 
     21 DU         -8.6450  -19.2417  -19.1566 H         7 CUB7        0.0000 
     22 DU         -9.1068  -17.9412  -19.7445 H         7 CUB7        0.0000 
     23 N         -10.9542  -12.7396  -22.0960 N.2       2 ALA2        0.0000 
     24 N         -11.4161  -11.4391  -22.6839 N.2       2 ALA2        0.0000 
     25 N          -1.0787  -14.6197  -22.5315 N.2       2 ALA2        0.0000 
     26 OD1        -1.5700  -17.5574  -20.9892 O.3       3 ASP3        0.0000 
     27 OG         -2.0319  -16.2570  -21.5771 O.2       1 SER1        0.0000 
     28 OG         -2.4937  -14.9566  -22.1650 O.2       1 SER1        0.0000 
     29 CZ         -2.9556  -13.6562  -22.7529 C.ar      5 PHE5        0.0000 
     30 NZ         -2.9850  -17.8943  -20.6227 N.2       4 LYS4        0.0000 
     31 OG         -3.4469  -16.5939  -21.2106 O.2       1 SER1        0.0000 
     32 OG         -3.9087  -15.2934  -21.7985 O.2       1 SER1        0.0000 
     33 CZ         -4.3706  -13.9930  -22.3863 C.ar      5 PHE5        0.0000 
     34 NZ         -3.9382  -19.5315  -19.6683 N.2       4 LYS4        0.0000 
     35 O          -4.4000  -18.2311  -20.2562 O.2       2 ALA2        0.0000 
     36 O          -4.8619  -16.9307  -20.8441 O.2       2 ALA2        0.0000 
     37 OG         -5.3237  -15.6303  -21.4319 O.2       1 SER1        0.0000 
     38 CA         -5.7855  -14.3299  -22.0198 C.3       6 GLY6        0.0000 
     39 CA         -6.2474  -13.0294  -22.6077 C.3       6 GLY6        0.0000 
     40 CA         -6.7092  -11.7290  -23.1956 C.3       6 GLY6        0.0000 
     41 N           0.6124  -16.2507  -23.6406 N.2       2 ALA2        0.0000 
     42 N          -0.8026  -16.5876  -23.2741 N.2       2 ALA2        0.0000 
     43 N          -1.2645  -15.2872  -23.8619 N.2       2 ALA2        0.0000 
     44 OD1        -1.7558  -18.2248  -22.3197 O.3       3 ASP3        0.0000 
     45 N          -2.2176  -16.9244  -22.9075 N.2       2 ALA2        0.0000 
     46 N          -2.6795  -15.6240  -23.4954 N.2       2 ALA2        0.0000 
     47 CZ         -3.1413  -14.3236  -24.0833 C.ar      5 PHE5        0.0000 
     48 OD1        -3.1707  -18.5617  -21.9531 O.3       3 ASP3        0.0000 
     49 DU         -3.6326  -17.2613  -22.5410 H         7 CUB7        0.0000 
     50 DU         -4.0944  -15.9609  -23.1289 H         7 CUB7        0.0000 
     51 CZ         -4.5563  -14.6604  -23.7168 C.ar      5 PHE5        0.0000 
     52 CZ         -5.0181  -13.3600  -24.3047 C.ar      5 PHE5        0.0000 
     53 NZ         -4.1239  -20.1990  -20.9987 N.2       4 LYS4        0.0000 
     54 DU         -4.5857  -18.8985  -21.5866 H         7 CUB7        0.0000 
     55 DU         -5.0476  -17.5981  -22.1745 H         7 CUB7        0.0000 
     56 DU         -5.5094  -16.2977  -22.7624 H         7 CUB7        0.0000 
     57 DU         -5.9713  -14.9973  -23.3503 H         7 CUB7        0.0000 
     58 CZ         -6.4331  -13.6969  -23.9381 C.ar      5 PHE5        0.0000 
     59 CZ         -6.8950  -12.3964  -24.5260 C.ar      5 PHE5        0.0000 
     60 O          -5.0770  -21.8362  -20.0443 O.2       2 ALA2        0.0000 
     61 DU         -5.5389  -20.5358  -20.6322 H         7 CUB7        0.0000 
     62 DU         -6.0007  -19.2354  -21.2201 H         7 CUB7        0.0000 
     63 DU         -6.4626  -17.9350  -21.8080 H         7 CUB7        0.0000 
     64 DU         -6.9244  -16.6345  -22.3959 H         7 CUB7        0.0000 
     65 DU         -7.3863  -15.3341  -22.9837 H         7 CUB7        0.0000 
     66 DU         -7.8481  -14.0337  -23.5716 H         7 CUB7        0.0000 
     67 N          -8.3100  -12.7333  -24.1595 N.2       2 ALA2        0.0000 
     68 N          -8.7718  -11.4329  -24.7474 N.2       2 ALA2        0.0000 
     69 CA         -6.4920  -22.1731  -19.6778 C.3       6 GLY6        0.0000 
     70 DU         -6.9539  -20.8726  -20.2657 H         7 CUB7        0.0000 
     71 DU         -7.4157  -19.5722  -20.8536 H         7 CUB7        0.0000 
     72 DU         -7.8776  -18.2718  -21.4415 H         7 CUB7        0.0000 
     73 DU         -8.3394  -16.9714  -22.0293 H         7 CUB7        0.0000 
     74 DU         -8.8013  -15.6710  -22.6172 H         7 CUB7        0.0000 
     75 DU         -9.2631  -14.3705  -23.2051 H         7 CUB7        0.0000 
     76 DU         -9.7250  -13.0701  -23.7930 H         7 CUB7        0.0000 
     77 N         -10.1868  -11.7697  -24.3809 N.2       2 ALA2        0.0000 
     78 N         -10.6486  -10.4693  -24.9687 N.2       2 ALA2        0.0000 
     79 DU         -7.9070  -22.5099  -19.3113 H         7 CUB7        0.0000 
     80 DU        -11.1399  -13.4070  -23.4265 H         7 CUB7        0.0000 
     81 DU        -11.6018  -12.1065  -24.0143 H         7 CUB7        0.0000 
     82 DU        -12.0636  -10.8061  -24.6022 H         7 CUB7        0.0000 
     83 NZ         -1.9415  -18.8923  -23.6501 N.2       4 LYS4        0.0000 
     84 CA         -2.4033  -17.5918  -24.2380 C.3       6 GLY6        0.0000 
     85 N          -2.8652  -16.2914  -24.8259 N.2       2 ALA2        0.0000 
     86 N          -3.3270  -14.9910  -25.4137 N.2       2 ALA2        0.0000 
     87 CZ         -3.7889  -13.6906  -26.0016 C.ar      5 PHE5        0.0000 
     88 O          -3.3565  -19.2291  -23.2836 O.2       2 ALA2        0.0000 
     89 CA         -3.8183  -17.9287  -23.8715 C.3       6 GLY6        0.0000 
     90 CA         -4.2802  -16.6283  -24.4593 C.3       6 GLY6        0.0000 
     91 CA         -4.7420  -15.3278  -25.0472 C.3       6 GLY6        0.0000 
     92 CZ         -5.2039  -14.0274  -25.6351 C.ar      5 PHE5        0.0000 
     93 CZ         -5.6657  -12.7270  -26.2230 C.ar      5 PHE5        0.0000 
     94 OG         -4.3096  -20.8664  -22.3292 O.2       1 SER1        0.0000 
     95 N          -4.7715  -19.5660  -22.9170 N.2       2 ALA2        0.0000 
     96 N          -5.2333  -18.2655  -23.5049 N.2       2 ALA2        0.0000 
     97 CA         -5.6952  -16.9651  -24.0928 C.3       6 GLY6        0.0000 
     98 CA         -6.1570  -15.6647  -24.6807 C.3       6 GLY6        0.0000 
     99 DU         -6.6189  -14.3643  -25.2686 H         7 CUB7        0.0000 
    100 CZ         -7.0807  -13.0639  -25.8565 C.ar      5 PHE5        0.0000 
    101 N          -7.5426  -11.7634  -26.4443 N.2       2 ALA2        0.0000 
    102 OG         -5.2628  -22.5036  -21.3748 O.2       1 SER1        0.0000 
    103 OG         -5.7246  -21.2032  -21.9626 O.2       1 SER1        0.0000 
    104 OG         -6.1865  -19.9028  -22.5505 O.2       1 SER1        0.0000 
    105 DU         -6.6483  -18.6024  -23.1384 H         7 CUB7        0.0000 
    106 DU         -7.1102  -17.3020  -23.7263 H         7 CUB7        0.0000 
    107 DU         -7.5720  -16.0015  -24.3142 H         7 CUB7        0.0000 
    108 DU         -8.0339  -14.7011  -24.9021 H         7 CUB7        0.0000 
    109 DU         -8.4957  -13.4007  -25.4899 H         7 CUB7        0.0000 
    110 N          -8.9575  -12.1003  -26.0778 N.2       2 ALA2        0.0000 
    111 N          -9.4194  -10.7999  -26.6657 N.2       2 ALA2        0.0000 
    112 OG         -6.6778  -22.8405  -21.0082 O.2       1 SER1        0.0000 
    113 OG         -7.1396  -21.5401  -21.5961 O.2       1 SER1        0.0000 
    114 OG         -7.6015  -20.2396  -22.1840 O.2       1 SER1        0.0000 
    115 DU         -8.0633  -18.9392  -22.7719 H         7 CUB7        0.0000 
    116 DU         -9.9107  -13.7375  -25.1234 H         7 CUB7        0.0000 
    117 DU        -10.3725  -12.4371  -25.7113 H         7 CUB7        0.0000 
    118 DU        -10.8344  -11.1367  -26.2992 H         7 CUB7        0.0000 
    119 CZ         -8.0928  -23.1773  -20.6417 C.ar      5 PHE5        0.0000 
    120 OG         -8.5546  -21.8769  -21.2296 O.2       1 SER1        0.0000 
    121 DU         -9.0164  -20.5765  -21.8175 H         7 CUB7        0.0000 
    122 DU        -11.3257  -14.0744  -24.7569 H         7 CUB7        0.0000 
    123 DU        -11.7875  -12.7740  -25.3448 H         7 CUB7        0.0000 
    124 DU        -12.2494  -11.4735  -25.9327 H         7 CUB7        0.0000 
    125 OG         -3.2611  -15.9264  -19.8801 O.2       1 SER1        0.0000 
    126 CA         -3.7230  -14.6260  -20.4680 C.3       6 GLY6        0.0000 
    127 O          -4.6761  -16.2633  -19.5136 O.2       2 ALA2        0.0000 
    128 CA         -5.6587  -22.1387  -16.4291 C.3       6 GLY6        0.0000 
    129 O          -6.1206  -20.8382  -17.0169 O.2       2 ALA2        0.0000 
    130 O          -7.5061  -16.9370  -18.7806 O.2       2 ALA2        0.0000 
    131 CA         -8.8916  -13.0357  -20.5442 C.3       6 GLY6        0.0000 
    132 CA         -7.5355  -21.1751  -16.6504 C.3       6 GLY6        0.0000 
    133 O          -7.9974  -19.8747  -17.2383 O.2       2 ALA2        0.0000 
    134 O          -8.4592  -18.5742  -17.8262 O.2       2 ALA2        0.0000 
    135 CA         -6.0666  -18.2999  -26.7537 C.3       6 GLY6        0.0000 
    136 CZ         -6.5285  -16.9995  -27.3416 C.ar      5 PHE5        0.0000 
    137 OG         -5.3896  -14.6948  -26.9655 O.2       1 SER1        0.0000 
    138 NZ         -5.8515  -13.3944  -27.5534 N.2       4 LYS4        0.0000 
    139 N          -5.4191  -18.9329  -24.8354 N.2       2 ALA2        0.0000 
    140 CA         -5.8809  -17.6325  -25.4232 C.3       6 GLY6        0.0000 
    141 CA         -6.3428  -16.3321  -26.0111 C.3       6 GLY6        0.0000 
    142 OG         -6.8046  -15.0317  -26.5990 O.2       1 SER1        0.0000 
    143 NZ         -7.2664  -13.7313  -27.1869 N.2       4 LYS4        0.0000 
    144 N          -6.8340  -19.2698  -24.4688 N.2       2 ALA2        0.0000 
    145 N          -7.2959  -17.9694  -25.0567 N.2       2 ALA2        0.0000 
    146 DU         -7.7577  -16.6690  -25.6446 H         7 CUB7        0.0000 
    147 CZ         -8.2196  -15.3685  -26.2325 C.ar      5 PHE5        0.0000 
    148 NZ         -8.6814  -14.0681  -26.8204 N.2       4 LYS4        0.0000 
    149 OG         -7.7872  -20.9071  -23.5144 O.2       1 SER1        0.0000 
    150 N          -8.2490  -19.6066  -24.1023 N.2       2 ALA2        0.0000 
    151 DU         -8.7109  -18.3062  -24.6902 H         7 CUB7        0.0000 
    152 DU         -9.1727  -17.0058  -25.2781 H         7 CUB7        0.0000 
    153 DU         -9.6346  -15.7054  -25.8660 H         7 CUB7        0.0000 
    154 NZ        -10.0964  -14.4050  -26.4539 N.2       4 LYS4        0.0000 
    155 NZ        -10.5583  -13.1045  -27.0417 N.2       4 LYS4        0.0000 
    156 NZ        -11.0201  -11.8041  -27.6296 N.2       4 LYS4        0.0000 
    157 OG         -8.7403  -22.5443  -22.5600 O.2       1 SER1        0.0000 
    158 OG         -9.2022  -21.2439  -23.1479 O.2       1 SER1        0.0000 
    159 DU         -9.6640  -19.9435  -23.7358 H         7 CUB7        0.0000 
    160 DU        -11.0496  -16.0422  -25.4995 H         7 CUB7        0.0000 
    161 OG        -11.5114  -14.7418  -26.0873 O.2       1 SER1        0.0000 
    162 OG        -11.9733  -13.4414  -26.6752 O.2       1 SER1        0.0000 
    163 N          -7.4816  -18.6368  -26.3872 N.2       2 ALA2        0.0000 
    164 CZ         -7.9435  -17.3364  -26.9750 C.ar      5 PHE5        0.0000 
    165 N          -8.4348  -20.2741  -25.4328 N.2       2 ALA2        0.0000 
    166 CZ         -8.8966  -18.9736  -26.0206 C.ar      5 PHE5        0.0000 
    167 CZ         -9.3585  -17.6732  -26.6085 C.ar      5 PHE5        0.0000 
    168 CZ         -9.8203  -16.3728  -27.1964 C.ar      5 PHE5        0.0000 
    169 CZ        -10.2822  -15.0724  -27.7843 C.ar      5 PHE5        0.0000 
    170 NZ        -10.7440  -13.7720  -28.3722 N.2       4 LYS4        0.0000 
    171 DU        -10.3116  -19.3105  -25.6541 H         7 CUB7        0.0000 
    172 CZ        -10.7735  -18.0101  -26.2420 C.ar      5 PHE5        0.0000 
@<TRIPOS>BOND
@<TRIPOS>SUBSTRUCTURE
     1 SER1        5 GROUP   
     2 ALA2        2 GROUP   
     3 ASP3       26 GROUP   
     4 LYS4       30 GROUP   
     5 PHE5       29 GROUP   
     6 GLY6        1 GROUP   
     7 CUB7       10 GROUP   
@<TRIPOS>SET

