#    Name: 4ca6_3EF_1_INTS_M
#    Modification time : Tue Mar 25 09:07:59 2014

@<TRIPOS>MOLECULE
4ca6_3EF_1_INTS_M
  100     0    15     0     0
SMALL
NO_CHARGES


@<TRIPOS>ATOM
      1 N          -3.3255  -19.6760  -25.4700 N.am      2 SEC2        0.0000 
      2 N          -3.3780  -19.2170  -24.0470 N.am     12 SEL2        0.0000 
      3 N          -3.2730  -20.1350  -26.8930 N.am      7 SEP2        0.0000 
      4 CA         -4.9195  -23.4400  -18.4285 C.3       5 GLC5        0.0000 
      5 CA         -6.0450  -22.1200  -18.3190 C.3      15 GLL5        0.0000 
      6 CA         -3.7940  -24.7600  -18.5380 C.3      10 GLP5        0.0000 
      7 CA         -5.7945  -24.0140  -18.9870 C.3       5 GLC5        0.0000 
      8 CA         -6.6400  -22.5630  -19.5020 C.3      15 GLL5        0.0000 
      9 CA         -4.9490  -25.4650  -18.4720 C.3      10 GLP5        0.0000 
     10 Zn          0.0265  -18.3880  -21.2040 Zn        4 ZIC7        0.0000 
     11 Zn         -0.1880  -17.3580  -21.3500 Zn       14 ZIL7        0.0000 
     12 Zn          0.2410  -19.4180  -21.0580 Zn        9 ZIP7        0.0000 
     13 N          -0.4145  -16.4140  -20.4180 N.am      2 SEC2        0.0000 
     14 N          -0.1880  -17.3580  -21.3500 N.am     12 SEL2        0.0000 
     15 N          -0.6410  -15.4700  -19.4860 N.am      7 SEP2        0.0000 
     16 Zn          0.0140  -19.0735  -22.2605 Zn        4 ZIC7        0.0000 
     17 Zn         -0.2130  -18.7290  -23.4630 Zn       14 ZIL7        0.0000 
     18 N           0.0645  -19.1770  -24.6325 N.am      2 SEC2        0.0000 
     19 N          -0.2130  -18.7290  -23.4630 N.am     12 SEL2        0.0000 
     20 N           0.3420  -19.6250  -25.8020 N.am      7 SEP2        0.0000 
     21 CA         -2.2610  -17.3915  -25.2345 C.3       5 GLC5        0.0000 
     22 CA         -2.0860  -16.8600  -23.2310 C.3      15 GLL5        0.0000 
     23 CA         -2.4360  -17.9230  -27.2380 C.3      10 GLP5        0.0000 
     24 O          -3.0895  -17.4300  -20.9600 O.2       1 ALC1        0.0000 
     25 O          -2.9550  -17.7150  -22.4210 O.2      11 ALL1        0.0000 
     26 O          -3.2240  -17.1450  -19.4990 O.2       6 ALP1        0.0000 
     27 CA         -1.3345  -14.0125  -24.0155 C.3       5 GLC5        0.0000 
     28 CA         -2.3990  -15.3870  -22.8620 C.3      15 GLL5        0.0000 
     29 CA         -0.2700  -12.6380  -25.1690 C.3      10 GLP5        0.0000 
     30 CA         -3.0170  -13.2845  -23.3350 C.3       5 GLC5        0.0000 
     31 CA         -3.6350  -11.1820  -23.8080 C.3      10 GLP5        0.0000 
     32 CA         -2.2105  -13.6415  -24.7920 C.3       5 GLC5        0.0000 
     33 CA         -4.1510  -14.6450  -24.4150 C.3      15 GLL5        0.0000 
     34 N           0.8030  -13.2995  -23.0330 N.am      2 SEC2        0.0000 
     35 N           1.0900  -14.1300  -22.0130 N.am     12 SEL2        0.0000 
     36 N           0.5160  -12.4690  -24.0530 N.am      7 SEP2        0.0000 
     37 CA          7.9865  -17.4900  -24.8390 C.3       5 GLC5        0.0000 
     38 CA          8.7690  -16.8540  -22.8610 C.3      15 GLL5        0.0000 
     39 CA          7.2040  -18.1260  -26.8170 C.3      10 GLP5        0.0000 
     40 CA          3.9925  -18.3310  -22.9520 C.3       5 GLC5        0.0000 
     41 CA          5.1620  -16.7090  -23.3680 C.3      15 GLL5        0.0000 
     42 CA          2.8230  -19.9530  -22.5360 C.3      10 GLP5        0.0000 
     43 CA          2.3385  -16.0115  -26.1385 C.3       5 GLC5        0.0000 
     44 CA          2.9490  -15.6610  -24.1550 C.3      15 GLL5        0.0000 
     45 CA          1.7280  -16.3620  -28.1220 C.3      10 GLP5        0.0000 
     46 CA          4.3370  -16.6910  -25.5330 C.3       5 GLC5        0.0000 
     47 CA          5.7250  -17.7210  -26.9110 C.3      10 GLP5        0.0000 
     48 CA          0.1725  -14.4345  -24.4165 C.3       5 GLC5        0.0000 
     49 CA          0.6150  -16.2310  -23.6640 C.3      15 GLL5        0.0000 
     50 CA          2.1145  -12.4820  -18.6025 C.3       5 GLC5        0.0000 
     51 CA          3.0460  -13.9510  -20.0130 C.3      15 GLL5        0.0000 
     52 CA          1.1830  -11.0130  -17.1920 C.3      10 GLP5        0.0000 
     53 CA          1.5975  -14.7150  -19.1895 C.3       5 GLC5        0.0000 
     54 CA          0.1490  -15.4790  -18.3660 C.3      10 GLP5        0.0000 
     55 NZ          3.5355  -10.3135  -20.3355 N.4       3 LYC4        0.0000 
     56 NZ          3.5250  -11.6170  -19.9990 N.4      13 LYL4        0.0000 
     57 NZ          3.5460   -9.0100  -20.6720 N.4       8 LYP4        0.0000 
     58 N           4.9740  -11.3160  -19.8945 N.am      2 SEC2        0.0000 
     59 N           3.5250  -11.6170  -19.9990 N.am     12 SEL2        0.0000 
     60 N           6.4230  -11.0150  -19.7900 N.am      7 SEP2        0.0000 
     61 N           3.5355  -10.3135  -20.3355 N.am      2 SEC2        0.0000 
     62 N           3.5460   -9.0100  -20.6720 N.am      7 SEP2        0.0000 
     63 N           3.5350  -11.3150  -18.7495 N.am      2 SEC2        0.0000 
     64 N           3.5450  -11.0130  -17.5000 N.am      7 SEP2        0.0000 
     65 CA          4.7385  -13.8295  -17.1195 C.3       5 GLC5        0.0000 
     66 CA          3.9420  -14.3280  -18.8240 C.3      15 GLL5        0.0000 
     67 CA          5.5350  -13.3310  -15.4150 C.3      10 GLP5        0.0000 
     68 CA          3.2060  -12.6740  -17.7375 C.3       5 GLC5        0.0000 
     69 CA          2.4700  -11.0200  -16.6510 C.3      10 GLP5        0.0000 
     70 CA          2.8745  -15.4515  -17.9295 C.3       5 GLC5        0.0000 
     71 CA          1.8070  -16.5750  -17.0350 C.3      10 GLP5        0.0000 
     72 O           7.5415  -19.4375  -18.6870 O.2       1 ALC1        0.0000 
     73 O           7.8660  -18.2270  -19.3050 O.2      11 ALL1        0.0000 
     74 O           7.2170  -20.6480  -18.0690 O.2       6 ALP1        0.0000 
     75 NZ          3.8320  -10.8975  -21.2350 N.4       3 LYC4        0.0000 
     76 NZ          4.1180  -12.7850  -21.7980 N.4      13 LYL4        0.0000 
     77 CA         -3.8365  -22.5673  -18.2225 C.3       5 GLC5        0.0000 
     78 CA         -4.3770  -20.9020  -19.5800 C.3      15 GLL5        0.0000 
     79 CA         -3.0260  -24.0370  -17.4810 C.3      10 GLP5        0.0000 
     80 CA         -4.6643  -23.2587  -19.6472 C.3       5 GLC5        0.0000 
     81 CA         -4.9670  -21.3430  -20.7770 C.3      15 GLL5        0.0000 
     82 CA         -3.0620  -22.0685  -21.9485 C.3       5 GLC5        0.0000 
     83 CA         -1.4270  -22.9940  -22.5000 C.3      10 GLP5        0.0000 
     84 CA         -4.2770  -15.7915  -25.8597 C.3       5 GLC5        0.0000 
     85 CA         -3.7360  -17.1110  -27.1680 C.3      10 GLP5        0.0000 
     86 CA         -5.4836  -13.4731  -21.2837 C.3       5 GLC5        0.0000 
     87 CA         -4.7350  -15.1180  -22.1340 C.3      15 GLL5        0.0000 
     88 CA         -5.4680  -12.1000  -19.9760 C.3      10 GLP5        0.0000 
     89 CA          6.3143  -20.0755  -22.6460 C.3       5 GLC5        0.0000 
     90 CA          7.1040  -18.4960  -22.3020 C.3      15 GLL5        0.0000 
     91 CA          5.0220  -21.2050  -23.1730 C.3      10 GLP5        0.0000 
     92 CA         10.3430  -19.5622  -23.2927 C.3       5 GLC5        0.0000 
     93 CA          8.1090  -19.3960  -21.9360 C.3      15 GLL5        0.0000 
     94 CA         11.4060  -20.6470  -24.3400 C.3      10 GLP5        0.0000 
     95 CA          5.2640  -16.9530  -25.2473 C.3       5 GLC5        0.0000 
     96 CA          2.0695  -18.0583  -22.9387 C.3       5 GLC5        0.0000 
     97 CA          2.0170  -16.0960  -23.0190 C.3      15 GLL5        0.0000 
     98 CA          7.4376  -18.7985  -24.2967 C.3       5 GLC5        0.0000 
     99 CA          7.4180  -17.2160  -22.7520 C.3      15 GLL5        0.0000 
    100 CA          7.3630  -19.5160  -26.1580 C.3      10 GLP5        0.0000 
@<TRIPOS>BOND
@<TRIPOS>SUBSTRUCTURE
     1 ALC1       24 GROUP        1 X    ALC  0     ROOT ALC X 1
     2 SEC2        1 GROUP        1 X    SEC  0     **** SEC X 2
     3 LYC4       55 GROUP        1 X    LYC  0     **** LYC X 4
     4 ZIC7       10 GROUP        1 X    ZIC  0     **** ZIC X 5
     5 GLC5        4 GROUP        1 X    GLC  0     **** GLC X 6
     6 ALP1       26 GROUP        1 Y    ALP  0     ROOT ALP Y 8
     7 SEP2        3 GROUP        1 Y    SEP  0     **** SEP Y 9
     8 LYP4       57 GROUP        1 Y    LYP  0     **** LYP Y 11
     9 ZIP7       12 GROUP        1 Y    ZIP  0     **** ZIP Y 12
    10 GLP5        6 GROUP        1 Y    GLP  0     **** GLP Y 13
    11 ALL1       25 GROUP        1 Z    ALL  0     ROOT ALL Z 15
    12 SEL2        2 GROUP        1 Z    SEL  0     **** SEL Z 16
    13 LYL4       56 GROUP        1 Z    LYL  0     **** LYL Z 18
    14 ZIL7       11 GROUP        1 Z    ZIL  0     **** ZIL Z 19
    15 GLL5        5 GROUP        1 Z    GLL  0     **** GLL Z 20
@<TRIPOS>SET

