#    Name: 4ca6_3EF_1_ligand
#    Modification time : Tue Mar 25 09:07:59 2014

@<TRIPOS>MOLECULE
4ca6_3EF_1_ligand
   87    91     1     0     0
SMALL
NO_CHARGES


@<TRIPOS>ATOM
      1 OAB        -3.3780  -19.2170  -24.0470 O.2       1 3EF1630     0.0000 
      2 CAH        -6.0450  -22.1200  -18.3190 C.ar      1 3EF1630     0.0000 
      3 CAK        -6.6400  -22.5630  -19.5020 C.ar      1 3EF1630     0.0000 
      4 CAL        -4.9170  -21.2930  -18.3480 C.ar      1 3EF1630     0.0000 
      5 CAQ        -6.1020  -22.1720  -20.7360 C.ar      1 3EF1630     0.0000 
      6 CAR        -4.3770  -20.9020  -19.5800 C.ar      1 3EF1630     0.0000 
      7 CBB        -4.4270  -20.9430  -22.0170 C.3       1 3EF1630     0.0000 
      8 OBJ        -4.3310  -19.5110  -22.0050 O.3       1 3EF1630     0.0000 
      9 CBM        -3.5320  -18.8410  -22.8760 C.2       1 3EF1630     0.0000 
     10 CBP        -4.9670  -21.3430  -20.7770 C.ar      1 3EF1630     0.0000 
     11 OAD        -0.1880  -17.3580  -21.3500 O.co2     1 3EF1630     0.0000 
     12 PBY        -0.3800  -17.4140  -22.8210 P.3       1 3EF1630     0.0000 
     13 OAG        -0.2130  -18.7290  -23.4630 O.co2     1 3EF1630     0.0000 
     14 CBX        -2.0860  -16.8600  -23.2310 C.3       1 3EF1630     0.0000 
     15 NBI        -2.9550  -17.7150  -22.4210 N.am      1 3EF1630     0.0000 
     16 CBE        -2.3990  -15.3870  -22.8620 C.3       1 3EF1630     0.0000 
     17 CBQ        -3.7560  -15.0530  -23.1400 C.ar      1 3EF1630     0.0000 
     18 CAS        -4.1510  -14.6450  -24.4150 C.ar      1 3EF1630     0.0000 
     19 CAM        -5.4850  -14.2990  -24.6880 C.ar      1 3EF1630     0.0000 
     20 CAI        -6.4570  -14.3680  -23.6870 C.ar      1 3EF1630     0.0000 
     21 CAN        -6.0700  -14.7810  -22.4110 C.ar      1 3EF1630     0.0000 
     22 CAT        -4.7350  -15.1180  -22.1340 C.ar      1 3EF1630     0.0000 
     23 OAC         1.0900  -14.1300  -22.0130 O.2       1 3EF1630     0.0000 
     24 CAJ         9.4530  -19.0240  -22.0400 C.ar      1 3EF1630     0.0000 
     25 CAO         8.1090  -19.3960  -21.9360 C.ar      1 3EF1630     0.0000 
     26 CAP         9.7790  -17.7450  -22.5030 C.ar      1 3EF1630     0.0000 
     27 CAU         7.1040  -18.4960  -22.3020 C.ar      1 3EF1630     0.0000 
     28 CAV         8.7690  -16.8540  -22.8610 C.ar      1 3EF1630     0.0000 
     29 CBA         5.1620  -16.7090  -23.3680 C.2       1 3EF1630     0.0000 
     30 CBC         2.9490  -15.6610  -24.1550 C.3       1 3EF1630     0.0000 
     31 CBF         0.6150  -16.2310  -23.6640 C.3       1 3EF1630     0.0000 
     32 NBG         6.6570  -15.0930  -23.4330 N.2       1 3EF1630     0.0000 
     33 OBK         5.1990  -14.5790  -23.9100 O.3       1 3EF1630     0.0000 
     34 CBN         1.9680  -14.9940  -21.9680 C.2       1 3EF1630     0.0000 
     35 CBS         4.4440  -15.6610  -23.7990 C.2       1 3EF1630     0.0000 
     36 CBT         7.4180  -17.2160  -22.7520 C.ar      1 3EF1630     0.0000 
     37 CBU         6.4550  -16.3720  -23.1390 C.2       1 3EF1630     0.0000 
     38 CBV         2.0170  -16.0960  -23.0190 C.3       1 3EF1630     0.0000 
     39 N           2.9340  -15.0120  -21.0370 N.am      1 3EF1630     0.0000 
     40 CA          3.0460  -13.9510  -20.0130 C.3       1 3EF1630     0.0000 
     41 C           3.6130  -12.6760  -20.6570 C.2       1 3EF1630     0.0000 
     42 O           3.5250  -11.6170  -19.9990 O.co2     1 3EF1630     0.0000 
     43 CB          3.9420  -14.3280  -18.8240 C.3       1 3EF1630     0.0000 
     44 CG          4.9440  -15.2840  -18.9740 C.ar      1 3EF1630     0.0000 
     45 CD1         6.2810  -14.9080  -19.1420 C.ar      1 3EF1630     0.0000 
     46 CD2         4.6090  -16.6390  -18.9070 C.ar      1 3EF1630     0.0000 
     47 CE1         7.2720  -15.8910  -19.2630 C.ar      1 3EF1630     0.0000 
     48 CE2         5.5910  -17.6180  -19.0230 C.ar      1 3EF1630     0.0000 
     49 CZ          6.9200  -17.2460  -19.2010 C.ar      1 3EF1630     0.0000 
     50 OH          7.8660  -18.2270  -19.3050 O.3       1 3EF1630     0.0000 
     51 OXT         4.1180  -12.7850  -21.7980 O.co2     1 3EF1630     0.0000 
     52 H          -6.4420  -22.4060  -17.4100 H         1 3EF1630     0.0000 
     53 H          -7.4631  -23.1689  -19.4710 H         1 3EF1630     0.0000 
     54 H          -4.4887  -20.9754  -17.4757 H         1 3EF1630     0.0000 
     55 H          -6.5340  -22.4890  -21.6084 H         1 3EF1630     0.0000 
     56 H          -3.5528  -20.2952  -19.6107 H         1 3EF1630     0.0000 
     57 H          -3.4328  -21.3844  -22.1740 H         1 3EF1630     0.0000 
     58 H          -5.0673  -21.2692  -22.8486 H         1 3EF1630     0.0000 
     59 H          -2.1624  -17.0579  -24.2491 H         1 3EF1630     0.0000 
     60 H          -3.1070  -17.3883  -21.4322 H         1 3EF1630     0.0000 
     61 H          -1.6944  -14.7567  -23.4288 H         1 3EF1630     0.0000 
     62 H          -2.1541  -15.2638  -21.7944 H         1 3EF1630     0.0000 
     63 H          -3.4522  -14.5952  -25.1750 H         1 3EF1630     0.0000 
     64 H          -5.7451  -13.9923  -25.6354 H         1 3EF1630     0.0000 
     65 H          -7.4229  -14.1232  -23.8836 H         1 3EF1630     0.0000 
     66 H          -6.7725  -14.8408  -21.6574 H         1 3EF1630     0.0000 
     67 H          -4.4710  -15.4153  -21.1858 H         1 3EF1630     0.0000 
     68 H          10.1911  -19.6811  -21.7799 H         1 3EF1630     0.0000 
     69 H           7.8608  -20.3297  -21.5910 H         1 3EF1630     0.0000 
     70 H          10.7638  -17.4646  -22.5783 H         1 3EF1630     0.0000 
     71 H           6.1145  -18.7868  -22.2369 H         1 3EF1630     0.0000 
     72 H           9.0138  -15.9148  -23.2113 H         1 3EF1630     0.0000 
     73 H           4.8002  -17.6176  -23.2317 H         1 3EF1630     0.0000 
     74 H           2.7915  -16.3283  -25.0213 H         1 3EF1630     0.0000 
     75 H           2.6631  -14.6452  -24.4821 H         1 3EF1630     0.0000 
     76 H           0.0500  -15.3257  -23.5996 H         1 3EF1630     0.0000 
     77 H           0.6633  -16.6013  -24.6657 H         1 3EF1630     0.0000 
     78 H           2.3164  -16.9998  -22.6230 H         1 3EF1630     0.0000 
     79 H           3.6465  -15.7617  -20.9848 H         1 3EF1630     0.0000 
     80 H           2.0615  -13.6976  -19.6257 H         1 3EF1630     0.0000 
     81 H           3.2257  -14.6108  -17.9748 H         1 3EF1630     0.0000 
     82 H           4.3706  -13.3388  -18.4343 H         1 3EF1630     0.0000 
     83 H           6.5358  -13.9167  -19.1766 H         1 3EF1630     0.0000 
     84 H           3.6244  -16.9132  -18.7703 H         1 3EF1630     0.0000 
     85 H           8.2498  -15.6205  -19.3962 H         1 3EF1630     0.0000 
     86 H           5.3360  -18.6112  -18.9774 H         1 3EF1630     0.0000 
     87 H           7.4745  -19.0152  -18.8302 H         1 3EF1630     0.0000 
@<TRIPOS>BOND
     1    9    1 2    
     2    3    2 ar   
     3    4    2 ar   
     4   52    2 1    
     5    5    3 ar   
     6   53    3 1    
     7    6    4 ar   
     8   54    4 1    
     9   10    5 ar   
    10   55    5 1    
    11   10    6 ar   
    12   56    6 1    
    13    8    7 1    
    14   10    7 1    
    15   57    7 1    
    16   58    7 1    
    17    9    8 1    
    18   15    9 am   
    19   12   11 ar   
    20   13   12 ar   
    21   14   12 1    
    22   31   12 1    
    23   15   14 1    
    24   16   14 1    
    25   59   14 1    
    26   60   15 1    
    27   17   16 1    
    28   61   16 1    
    29   62   16 1    
    30   18   17 ar   
    31   22   17 ar   
    32   19   18 ar   
    33   63   18 1    
    34   20   19 ar   
    35   64   19 1    
    36   21   20 ar   
    37   65   20 1    
    38   22   21 ar   
    39   66   21 1    
    40   67   22 1    
    41   34   23 2    
    42   25   24 ar   
    43   26   24 ar   
    44   68   24 1    
    45   27   25 ar   
    46   69   25 1    
    47   28   26 ar   
    48   70   26 1    
    49   36   27 ar   
    50   71   27 1    
    51   36   28 ar   
    52   72   28 1    
    53   35   29 2    
    54   37   29 1    
    55   73   29 1    
    56   35   30 1    
    57   38   30 1    
    58   74   30 1    
    59   75   30 1    
    60   38   31 1    
    61   76   31 1    
    62   77   31 1    
    63   33   32 1    
    64   37   32 2    
    65   35   33 1    
    66   38   34 1    
    67   39   34 am   
    68   37   36 1    
    69   78   38 1    
    70   40   39 1    
    71   79   39 1    
    72   41   40 1    
    73   43   40 1    
    74   80   40 1    
    75   42   41 ar   
    76   51   41 ar   
    77   44   43 1    
    78   81   43 1    
    79   82   43 1    
    80   45   44 ar   
    81   46   44 ar   
    82   47   45 ar   
    83   83   45 1    
    84   48   46 ar   
    85   84   46 1    
    86   49   47 ar   
    87   85   47 1    
    88   49   48 ar   
    89   86   48 1    
    90   50   49 1    
    91   87   50 1    
@<TRIPOS>SUBSTRUCTURE
     1 3EF1630     1 GROUP   
@<TRIPOS>SET

