#    Name: 2f3f_AXF_1_INTS_M
#    Modification time : Tue Mar 25 12:16:16 2014

@<TRIPOS>MOLECULE
2f3f_AXF_1_INTS_M
   86     0     9     0     0
SMALL
NO_CHARGES


@<TRIPOS>ATOM
      1 CA         32.9725    9.4880   18.9660 C.3       3 GLC5        0.0000 
      2 CA         30.8370    9.8110   19.5370 C.3       9 GLL5        0.0000 
      3 CA         35.1080    9.1650   18.3950 C.3       6 GLP5        0.0000 
      4 CA         32.1545   11.3070   19.4430 C.3       3 GLC5        0.0000 
      5 CA         33.4720   12.8030   19.3490 C.3       6 GLP5        0.0000 
      6 CA         29.2700    4.4235   17.8415 C.3       3 GLC5        0.0000 
      7 CA         28.4610    5.7200   16.4560 C.3       9 GLL5        0.0000 
      8 CA         30.0790    3.1270   19.2270 C.3       6 GLP5        0.0000 
      9 O          31.1720    5.4370   17.1345 O.2       1 ALC1        0.0000 
     10 O          30.7250    5.5380   15.6250 O.2       7 ALL1        0.0000 
     11 O          31.6190    5.3360   18.6440 O.2       4 ALP1        0.0000 
     12 CA         33.8015    8.5225   17.1945 C.3       3 GLC5        0.0000 
     13 CA         32.4950    7.8800   15.9940 C.3       9 GLL5        0.0000 
     14 CA         32.1355    9.0130   12.8640 C.3       3 GLC5        0.0000 
     15 CA         31.8310    8.9710   14.6630 C.3       9 GLL5        0.0000 
     16 CA         32.4400    9.0550   11.0650 C.3       6 GLP5        0.0000 
     17 CA         32.9410   10.4495   14.1320 C.3       3 GLC5        0.0000 
     18 CA         34.0510   11.9280   13.6010 C.3       6 GLP5        0.0000 
     19 CA         32.0460   11.3395   14.3905 C.3       3 GLC5        0.0000 
     20 CA         31.2130   10.0830   15.4810 C.3       9 GLL5        0.0000 
     21 CA         32.8790   12.5960   13.3000 C.3       6 GLP5        0.0000 
     22 N          34.0900    3.6750   15.6365 N.am      2 SEC2        0.0000 
     23 N          32.9280    3.5000   15.0810 N.am      8 SEL2        0.0000 
     24 N          35.2520    3.8500   16.1920 N.am      5 SEP2        0.0000 
     25 O          32.4970    2.4355   15.5645 O.2       1 ALC1        0.0000 
     26 O          32.9280    3.5000   15.0810 O.2       7 ALL1        0.0000 
     27 O          32.0660    1.3710   16.0480 O.2       4 ALP1        0.0000 
     28 CA         28.9695    3.7580   12.9785 C.3       3 GLC5        0.0000 
     29 CA         31.0430    3.3210   13.5870 C.3       9 GLL5        0.0000 
     30 CA         26.8960    4.1950   12.3700 C.3       6 GLP5        0.0000 
     31 CA         33.5735    1.5400   13.3510 C.3       3 GLC5        0.0000 
     32 CA         31.6770    2.3250   12.5970 C.3       9 GLL5        0.0000 
     33 CA         35.4700    0.7550   14.1050 C.3       6 GLP5        0.0000 
     34 CA         32.1580    0.0165   11.2680 C.3       3 GLC5        0.0000 
     35 CA         30.7900    1.0840   12.4130 C.3       9 GLL5        0.0000 
     36 CA         33.5260   -1.0510   10.1230 C.3       6 GLP5        0.0000 
     37 CA         31.2990   -0.7035   12.9945 C.3       3 GLC5        0.0000 
     38 CA         31.8080   -2.4910   13.5760 C.3       6 GLP5        0.0000 
     39 N          29.6240    4.5560   10.8185 N.am      2 SEC2        0.0000 
     40 N          30.8950    3.6790   10.8270 N.am      8 SEL2        0.0000 
     41 N          28.3530    5.4330   10.8100 N.am      5 SEP2        0.0000 
     42 O          33.9800    2.1170   11.2205 O.2       1 ALC1        0.0000 
     43 O          32.9440    2.7540   10.5720 O.2       7 ALL1        0.0000 
     44 O          35.0160    1.4800   11.8690 O.2       4 ALP1        0.0000 
     45 CA         33.1590    5.0715   10.2245 C.3       3 GLC5        0.0000 
     46 CA         33.1350    3.3500    9.2610 C.3       9 GLL5        0.0000 
     47 CA         33.1830    6.7930   11.1880 C.3       6 GLP5        0.0000 
     48 CA         35.7785    1.2175    8.7955 C.3       3 GLC5        0.0000 
     49 CA         34.3780    2.7180    8.6150 C.3       9 GLL5        0.0000 
     50 CA         37.1790   -0.2830    8.9760 C.3       6 GLP5        0.0000 
     51 CA         33.9520    0.8335    9.3690 C.3       3 GLC5        0.0000 
     52 CA         35.8955    1.4410    6.7590 C.3       3 GLC5        0.0000 
     53 CA         34.4340    2.9740    7.0740 C.3       9 GLL5        0.0000 
     54 CA         37.3570   -0.0920    6.4440 C.3       6 GLP5        0.0000 
     55 CA         34.9670    6.3085    7.1825 C.3       3 GLC5        0.0000 
     56 CA         34.7510    4.4300    6.7610 C.3       9 GLL5        0.0000 
     57 CA         35.1830    8.1870    7.6040 C.3       6 GLP5        0.0000 
     58 CA         35.7580    5.4165    5.1815 C.3       3 GLC5        0.0000 
     59 CA         36.7650    6.4030    3.6020 C.3       6 GLP5        0.0000 
     60 N          27.9490    6.6090   13.2045 N.am      2 SEC2        0.0000 
     61 N          29.0190    5.9260   14.1770 N.am      8 SEL2        0.0000 
     62 N          26.8790    7.2920   12.2320 N.am      5 SEP2        0.0000 
     63 CA         26.9390    5.0970   14.2420 C.3       3 GLC5        0.0000 
     64 CA         26.9820    5.9990   16.1140 C.3       9 GLL5        0.0000 
     65 CA         26.3700    7.3870   14.9740 C.3       3 GLC5        0.0000 
     66 CA         25.7580    8.7750   13.8340 C.3       6 GLP5        0.0000 
     67 N          28.1930    4.8690   20.1330 N.am      2 SEC2        0.0000 
     68 N          27.7480    6.0530   19.1530 N.am      8 SEL2        0.0000 
     69 N          28.6380    3.6850   21.1130 N.am      5 SEP2        0.0000 
     70 CA         28.6070   12.3580   18.2160 C.3       3 GLC5        0.0000 
     71 CA         28.4360   10.0720   18.0740 C.3       9 GLL5        0.0000 
     72 CA         28.3490   14.1430   19.0450 C.3       6 GLP5        0.0000 
     73 CA         30.2580   10.1303   23.1043 C.3       3 GLC5        0.0000 
     74 CA         30.1850   10.1310   20.9180 C.3       9 GLL5        0.0000 
     75 CA         30.5770   10.7850   24.9540 C.3       6 GLP5        0.0000 
     76 CA         31.6585    9.0642   22.4232 C.3       3 GLC5        0.0000 
     77 CA         29.6930    8.8200   21.5910 C.3       9 GLL5        0.0000 
     78 CA         33.3780    8.6530   23.5920 C.3       6 GLP5        0.0000 
     79 CA         30.0890   12.0470   20.0078 C.3       3 GLC5        0.0000 
     80 CA         29.6670   14.1230   19.7880 C.3       6 GLP5        0.0000 
     81 CA         34.5900    7.7902   15.0740 C.3       3 GLC5        0.0000 
     82 CA         32.9930    6.3810   15.0680 C.3       9 GLL5        0.0000 
     83 CA         36.4360    8.4500   14.6170 C.3       6 GLP5        0.0000 
     84 CA         32.7312    5.9458   12.8194 C.3       3 GLC5        0.0000 
     85 CA         35.2578    3.6270   10.1725 C.3       3 GLC5        0.0000 
     86 CA         36.7590    4.2200   11.4070 C.3       6 GLP5        0.0000 
@<TRIPOS>BOND
@<TRIPOS>SUBSTRUCTURE
     1 ALC1        9 GROUP        1 X    ALC  0     ROOT ALC X 1
     2 SEC2       22 GROUP        1 X    SEC  0     **** SEC X 2
     3 GLC5        1 GROUP        1 X    GLC  0     **** GLC X 6
     4 ALP1       11 GROUP        1 Y    ALP  0     ROOT ALP Y 8
     5 SEP2       24 GROUP        1 Y    SEP  0     **** SEP Y 9
     6 GLP5        3 GROUP        1 Y    GLP  0     **** GLP Y 13
     7 ALL1       10 GROUP        1 Z    ALL  0     ROOT ALL Z 15
     8 SEL2       23 GROUP        1 Z    SEL  0     **** SEL Z 16
     9 GLL5        2 GROUP        1 Z    GLL  0     **** GLL Z 20
@<TRIPOS>SET

