#    Name: 2f3f_AXF_1_ligand
#    Modification time : Tue Mar 25 12:16:16 2014

@<TRIPOS>MOLECULE
2f3f_AXF_1_ligand
   75    76     1     0     0
SMALL
NO_CHARGES


@<TRIPOS>ATOM
      1 C2         29.8450    9.0120   18.6550 C.3       1 AXF601      0.0000 
      2 C4         29.3620    7.7690   19.4580 C.3       1 AXF601      0.0000 
      3 S1         28.4360   10.0720   18.0740 S.3       1 AXF601      0.0000 
      4 N6         28.7000    8.1460   20.7160 N.4       1 AXF601      0.0000 
      5 C8         29.6930    8.8200   21.5910 C.3       1 AXF601      0.0000 
      6 C11        30.1850   10.1310   20.9180 C.3       1 AXF601      0.0000 
      7 C14        30.8370    9.8110   19.5370 C.3       1 AXF601      0.0000 
      8 C17        28.6160    6.7610   18.6510 C.2       1 AXF601      0.0000 
      9 N18        29.0010    6.7150   17.3600 N.am      1 AXF601      0.0000 
     10 C20        28.4610    5.7200   16.4560 C.3       1 AXF601      0.0000 
     11 C22        29.4150    5.7380   15.3050 C.2       1 AXF601      0.0000 
     12 N23        30.7250    5.5380   15.6250 N.am      1 AXF601      0.0000 
     13 C25        31.7330    5.5930   14.5890 C.3       1 AXF601      0.0000 
     14 C27        32.9930    6.3810   15.0680 C.3       1 AXF601      0.0000 
     15 S30        32.4950    7.8800   15.9940 S.3       1 AXF601      0.0000 
     16 C31        31.8310    8.9710   14.6630 C.3       1 AXF601      0.0000 
     17 C34        31.2130   10.0830   15.4810 C.2       1 AXF601      0.0000 
     18 C36        29.9120   10.0580   15.7800 C.2       1 AXF601      0.0000 
     19 C38        29.2940   11.0740   16.7000 C.3       1 AXF601      0.0000 
     20 C41        32.1960    4.2100   14.0730 C.3       1 AXF601      0.0000 
     21 O43        32.9280    3.5000   15.0810 O.3       1 AXF601      0.0000 
     22 C45        31.0430    3.3210   13.5870 C.3       1 AXF601      0.0000 
     23 C48        31.6770    2.3250   12.5970 C.3       1 AXF601      0.0000 
     24 C50        30.7900    1.0840   12.4130 C.3       1 AXF601      0.0000 
     25 C54        31.8080    2.9790   11.2440 C.2       1 AXF601      0.0000 
     26 O55        30.8950    3.6790   10.8270 O.2       1 AXF601      0.0000 
     27 N56        32.9440    2.7540   10.5720 N.am      1 AXF601      0.0000 
     28 C58        33.1350    3.3500    9.2610 C.3       1 AXF601      0.0000 
     29 C61        34.3780    2.7180    8.6150 C.3       1 AXF601      0.0000 
     30 C64        34.4340    2.9740    7.0740 C.3       1 AXF601      0.0000 
     31 C67        34.7510    4.4300    6.7610 C.3       1 AXF601      0.0000 
     32 O71        29.0190    5.9260   14.1770 O.2       1 AXF601      0.0000 
     33 C72        26.9820    5.9990   16.1140 C.3       1 AXF601      0.0000 
     34 O76        27.7480    6.0530   19.1530 O.2       1 AXF601      0.0000 
     35 H          30.3083    8.7145   17.7417 H         1 AXF601      0.0000 
     36 H          30.3484    7.2512   19.7693 H         1 AXF601      0.0000 
     37 H          30.5570    8.1819   21.7570 H         1 AXF601      0.0000 
     38 H          29.2501    9.0790   22.5491 H         1 AXF601      0.0000 
     39 H          30.9201   10.6019   21.5521 H         1 AXF601      0.0000 
     40 H          29.3438   10.7892   20.7646 H         1 AXF601      0.0000 
     41 H          31.0860   10.7386   19.0446 H         1 AXF601      0.0000 
     42 H          31.7265    9.2214   19.6986 H         1 AXF601      0.0000 
     43 H          29.6885    7.3793   16.9672 H         1 AXF601      0.0000 
     44 H          28.5314    4.7428   16.9390 H         1 AXF601      0.0000 
     45 H          31.0315    5.3476   16.5815 H         1 AXF601      0.0000 
     46 H          31.3570    6.1472   13.7115 H         1 AXF601      0.0000 
     47 H          33.5603    6.7815   14.2712 H         1 AXF601      0.0000 
     48 H          33.5680    5.8521   15.7799 H         1 AXF601      0.0000 
     49 H          31.1553    8.3470   14.2065 H         1 AXF601      0.0000 
     50 H          32.6906    9.2307   14.1650 H         1 AXF601      0.0000 
     51 H          31.8593   10.8216   15.7692 H         1 AXF601      0.0000 
     52 H          29.2544    9.3534   15.4074 H         1 AXF601      0.0000 
     53 H          29.9631   11.6302   17.2756 H         1 AXF601      0.0000 
     54 H          28.4732   11.5918   16.3172 H         1 AXF601      0.0000 
     55 H          32.8507    4.3886   13.2051 H         1 AXF601      0.0000 
     56 H          30.3202    3.9156   13.0788 H         1 AXF601      0.0000 
     57 H          30.6283    2.7880   14.4105 H         1 AXF601      0.0000 
     58 H          32.6319    2.0270   12.9456 H         1 AXF601      0.0000 
     59 H          33.7058    2.1718   10.9366 H         1 AXF601      0.0000 
     60 H          33.3003    4.4219    9.3318 H         1 AXF601      0.0000 
     61 H          32.2847    3.1615    8.6108 H         1 AXF601      0.0000 
     62 H          34.3688    1.6421    8.7855 H         1 AXF601      0.0000 
     63 H          35.2758    3.1381    9.0669 H         1 AXF601      0.0000 
     64 H          33.4689    2.7055    6.6482 H         1 AXF601      0.0000 
     65 H          35.2003    2.3286    6.6485 H         1 AXF601      0.0000 
     66 H          31.1923    0.4320   11.7703 H         1 AXF601      0.0000 
     67 H          30.6492    0.5970   13.2750 H         1 AXF601      0.0000 
     68 H          29.8853    1.3231   12.0602 H         1 AXF601      0.0000 
     69 H          35.6335    4.7078    7.1405 H         1 AXF601      0.0000 
     70 H          34.7895    4.5983    5.7760 H         1 AXF601      0.0000 
     71 H          34.0620    5.0493    7.1375 H         1 AXF601      0.0000 
     72 H          26.8639    6.8898   15.6752 H         1 AXF601      0.0000 
     73 H          26.6095    5.3128   15.4892 H         1 AXF601      0.0000 
     74 H          26.4050    5.9958   16.9307 H         1 AXF601      0.0000 
     75 H          32.6916    2.5382   14.9432 H         1 AXF601      0.0000 
@<TRIPOS>BOND
     1    2    1 1    
     2    3    1 1    
     3    7    1 1    
     4   35    1 1    
     5    4    2 1    
     6    8    2 1    
     7   36    2 1    
     8   19    3 1    
     9    5    4 1    
    10    6    5 1    
    11   37    5 1    
    12   38    5 1    
    13    7    6 1    
    14   39    6 1    
    15   40    6 1    
    16   41    7 1    
    17   42    7 1    
    18    9    8 am   
    19   34    8 2    
    20   10    9 1    
    21   43    9 1    
    22   11   10 1    
    23   33   10 1    
    24   44   10 1    
    25   12   11 am   
    26   32   11 2    
    27   13   12 1    
    28   45   12 1    
    29   14   13 1    
    30   20   13 1    
    31   46   13 1    
    32   15   14 1    
    33   47   14 1    
    34   48   14 1    
    35   16   15 1    
    36   17   16 1    
    37   49   16 1    
    38   50   16 1    
    39   18   17 2    
    40   51   17 1    
    41   19   18 1    
    42   52   18 1    
    43   53   19 1    
    44   54   19 1    
    45   21   20 1    
    46   22   20 1    
    47   55   20 1    
    48   75   21 1    
    49   23   22 1    
    50   56   22 1    
    51   57   22 1    
    52   24   23 1    
    53   25   23 1    
    54   58   23 1    
    55   66   24 1    
    56   67   24 1    
    57   68   24 1    
    58   26   25 2    
    59   27   25 am   
    60   28   27 1    
    61   59   27 1    
    62   29   28 1    
    63   60   28 1    
    64   61   28 1    
    65   30   29 1    
    66   62   29 1    
    67   63   29 1    
    68   31   30 1    
    69   64   30 1    
    70   65   30 1    
    71   69   31 1    
    72   70   31 1    
    73   71   31 1    
    74   72   33 1    
    75   73   33 1    
    76   74   33 1    
@<TRIPOS>SUBSTRUCTURE
     1 AXF601      1 GROUP   
@<TRIPOS>SET

