#    Name: 1u72_MTX_1_INTS_M
#    Modification time : Tue Mar 25 06:11:17 2014

@<TRIPOS>MOLECULE
1u72_MTX_1_INTS_M
   65     0    12     0     0
SMALL
NO_CHARGES


@<TRIPOS>ATOM
      1 CA         25.3065   13.2240   -4.9615 C.3       4 GLC5        0.0000 
      2 CA         27.4470   12.7490   -4.4770 C.3      12 GLL5        0.0000 
      3 CA         23.1660   13.6990   -5.4460 C.3       8 GLP5        0.0000 
      4 CA         26.2970   11.2350   -4.0630 C.3       4 GLC5        0.0000 
      5 CA         25.1470    9.7210   -3.6490 C.3       8 GLP5        0.0000 
      6 CA         28.3930   11.2540   -5.0835 C.3       4 GLC5        0.0000 
      7 CA         29.3390    9.7590   -5.6900 C.3       8 GLP5        0.0000 
      8 CA         27.6505   14.8545   -4.7690 C.3       4 GLC5        0.0000 
      9 CA         27.8540   16.9600   -5.0610 C.3       8 GLP5        0.0000 
     10 O          28.0470   12.9035   -6.9465 O.2       1 ALC1        0.0000 
     11 O          27.0080   12.5890   -5.6950 O.2       9 ALL1        0.0000 
     12 O          29.0860   13.2180   -8.1980 O.2       5 ALP1        0.0000 
     13 CA         26.0410   11.2430   -2.9525 C.3       4 GLC5        0.0000 
     14 CA         26.9350   12.7650   -2.2560 C.3      12 GLL5        0.0000 
     15 O          24.8280   12.0335   -1.6250 O.2       1 ALC1        0.0000 
     16 O          25.9920   12.6900   -1.3830 O.2       9 ALL1        0.0000 
     17 O          23.6640   11.3770   -1.8670 O.2       5 ALP1        0.0000 
     18 O          25.3055   11.3010   -0.7730 O.2       1 ALC1        0.0000 
     19 O          24.6190    9.9120   -0.1630 O.2       5 ALP1        0.0000 
     20 CA         32.5450   12.6845   -1.6345 C.3       4 GLC5        0.0000 
     21 CA         30.9330   13.5080   -1.5180 C.3      12 GLL5        0.0000 
     22 CA         34.1570   11.8610   -1.7510 C.3       8 GLP5        0.0000 
     23 CA         29.2900   11.4390   -4.3385 C.3       4 GLC5        0.0000 
     24 CA         29.2410   13.1190   -2.9870 C.3      12 GLL5        0.0000 
     25 CA         29.3350   13.3770    2.8125 C.3       4 GLC5        0.0000 
     26 CA         30.4210   13.5990    0.9930 C.3      12 GLL5        0.0000 
     27 CA         28.2490   13.1550    4.6320 C.3       8 GLP5        0.0000 
     28 CA         29.2930   11.9785    1.5835 C.3       4 GLC5        0.0000 
     29 CA         28.1650   10.3580    2.1740 C.3       8 GLP5        0.0000 
     30 CA         33.4405   12.7380    0.0870 C.3       4 GLC5        0.0000 
     31 CA         32.7240   13.6150    1.9250 C.3      12 GLL5        0.0000 
     32 CA         33.2645   13.1645    3.8285 C.3       4 GLC5        0.0000 
     33 CA         33.8050   12.7140    5.7320 C.3       8 GLP5        0.0000 
     34 CA         33.3555   16.8065    2.7810 C.3       4 GLC5        0.0000 
     35 CA         33.0880   16.2370    0.7950 C.3      12 GLL5        0.0000 
     36 CA         33.6230   17.3760    4.7670 C.3       8 GLP5        0.0000 
     37 CA         30.2360   21.1305    0.2280 C.3       4 GLC5        0.0000 
     38 CA         31.2370   21.6120   -1.6760 C.3      12 GLL5        0.0000 
     39 CA         29.2350   20.6490    2.1320 C.3       8 GLP5        0.0000 
     40 NZ         28.2170   22.9275   -1.2235 N.4       3 LYC4        0.0000 
     41 NZ         30.0190   23.6170   -1.5170 N.4      11 LYL4        0.0000 
     42 NZ         26.4720   23.4420   -0.8280 N.4       7 LYP4        0.0000 
     43 N          28.7560   23.9490   -1.2705 N.am      2 SEC2        0.0000 
     44 N          30.0190   23.6170   -1.5170 N.am     10 SEL2        0.0000 
     45 N          27.4930   24.2810   -1.0240 N.am      6 SEP2        0.0000 
     46 NZ         27.8015   21.8555   -1.1925 N.4       3 LYC4        0.0000 
     47 NZ         28.9410   21.5740   -1.4230 N.4      11 LYL4        0.0000 
     48 N          27.8015   21.8555   -1.1925 N.am      2 SEC2        0.0000 
     49 N          28.9410   21.5740   -1.4230 N.am     10 SEL2        0.0000 
     50 N          26.6620   22.1370   -0.9620 N.am      6 SEP2        0.0000 
     51 N          28.2170   22.9275   -1.2235 N.am      2 SEC2        0.0000 
     52 CA         32.3335   19.8055   -4.4425 C.3       4 GLC5        0.0000 
     53 CA         31.6130   21.4920   -3.1550 C.3      12 GLL5        0.0000 
     54 CA         33.0540   18.1190   -5.7300 C.3       8 GLP5        0.0000 
     55 CA         29.9840   21.7980   -4.1285 C.3       4 GLC5        0.0000 
     56 CA         28.3550   22.1040   -5.1020 C.3       8 GLP5        0.0000 
     57 CA         32.6578   18.7508    2.0417 C.3       4 GLC5        0.0000 
     58 CA         32.1390   18.3040    0.0490 C.3      12 GLL5        0.0000 
     59 CA         32.6280   19.5700    3.8250 C.3       8 GLP5        0.0000 
     60 CA         30.3798   19.3210    1.0753 C.3       4 GLC5        0.0000 
     61 CA         31.2091   16.9331    2.4217 C.3       4 GLC5        0.0000 
     62 CA         30.9100   17.6820   -0.0120 C.3      12 GLL5        0.0000 
     63 CA         31.0780   17.5530    4.3950 C.3       8 GLP5        0.0000 
     64 CA         34.3865   17.6370    1.8077 C.3       4 GLC5        0.0000 
     65 CA         35.6110   18.3760    2.9840 C.3       8 GLP5        0.0000 
@<TRIPOS>BOND
@<TRIPOS>SUBSTRUCTURE
     1 ALC1       10 GROUP        1 X    ALC  0     ROOT ALC X 1
     2 SEC2       43 GROUP        1 X    SEC  0     **** SEC X 2
     3 LYC4       40 GROUP        1 X    LYC  0     **** LYC X 4
     4 GLC5        1 GROUP        1 X    GLC  0     **** GLC X 6
     5 ALP1       12 GROUP        1 Y    ALP  0     ROOT ALP Y 8
     6 SEP2       45 GROUP        1 Y    SEP  0     **** SEP Y 9
     7 LYP4       42 GROUP        1 Y    LYP  0     **** LYP Y 11
     8 GLP5        3 GROUP        1 Y    GLP  0     **** GLP Y 13
     9 ALL1       11 GROUP        1 Z    ALL  0     ROOT ALL Z 15
    10 SEL2       44 GROUP        1 Z    SEL  0     **** SEL Z 16
    11 LYL4       41 GROUP        1 Z    LYL  0     **** LYL Z 18
    12 GLL5        2 GROUP        1 Z    GLL  0     **** GLL Z 20
@<TRIPOS>SET

