#    Name: 1u72_MTX_1_ligand
#    Modification time : Tue Mar 25 06:11:17 2014

@<TRIPOS>MOLECULE
1u72_MTX_1_ligand
   53    55     1     0     0
SMALL
NO_CHARGES


@<TRIPOS>ATOM
      1 N1         28.7630   12.9690   -4.2600 N.ar      1 MTX188      0.0000 
      2 C2         27.4470   12.7490   -4.4770 C.ar      1 MTX188      0.0000 
      3 NA2        27.0080   12.5890   -5.6950 N.pl3     1 MTX188      0.0000 
      4 N3         26.5500   12.6420   -3.5030 N.ar      1 MTX188      0.0000 
      5 C4         26.9350   12.7650   -2.2560 C.ar      1 MTX188      0.0000 
      6 NA4        25.9920   12.6900   -1.3830 N.pl3     1 MTX188      0.0000 
      7 C4A        28.3250   13.0470   -1.9270 C.ar      1 MTX188      0.0000 
      8 N5         28.7520   13.2140   -0.6730 N.ar      1 MTX188      0.0000 
      9 C6         30.0250   13.4360   -0.4740 C.ar      1 MTX188      0.0000 
     10 C7         30.9330   13.5080   -1.5180 C.ar      1 MTX188      0.0000 
     11 N8         30.5500   13.3390   -2.7870 N.ar      1 MTX188      0.0000 
     12 C8A        29.2410   13.1190   -2.9870 C.ar      1 MTX188      0.0000 
     13 C9         30.4210   13.5990    0.9930 C.3       1 MTX188      0.0000 
     14 N10        31.7050   14.2510    1.1010 N.pl3     1 MTX188      0.0000 
     15 CM         32.7240   13.6150    1.9250 C.3       1 MTX188      0.0000 
     16 C11        32.1390   18.3040    0.0490 C.ar      1 MTX188      0.0000 
     17 C12        30.9100   17.6820   -0.0120 C.ar      1 MTX188      0.0000 
     18 C13        30.7670   16.3730    0.3060 C.ar      1 MTX188      0.0000 
     19 C14        31.8420   15.5990    0.7500 C.ar      1 MTX188      0.0000 
     20 C15        33.0880   16.2370    0.7950 C.ar      1 MTX188      0.0000 
     21 C16        33.2360   17.5590    0.4680 C.ar      1 MTX188      0.0000 
     22 C          32.2790   19.7460   -0.3000 C.2       1 MTX188      0.0000 
     23 O          33.2540   20.2960    0.2540 O.2       1 MTX188      0.0000 
     24 N          31.3400   20.2890   -1.0690 N.am      1 MTX188      0.0000 
     25 CA         31.2370   21.6120   -1.6760 C.3       1 MTX188      0.0000 
     26 CT         29.9170   22.3420   -1.5180 C.2       1 MTX188      0.0000 
     27 O1         30.0190   23.6170   -1.5170 O.co2     1 MTX188      0.0000 
     28 O2         28.9410   21.5740   -1.4230 O.co2     1 MTX188      0.0000 
     29 CB         31.6130   21.4920   -3.1550 C.3       1 MTX188      0.0000 
     30 CG         33.0050   22.0870   -3.1610 C.3       1 MTX188      0.0000 
     31 CD         33.6830   21.6570   -4.3770 C.2       1 MTX188      0.0000 
     32 OE1        34.7260   20.8850   -4.5630 O.co2     1 MTX188      0.0000 
     33 OE2        33.1150   22.0400   -5.5070 O.co2     1 MTX188      0.0000 
     34 H          27.6865   12.6843   -6.4234 H         1 MTX188      0.0000 
     35 H          26.0333   12.3859   -5.7884 H         1 MTX188      0.0000 
     36 H          25.8760   13.4875   -0.7910 H         1 MTX188      0.0000 
     37 H          25.4633   11.8412   -1.3782 H         1 MTX188      0.0000 
     38 H          31.9367   13.7001   -1.2853 H         1 MTX188      0.0000 
     39 H          30.4404   12.6019    1.4505 H         1 MTX188      0.0000 
     40 H          29.6355   14.1800    1.4924 H         1 MTX188      0.0000 
     41 H          30.0785   18.2407   -0.3108 H         1 MTX188      0.0000 
     42 H          29.8313   15.9112    0.2228 H         1 MTX188      0.0000 
     43 H          33.9191   15.6782    1.0875 H         1 MTX188      0.0000 
     44 H          34.1624   18.0129    0.5298 H         1 MTX188      0.0000 
     45 H          30.4606   19.6587   -1.3181 H         1 MTX188      0.0000 
     46 H          32.0333   22.2659   -1.2328 H         1 MTX188      0.0000 
     47 H          30.9609   22.0810   -3.7348 H         1 MTX188      0.0000 
     48 H          31.6481   20.4763   -3.4299 H         1 MTX188      0.0000 
     49 H          33.5358   21.7421   -2.2758 H         1 MTX188      0.0000 
     50 H          32.9211   23.1714   -3.1239 H         1 MTX188      0.0000 
     51 H          33.5756   14.1392    1.9330 H         1 MTX188      0.0000 
     52 H          32.4281   13.5220    2.8757 H         1 MTX188      0.0000 
     53 H          32.9477   12.6974    1.5966 H         1 MTX188      0.0000 
@<TRIPOS>BOND
     1    2    1 ar   
     2   12    1 ar   
     3    3    2 1    
     4    4    2 ar   
     5   34    3 1    
     6   35    3 1    
     7    5    4 ar   
     8    6    5 1    
     9    7    5 ar   
    10   36    6 1    
    11   37    6 1    
    12    8    7 ar   
    13   12    7 ar   
    14    9    8 ar   
    15   10    9 ar   
    16   13    9 1    
    17   11   10 ar   
    18   38   10 1    
    19   12   11 ar   
    20   14   13 1    
    21   39   13 1    
    22   40   13 1    
    23   15   14 1    
    24   19   14 1    
    25   51   15 1    
    26   52   15 1    
    27   53   15 1    
    28   17   16 ar   
    29   21   16 ar   
    30   22   16 1    
    31   18   17 ar   
    32   41   17 1    
    33   19   18 ar   
    34   42   18 1    
    35   20   19 ar   
    36   21   20 ar   
    37   43   20 1    
    38   44   21 1    
    39   23   22 2    
    40   24   22 am   
    41   25   24 1    
    42   45   24 1    
    43   26   25 1    
    44   29   25 1    
    45   46   25 1    
    46   27   26 ar   
    47   28   26 ar   
    48   30   29 1    
    49   47   29 1    
    50   48   29 1    
    51   31   30 1    
    52   49   30 1    
    53   50   30 1    
    54   32   31 ar   
    55   33   31 ar   
@<TRIPOS>SUBSTRUCTURE
     1 MTX188      1 GROUP   
@<TRIPOS>SET

