#    Name: 1pnq_NDP_1_INTS_M
#    Modification time : Mon Mar 24 21:58:44 2014

@<TRIPOS>MOLECULE
1pnq_NDP_1_INTS_M
  135     0    12     0     0
SMALL
NO_CHARGES


@<TRIPOS>ATOM
      1 N          -5.2375   73.4005   33.2580 N.am      2 SEC2        0.0000 
      2 N          -6.4030   72.5100   33.2380 N.am     10 SEL2        0.0000 
      3 N          -4.0720   74.2910   33.2780 N.am      6 SEP2        0.0000 
      4 NZ         -8.1525   69.1495   31.8120 N.4       3 LYC4        0.0000 
      5 NZ         -7.5670   70.2710   32.8610 N.4      11 LYL4        0.0000 
      6 NZ         -9.2820   66.9820   31.3700 N.4       7 LYP4        0.0000 
      7 N          -8.1525   69.1495   31.8120 N.am      2 SEC2        0.0000 
      8 N          -7.5670   70.2710   32.8610 N.am     10 SEL2        0.0000 
      9 N          -8.7380   68.0280   30.7630 N.am      6 SEP2        0.0000 
     10 N          -7.0105   69.6935   34.1270 N.am      2 SEC2        0.0000 
     11 N          -6.4540   69.1160   35.3930 N.am      6 SEP2        0.0000 
     12 CA         -9.8870   72.2760   31.3970 C.3       4 GLC5        0.0000 
     13 CA         -9.2400   73.4510   32.9080 C.3      12 GLL5        0.0000 
     14 CA        -10.5340   71.1010   29.8860 C.3       8 GLP5        0.0000 
     15 CA         -8.5905   75.0620   31.6900 C.3       4 GLC5        0.0000 
     16 CA         -7.9410   76.6730   30.4720 C.3       8 GLP5        0.0000 
     17 CA         -8.5940   72.4005   35.8770 C.3       4 GLC5        0.0000 
     18 CA        -10.2170   73.6110   35.2490 C.3      12 GLL5        0.0000 
     19 CA         -6.9710   71.1900   36.5050 C.3       8 GLP5        0.0000 
     20 N          -7.8255   74.8675   36.5800 N.am      2 SEC2        0.0000 
     21 N          -9.2280   74.1290   36.1970 N.am     10 SEL2        0.0000 
     22 N          -6.4230   75.6060   36.9630 N.am      6 SEP2        0.0000 
     23 CA        -12.9055   74.3310   32.5490 C.3       4 GLC5        0.0000 
     24 CA        -12.2070   74.5780   34.5690 C.3      12 GLL5        0.0000 
     25 CA        -13.6040   74.0840   30.5290 C.3       8 GLP5        0.0000 
     26 CA        -12.2465   76.5765   35.1775 C.3       4 GLC5        0.0000 
     27 CA        -12.2860   78.5750   35.7860 C.3       8 GLP5        0.0000 
     28 CA        -16.4040   72.6505   32.1230 C.3       4 GLC5        0.0000 
     29 CA        -15.9080   74.1190   33.6860 C.3      12 GLL5        0.0000 
     30 CA        -16.9000   71.1820   30.5600 C.3       8 GLP5        0.0000 
     31 CA        -18.2945   75.0575   31.3885 C.3       4 GLC5        0.0000 
     32 CA        -17.0790   74.8280   33.2560 C.3      12 GLL5        0.0000 
     33 CA        -19.5100   75.2870   29.5210 C.3       8 GLP5        0.0000 
     34 O         -19.5230   75.0765   33.0720 O.2       1 ALC1        0.0000 
     35 O         -18.2320   74.1580   33.0880 O.2       9 ALL1        0.0000 
     36 O         -20.8140   75.9950   33.0560 O.2       5 ALP1        0.0000 
     37 N         -17.5840   77.4190   32.5050 N.am      2 SEC2        0.0000 
     38 N         -17.0230   76.1840   33.0180 N.am     10 SEL2        0.0000 
     39 N         -18.1450   78.6540   31.9920 N.am      6 SEP2        0.0000 
     40 CA        -14.7315   75.4945   31.8540 C.3       4 GLC5        0.0000 
     41 CA        -15.8590   76.9050   33.1790 C.3      12 GLL5        0.0000 
     42 CA        -14.7425   78.0635   34.2890 C.3       4 GLC5        0.0000 
     43 CA        -13.6260   79.2220   35.3990 C.3       8 GLP5        0.0000 
     44 CA        -16.6005   76.6560   34.9845 C.3       4 GLC5        0.0000 
     45 CA        -17.3420   76.4070   36.7900 C.3       8 GLP5        0.0000 
     46 CA        -17.7345   77.8420   33.5570 C.3       4 GLC5        0.0000 
     47 CA        -19.6100   78.7790   33.9350 C.3       8 GLP5        0.0000 
     48 CA        -16.2860   77.4815   31.6360 C.3       4 GLC5        0.0000 
     49 CA        -16.7130   78.0580   30.0930 C.3       8 GLP5        0.0000 
     50 CA        -16.0210   75.7150   35.3070 C.3       4 GLC5        0.0000 
     51 CA        -14.7000   75.0230   33.8240 C.3      12 GLL5        0.0000 
     52 N          -6.2050   75.0415   31.2835 N.am      2 SEC2        0.0000 
     53 N          -6.1000   74.0130   30.4090 N.am     10 SEL2        0.0000 
     54 N          -6.3100   76.0700   32.1580 N.am      6 SEP2        0.0000 
     55 N          -8.6455   72.6970   28.5060 N.am      2 SEC2        0.0000 
     56 N          -7.1770   72.4750   28.7010 N.am     10 SEL2        0.0000 
     57 N         -10.1140   72.9190   28.3110 N.am      6 SEP2        0.0000 
     58 N          -7.3775   71.6080   27.5795 N.am      2 SEC2        0.0000 
     59 N          -7.5780   70.7410   26.4580 N.am      6 SEP2        0.0000 
     60 CA         -5.4525   70.9585   27.7190 C.3       4 GLC5        0.0000 
     61 CA         -5.4140   70.1900   29.7860 C.3      12 GLL5        0.0000 
     62 CA         -5.4910   71.7270   25.6520 C.3       8 GLP5        0.0000 
     63 CA         -4.2570   71.7845   28.8900 C.3       4 GLC5        0.0000 
     64 CA         -3.1000   73.3790   27.9940 C.3       8 GLP5        0.0000 
     65 O          -3.4625   69.4360   33.3445 O.2       1 ALC1        0.0000 
     66 O          -3.1640   68.6400   32.3510 O.2       9 ALL1        0.0000 
     67 O          -3.7610   70.2320   34.3380 O.2       5 ALP1        0.0000 
     68 CA         -2.2370   68.4070   28.2930 C.3       4 GLC5        0.0000 
     69 CA         -3.2520   67.8220   29.9640 C.3      12 GLL5        0.0000 
     70 CA         -1.2220   68.9920   26.6220 C.3       8 GLP5        0.0000 
     71 CA         -1.1470   68.2675   29.8365 C.3       4 GLC5        0.0000 
     72 CA          0.9580   68.7130   29.7090 C.3       8 GLP5        0.0000 
     73 O          -4.8700   68.2890   25.8630 O.2       1 ALC1        0.0000 
     74 O          -5.4940   67.1170   25.0680 O.2       9 ALL1        0.0000 
     75 O          -4.2460   69.4610   26.6580 O.2       5 ALP1        0.0000 
     76 CA         -5.9220   62.5985   25.8370 C.3       4 GLC5        0.0000 
     77 CA         -5.5240   64.0040   27.0210 C.3      12 GLL5        0.0000 
     78 CA         -6.3200   61.1930   24.6530 C.3       8 GLP5        0.0000 
     79 CA         -5.3790   61.6750   29.0480 C.3       4 GLC5        0.0000 
     80 CA         -5.7310   63.6770   28.3690 C.3      12 GLL5        0.0000 
     81 CA         -5.0270   59.6730   29.7270 C.3       8 GLP5        0.0000 
     82 CA         -7.3940   62.5550   28.5680 C.3       4 GLC5        0.0000 
     83 CA         -9.0570   61.4330   28.7670 C.3       8 GLP5        0.0000 
     84 NZ        -14.7800   72.9020   38.0450 N.4       3 LYC4        0.0000 
     85 NZ        -13.7210   73.8060   38.4830 N.4      11 LYL4        0.0000 
     86 NZ        -16.8920   72.7520   37.3310 N.4       7 LYP4        0.0000 
     87 N         -15.2265   73.9280   37.7930 N.am      2 SEC2        0.0000 
     88 N         -13.7210   73.8060   38.4830 N.am     10 SEL2        0.0000 
     89 N         -16.7320   74.0500   37.1030 N.am      6 SEP2        0.0000 
     90 N         -14.7800   72.9020   38.0450 N.am      2 SEC2        0.0000 
     91 N         -15.8390   71.9980   37.6070 N.am      6 SEP2        0.0000 
     92 NZ        -11.1830   76.5965   38.5085 N.4       3 LYC4        0.0000 
     93 NZ        -12.5730   75.9960   38.5960 N.4      11 LYL4        0.0000 
     94 NZ         -9.7930   77.1970   38.4210 N.4       7 LYP4        0.0000 
     95 N         -11.1830   76.5965   38.5085 N.am      2 SEC2        0.0000 
     96 N         -12.5730   75.9960   38.5960 N.am     10 SEL2        0.0000 
     97 N          -9.7930   77.1970   38.4210 N.am      6 SEP2        0.0000 
     98 N         -13.3955   77.0690   39.1815 N.am      2 SEC2        0.0000 
     99 N         -14.2180   78.1420   39.7670 N.am      6 SEP2        0.0000 
    100 N         -12.9770   76.0290   40.1365 N.am      2 SEC2        0.0000 
    101 N         -13.3810   76.0620   41.6770 N.am      6 SEP2        0.0000 
    102 NZ        -15.4345   74.7985   36.9745 N.4       3 LYC4        0.0000 
    103 NZ        -14.1370   75.5470   36.8460 N.4      11 LYL4        0.0000 
    104 N         -14.6000   76.8570   36.9450 N.am      2 SEC2        0.0000 
    105 N         -14.1370   75.5470   36.8460 N.am     10 SEL2        0.0000 
    106 N         -15.0630   78.1670   37.0440 N.am      6 SEP2        0.0000 
    107 N         -15.4345   74.7985   36.9745 N.am      2 SEC2        0.0000 
    108 CA         -8.1058   74.5990   34.4330 C.3       4 GLC5        0.0000 
    109 CA         -9.9840   74.1910   33.9020 C.3      12 GLL5        0.0000 
    110 CA         -6.2970   75.4820   34.5390 C.3       8 GLP5        0.0000 
    111 CA        -10.2860   75.6240   36.2233 C.3       4 GLC5        0.0000 
    112 CA         -9.6730   77.5090   36.9750 C.3       8 GLP5        0.0000 
    113 CA        -17.1568   74.7223   35.1315 C.3       4 GLC5        0.0000 
    114 CA        -17.8200   74.9710   36.7920 C.3       8 GLP5        0.0000 
    115 CA        -14.6004   74.4161   32.0883 C.3       4 GLC5        0.0000 
    116 CA         -5.1647   68.1518   32.3190 C.3       4 GLC5        0.0000 
    117 CA         -3.5800   68.9550   30.9830 C.3      12 GLL5        0.0000 
    118 CA         -5.9890   67.3160   33.8110 C.3       8 GLP5        0.0000 
    119 CA         -3.7449   70.6775   31.8024 C.3       4 GLC5        0.0000 
    120 CA         -3.0710   72.0750   32.9990 C.3       8 GLP5        0.0000 
    121 CA         -4.1400   66.3798   31.6645 C.3       4 GLC5        0.0000 
    122 CA         -4.4200   65.4100   33.2610 C.3       8 GLP5        0.0000 
    123 CA         -3.5445   67.0360   26.3887 C.3       4 GLC5        0.0000 
    124 CA         -4.8570   66.3140   27.6920 C.3      12 GLL5        0.0000 
    125 CA         -2.0330   68.2190   25.5930 C.3       8 GLP5        0.0000 
    126 CA         -3.1295   65.0195   27.5657 C.3       4 GLC5        0.0000 
    127 CA         -5.2550   65.3920   26.6770 C.3      12 GLL5        0.0000 
    128 CA         -1.2030   64.1860   27.9470 C.3       8 GLP5        0.0000 
    129 CA         -7.1120   65.5177   26.6864 C.3       4 GLC5        0.0000 
    130 CA         -8.9340   66.1070   26.2700 C.3       8 GLP5        0.0000 
    131 CA         -7.3632   64.8953   29.0667 C.3       4 GLC5        0.0000 
    132 CA         -9.1900   65.6630   29.2800 C.3       8 GLP5        0.0000 
    133 CA         -3.6804   63.7491   28.7263 C.3       4 GLC5        0.0000 
    134 CA         -5.3420   64.5780   29.3380 C.3      12 GLL5        0.0000 
    135 CA         -1.8760   63.2890   28.9360 C.3       8 GLP5        0.0000 
@<TRIPOS>BOND
@<TRIPOS>SUBSTRUCTURE
     1 ALC1       34 GROUP        1 X    ALC  0     ROOT ALC X 1
     2 SEC2        1 GROUP        1 X    SEC  0     **** SEC X 2
     3 LYC4        4 GROUP        1 X    LYC  0     **** LYC X 4
     4 GLC5       12 GROUP        1 X    GLC  0     **** GLC X 6
     5 ALP1       36 GROUP        1 Y    ALP  0     ROOT ALP Y 8
     6 SEP2        3 GROUP        1 Y    SEP  0     **** SEP Y 9
     7 LYP4        6 GROUP        1 Y    LYP  0     **** LYP Y 11
     8 GLP5       14 GROUP        1 Y    GLP  0     **** GLP Y 13
     9 ALL1       35 GROUP        1 Z    ALL  0     ROOT ALL Z 15
    10 SEL2        2 GROUP        1 Z    SEL  0     **** SEL Z 16
    11 LYL4        5 GROUP        1 Z    LYL  0     **** LYL Z 18
    12 GLL5       13 GROUP        1 Z    GLL  0     **** GLL Z 20
@<TRIPOS>SET

