#    Name: 1pnq_NDP_1_ligand
#    Modification time : Mon Mar 24 21:58:44 2014

@<TRIPOS>MOLECULE
1pnq_NDP_1_ligand
   74    78     1     0     0
SMALL
NO_CHARGES


@<TRIPOS>ATOM
      1 PA         -7.5060   71.7250   32.6440 P.3       1 NDP500      0.0000 
      2 O1A        -6.4030   72.5100   33.2380 O.co2     1 NDP500      0.0000 
      3 O2A        -7.5670   70.2710   32.8610 O.co2     1 NDP500      0.0000 
      4 O5B        -8.8770   72.4140   33.1390 O.3       1 NDP500      0.0000 
      5 C5B        -9.2400   73.4510   32.9080 C.3       1 NDP500      0.0000 
      6 C4B        -9.9840   74.1910   33.9020 C.3       1 NDP500      0.0000 
      7 O4B       -11.3690   74.2220   33.3550 O.3       1 NDP500      0.0000 
      8 C3B       -10.2170   73.6110   35.2490 C.3       1 NDP500      0.0000 
      9 O3B        -9.2280   74.1290   36.1970 O.3       1 NDP500      0.0000 
     10 C2B       -11.5810   73.8670   35.6940 C.3       1 NDP500      0.0000 
     11 O2B       -11.9330   74.4850   36.8540 O.3       1 NDP500      0.0000 
     12 C1B       -12.2070   74.5780   34.5690 C.3       1 NDP500      0.0000 
     13 N9A       -13.7140   74.1700   34.2450 N.pl3     1 NDP500      0.0000 
     14 C8A       -14.2460   72.8710   34.3490 C.2       1 NDP500      0.0000 
     15 N7A       -15.5270   72.8530   34.0200 N.2       1 NDP500      0.0000 
     16 C5A       -15.9080   74.1190   33.6860 C.ar      1 NDP500      0.0000 
     17 C6A       -17.0790   74.8280   33.2560 C.ar      1 NDP500      0.0000 
     18 N6A       -18.2320   74.1580   33.0880 N.pl3     1 NDP500      0.0000 
     19 N1A       -17.0230   76.1840   33.0180 N.ar      1 NDP500      0.0000 
     20 C2A       -15.8590   76.9050   33.1790 C.ar      1 NDP500      0.0000 
     21 N3A       -14.6840   76.3610   33.5820 N.ar      1 NDP500      0.0000 
     22 C4A       -14.7000   75.0230   33.8240 C.ar      1 NDP500      0.0000 
     23 O3         -7.6250   71.8810   31.0460 O.3       1 NDP500      0.0000 
     24 PN         -6.5170   72.6530   30.0140 P.3       1 NDP500      0.0000 
     25 O1N        -6.1000   74.0130   30.4090 O.co2     1 NDP500      0.0000 
     26 O2N        -7.1770   72.4750   28.7010 O.co2     1 NDP500      0.0000 
     27 O5D        -5.5620   71.4820   30.2950 O.3       1 NDP500      0.0000 
     28 C5D        -5.4140   70.1900   29.7860 C.3       1 NDP500      0.0000 
     29 C4D        -5.1010   69.0200   30.6710 C.3       1 NDP500      0.0000 
     30 O4D        -5.6650   67.7340   30.2820 O.3       1 NDP500      0.0000 
     31 C3D        -3.5800   68.9550   30.9830 C.3       1 NDP500      0.0000 
     32 O3D        -3.1640   68.6400   32.3510 O.3       1 NDP500      0.0000 
     33 C2D        -3.2520   67.8220   29.9640 C.3       1 NDP500      0.0000 
     34 O2D        -2.0460   67.1590   30.0820 O.3       1 NDP500      0.0000 
     35 C1D        -4.4680   66.8770   30.1720 C.3       1 NDP500      0.0000 
     36 N1N        -4.8900   65.9270   29.0580 N.pl3     1 NDP500      0.0000 
     37 C2N        -4.8570   66.3140   27.6920 C.2       1 NDP500      0.0000 
     38 C3N        -5.2550   65.3920   26.6770 C.2       1 NDP500      0.0000 
     39 C7N        -5.2140   65.8080   25.2580 C.2       1 NDP500      0.0000 
     40 O7N        -4.9530   65.0010   24.3730 O.2       1 NDP500      0.0000 
     41 N7N        -5.4940   67.1170   25.0680 N.am      1 NDP500      0.0000 
     42 C4N        -5.5240   64.0040   27.0210 C.3       1 NDP500      0.0000 
     43 C5N        -5.7310   63.6770   28.3690 C.2       1 NDP500      0.0000 
     44 C6N        -5.3420   64.5780   29.3380 C.2       1 NDP500      0.0000 
     45 P2B       -13.1750   74.9670   37.7420 P.3       1 NDP500      0.0000 
     46 O1X       -13.7210   73.8060   38.4830 O.co2     1 NDP500      0.0000 
     47 O2X       -12.5730   75.9960   38.5960 O.co2     1 NDP500      0.0000 
     48 O3X       -14.1370   75.5470   36.8460 O.co2     1 NDP500      0.0000 
     49 H          -9.9158   73.5537   31.9345 H         1 NDP500      0.0000 
     50 H          -8.4028   74.2244   32.5677 H         1 NDP500      0.0000 
     51 H          -9.6708   75.2079   33.9798 H         1 NDP500      0.0000 
     52 H         -10.0735   72.5174   35.1648 H         1 NDP500      0.0000 
     53 H         -12.1159   72.8347   35.6368 H         1 NDP500      0.0000 
     54 H         -12.1662   75.6362   34.6967 H         1 NDP500      0.0000 
     55 H         -13.7005   72.1104   34.6322 H         1 NDP500      0.0000 
     56 H         -19.0059   74.6923   32.7479 H         1 NDP500      0.0000 
     57 H         -18.2131   73.1850   33.3181 H         1 NDP500      0.0000 
     58 H         -15.8941   77.9468   32.9730 H         1 NDP500      0.0000 
     59 H          -4.6183   70.1817   28.9467 H         1 NDP500      0.0000 
     60 H          -6.3512   69.8924   29.1772 H         1 NDP500      0.0000 
     61 H          -5.5617   69.2903   31.6978 H         1 NDP500      0.0000 
     62 H          -3.1441   69.8407   30.5697 H         1 NDP500      0.0000 
     63 H          -3.4289   68.2669   28.9714 H         1 NDP500      0.0000 
     64 H          -4.3694   66.3380   31.0883 H         1 NDP500      0.0000 
     65 H          -4.5498   67.2490   27.4327 H         1 NDP500      0.0000 
     66 H          -5.4611   67.4413   24.1226 H         1 NDP500      0.0000 
     67 H          -5.7091   67.6447   25.8897 H         1 NDP500      0.0000 
     68 H          -4.6774   63.3655   26.5910 H         1 NDP500      0.0000 
     69 H          -6.4147   63.6534   26.3940 H         1 NDP500      0.0000 
     70 H          -6.1620   62.7868   28.6171 H         1 NDP500      0.0000 
     71 H          -5.3643   64.2970   30.3494 H         1 NDP500      0.0000 
     72 H          -9.7634   74.6026   36.8964 H         1 NDP500      0.0000 
     73 H          -3.5003   69.4012   32.9054 H         1 NDP500      0.0000 
     74 H          -1.3664   67.7896   29.7073 H         1 NDP500      0.0000 
@<TRIPOS>BOND
     1    2    1 ar   
     2    3    1 ar   
     3    4    1 1    
     4   23    1 1    
     5    5    4 1    
     6    6    5 1    
     7   49    5 1    
     8   50    5 1    
     9    7    6 1    
    10    8    6 1    
    11   51    6 1    
    12   12    7 1    
    13    9    8 1    
    14   10    8 1    
    15   52    8 1    
    16   72    9 1    
    17   11   10 1    
    18   12   10 1    
    19   53   10 1    
    20   45   11 1    
    21   13   12 1    
    22   54   12 1    
    23   14   13 1    
    24   22   13 1    
    25   15   14 2    
    26   55   14 1    
    27   16   15 1    
    28   17   16 ar   
    29   22   16 ar   
    30   18   17 1    
    31   19   17 ar   
    32   56   18 1    
    33   57   18 1    
    34   20   19 ar   
    35   21   20 ar   
    36   58   20 1    
    37   22   21 ar   
    38   24   23 1    
    39   25   24 ar   
    40   26   24 ar   
    41   27   24 1    
    42   28   27 1    
    43   29   28 1    
    44   59   28 1    
    45   60   28 1    
    46   30   29 1    
    47   31   29 1    
    48   61   29 1    
    49   35   30 1    
    50   32   31 1    
    51   33   31 1    
    52   62   31 1    
    53   73   32 1    
    54   34   33 1    
    55   35   33 1    
    56   63   33 1    
    57   74   34 1    
    58   36   35 1    
    59   64   35 1    
    60   37   36 1    
    61   44   36 1    
    62   38   37 2    
    63   65   37 1    
    64   39   38 1    
    65   42   38 1    
    66   40   39 2    
    67   41   39 am   
    68   66   41 1    
    69   67   41 1    
    70   43   42 1    
    71   68   42 1    
    72   69   42 1    
    73   44   43 2    
    74   70   43 1    
    75   71   44 1    
    76   46   45 ar   
    77   47   45 ar   
    78   48   45 ar   
@<TRIPOS>SUBSTRUCTURE
     1 NDP500      1 GROUP   
@<TRIPOS>SET

