#    Name: 2BSX_1_CAVITY_N1_6.mol2
#    Modification time : Tue Mar 11 04:49:08 2014

@<TRIPOS>MOLECULE
2BSX_1_CAVITY_N1_6.mol2
   78     0     6     0     0
SMALL
NO_CHARGES


@<TRIPOS>ATOM
      1 O          25.1506    6.0436  -17.4000 O.2       2 ALA2        0.0000 
      2 OG         26.3043    5.4562  -15.1475 O.2       1 SER1        0.0000 
      3 O          27.1714    7.6321  -17.0219 O.2       2 ALA2        0.0000 
      4 OG         24.8773    5.8918  -15.3018 O.2       1 SER1        0.0000 
      5 O          25.3108    6.9798  -16.2390 O.2       2 ALA2        0.0000 
      6 O          23.4503    6.3275  -15.4561 O.2       2 ALA2        0.0000 
      7 O          23.8838    7.4155  -16.3933 O.2       2 ALA2        0.0000 
      8 N          19.2957    3.9349  -12.9532 N.2       2 ALA2        0.0000 
      9 CA         19.7292    5.0229  -13.8904 C.3       5 GLY6        0.0000 
     10 CA         17.8687    4.3706  -13.1075 C.3       5 GLY6        0.0000 
     11 OG         26.4646    6.3923  -13.9865 O.2       1 SER1        0.0000 
     12 CA         26.8981    7.4803  -14.9237 C.3       5 GLY6        0.0000 
     13 CZ         24.6041    5.7400  -13.2037 C.ar      4 PHE5        0.0000 
     14 OG         25.0376    6.8280  -14.1409 O.2       1 SER1        0.0000 
     15 CA         25.4711    7.9160  -15.0780 C.3       5 GLY6        0.0000 
     16 CZ         23.1771    6.1757  -13.3580 C.ar      4 PHE5        0.0000 
     17 CA         23.6106    7.2637  -14.2952 C.3       5 GLY6        0.0000 
     18 CA         24.0441    8.3517  -15.2324 C.3       5 GLY6        0.0000 
     19 CZ         20.8830    4.4354  -11.6379 C.ar      4 PHE5        0.0000 
     20 CZ         21.3165    5.5234  -12.5751 C.ar      4 PHE5        0.0000 
     21 CZ         21.7500    6.6114  -13.5123 C.ar      4 PHE5        0.0000 
     22 CA         22.1836    7.6994  -14.4495 C.3       5 GLY6        0.0000 
     23 CA         19.4560    4.8711  -11.7922 C.3       5 GLY6        0.0000 
     24 CA         19.8895    5.9591  -12.7294 C.3       5 GLY6        0.0000 
     25 CA         18.0290    5.3068  -11.9465 C.3       5 GLY6        0.0000 
     26 CA         26.3178    2.5409   -8.9225 C.3       5 GLY6        0.0000 
     27 CZ         26.7513    3.6289   -9.8597 C.ar      4 PHE5        0.0000 
     28 CZ         25.7578    5.1525  -10.9512 C.ar      4 PHE5        0.0000 
     29 CZ         26.1914    6.2405  -11.8884 C.ar      4 PHE5        0.0000 
     30 NZ         26.6249    7.3285  -12.8256 N.2       3 LYS4        0.0000 
     31 CZ         24.3308    5.5882  -11.1055 C.ar      4 PHE5        0.0000 
     32 CZ         24.7643    6.6762  -12.0427 C.ar      4 PHE5        0.0000 
     33 NZ         25.1979    7.7642  -12.9799 N.2       3 LYS4        0.0000 
     34 CA         25.6314    8.8522  -13.9171 C.3       5 GLY6        0.0000 
     35 CZ         22.4703    4.9359  -10.3226 C.ar      4 PHE5        0.0000 
     36 CZ         22.9038    6.0239  -11.2598 C.ar      4 PHE5        0.0000 
     37 O          23.3373    7.1119  -12.1970 O.2       2 ALA2        0.0000 
     38 O          23.7709    8.1999  -13.1342 O.2       2 ALA2        0.0000 
     39 CA         20.6097    4.2836   -9.5398 C.3       5 GLY6        0.0000 
     40 CZ         21.0433    5.3716  -10.4769 C.ar      4 PHE5        0.0000 
     41 N          21.4768    6.4596  -11.4141 N.2       2 ALA2        0.0000 
     42 N          21.9103    7.5476  -12.3513 N.2       2 ALA2        0.0000 
     43 CA         19.6163    5.8073  -10.6313 C.3       5 GLY6        0.0000 
     44 CA         20.0498    6.8953  -11.5685 C.3       5 GLY6        0.0000 
     45 CA         26.4781    3.4771   -7.7615 C.3       5 GLY6        0.0000 
     46 DU         26.9116    4.5651   -8.6987 H         6 CUB7        0.0000 
     47 OG         27.3451    5.6531   -9.6359 O.2       1 SER1        0.0000 
     48 OG         27.7787    6.7410  -10.5731 O.2       1 SER1        0.0000 
     49 CA         25.4846    5.0007   -8.8530 C.3       5 GLY6        0.0000 
     50 DU         25.9181    6.0887   -9.7902 H         6 CUB7        0.0000 
     51 OG         26.3516    7.1767  -10.7274 O.2       1 SER1        0.0000 
     52 CA         24.0576    5.4364   -9.0073 C.3       5 GLY6        0.0000 
     53 CZ         24.4911    6.5244   -9.9445 C.ar      4 PHE5        0.0000 
     54 NZ         24.9246    7.6124  -10.8817 N.2       3 LYS4        0.0000 
     55 NZ         25.3582    8.7004  -11.8189 N.2       3 LYS4        0.0000 
     56 CA         22.6306    5.8721   -9.1617 C.3       5 GLY6        0.0000 
     57 N          23.0641    6.9601  -10.0988 N.2       2 ALA2        0.0000 
     58 N          23.4976    8.0481  -11.0360 N.2       2 ALA2        0.0000 
     59 CA         21.2036    6.3078   -9.3160 C.3       5 GLY6        0.0000 
     60 N          21.6371    7.3958  -10.2532 N.2       2 ALA2        0.0000 
     61 CA         28.4989    5.0656   -7.3834 C.3       5 GLY6        0.0000 
     62 CA         26.6384    4.4133   -6.6005 C.3       5 GLY6        0.0000 
     63 CA         27.0719    5.5012   -7.5377 C.3       5 GLY6        0.0000 
     64 OG         27.5054    6.5892   -8.4749 O.2       1 SER1        0.0000 
     65 CA         25.2113    4.8489   -6.7549 C.3       5 GLY6        0.0000 
     66 CA         25.6449    5.9369   -7.6920 C.3       5 GLY6        0.0000 
     67 OG         26.0784    7.0249   -8.6292 O.2       1 SER1        0.0000 
     68 CA         24.2179    6.3726   -7.8464 C.3       5 GLY6        0.0000 
     69 N          24.6514    7.4606   -8.7836 N.2       2 ALA2        0.0000 
     70 OG         25.0849    8.5486   -9.7207 O.2       1 SER1        0.0000 
     71 CA         23.2244    7.8963   -8.9379 C.3       5 GLY6        0.0000 
     72 NZ         27.2322    6.4374   -6.3768 N.2       3 LYS4        0.0000 
     73 OG         27.6657    7.5254   -7.3139 O.2       1 SER1        0.0000 
     74 NZ         25.8052    6.8731   -6.5311 N.2       3 LYS4        0.0000 
     75 OG         26.2387    7.9611   -7.4683 O.2       1 SER1        0.0000 
     76 NZ         24.3781    7.3088   -6.6854 N.2       3 LYS4        0.0000 
     77 N          24.8117    8.3968   -7.6226 N.2       2 ALA2        0.0000 
     78 O          26.3990    8.8973   -6.3073 O.2       2 ALA2        0.0000 
@<TRIPOS>BOND
@<TRIPOS>SUBSTRUCTURE
     1 SER1        2 GROUP   
     2 ALA2        1 GROUP   
     3 LYS4       30 GROUP   
     4 PHE5       13 GROUP   
     5 GLY6        9 GROUP   
     6 CUB7       46 GROUP   
@<TRIPOS>SET

