#    Name: 2bsx_NOS_1_INTS_M
#    Modification time : Mon Mar 24 21:37:43 2014

@<TRIPOS>MOLECULE
2bsx_NOS_1_INTS_M
   36     0     6     0     0
SMALL
NO_CHARGES


@<TRIPOS>ATOM
      1 CA         22.3670    8.0770   -9.2710 C.3       2 GLC5        0.0000 
      2 CA         23.5730    6.9500  -10.5300 C.3       6 GLL5        0.0000 
      3 CA         21.1610    9.2040   -8.0120 C.3       4 GLP5        0.0000 
      4 CA         19.7245    6.9195  -10.7155 C.3       2 GLC5        0.0000 
      5 CA         21.5140    5.7900  -10.5440 C.3       6 GLL5        0.0000 
      6 CA         17.9350    8.0490  -10.8870 C.3       4 GLP5        0.0000 
      7 CA         21.3375    7.4970   -9.2780 C.3       2 GLC5        0.0000 
      8 CA         21.6385    5.3415   -8.6845 C.3       2 GLC5        0.0000 
      9 CA         21.7630    4.8930   -6.8250 C.3       4 GLP5        0.0000 
     10 CA         20.7350    7.7955  -12.7085 C.3       2 GLC5        0.0000 
     11 CA         22.2260    6.6010  -12.6350 C.3       6 GLL5        0.0000 
     12 CA         19.2440    8.9900  -12.7820 C.3       4 GLP5        0.0000 
     13 CA         22.9495    8.9695  -13.1335 C.3       2 GLC5        0.0000 
     14 CA         23.4240    7.1430  -11.9900 C.3       6 GLL5        0.0000 
     15 CA         22.4750   10.7960  -14.2770 C.3       4 GLP5        0.0000 
     16 CA         25.3575    3.8500  -10.6785 C.3       2 GLC5        0.0000 
     17 CA         26.5600    4.5570   -9.4130 C.3       6 GLL5        0.0000 
     18 CA         24.1550    3.1430  -11.9440 C.3       4 GLP5        0.0000 
     19 CA         24.7085    4.0435   -8.2620 C.3       2 GLC5        0.0000 
     20 CA         22.8570    3.5300   -7.1110 C.3       4 GLP5        0.0000 
     21 CA         26.8965    9.2440   -9.3775 C.3       2 GLC5        0.0000 
     22 CA         25.4100    7.6500   -8.9000 C.3       6 GLL5        0.0000 
     23 CA         28.3830   10.8380   -9.8550 C.3       4 GLP5        0.0000 
     24 CA         22.9240    8.0645   -7.9010 C.3       2 GLC5        0.0000 
     25 CA         24.6870    6.9250   -7.7900 C.3       6 GLL5        0.0000 
     26 CA         23.2250    5.9090   -7.3075 C.3       2 GLC5        0.0000 
     27 N          23.0485    7.7635   -6.3140 N.am      1 SEC2        0.0000 
     28 N          24.6600    7.7500   -6.6310 N.am      5 SEL2        0.0000 
     29 N          21.4370    7.7770   -5.9970 N.am      3 SEP2        0.0000 
     30 CA         25.6930    3.8215   -6.4420 C.3       2 GLC5        0.0000 
     31 CA         25.5290    5.7090   -7.4750 C.3       6 GLL5        0.0000 
     32 CA         25.8570    1.9340   -5.4090 C.3       4 GLP5        0.0000 
     33 CA         24.1930    4.6195   -7.2930 C.3       2 GLC5        0.0000 
     34 N          25.6785    5.8615   -4.6800 N.am      1 SEC2        0.0000 
     35 N          26.0490    5.7940   -6.1360 N.am      5 SEL2        0.0000 
     36 N          25.3080    5.9290   -3.2240 N.am      3 SEP2        0.0000 
@<TRIPOS>BOND
@<TRIPOS>SUBSTRUCTURE
     1 SEC2       27 GROUP        1 X    SEC  0     ROOT SEC X 2
     2 GLC5        1 GROUP        1 X    GLC  0     **** GLC X 6
     3 SEP2       29 GROUP        1 Y    SEP  0     ROOT SEP Y 9
     4 GLP5        3 GROUP        1 Y    GLP  0     **** GLP Y 13
     5 SEL2       28 GROUP        1 Z    SEL  0     ROOT SEL Z 16
     6 GLL5        2 GROUP        1 Z    GLL  0     **** GLL Z 20
@<TRIPOS>SET

