#    Name: 2bsx_NOS_1_ligand
#    Modification time : Mon Mar 24 21:37:43 2014

@<TRIPOS>MOLECULE
2bsx_NOS_1_ligand
   31    33     1     0     0
SMALL
NO_CHARGES


@<TRIPOS>ATOM
      1 N9         24.7310    7.5340  -10.2100 N.pl3     1 NOS1248     0.0000 
      2 C4         23.5730    6.9500  -10.5300 C.ar      1 NOS1248     0.0000 
      3 N3         22.5930    6.2750   -9.8910 N.ar      1 NOS1248     0.0000 
      4 C2         21.5140    5.7900  -10.5440 C.ar      1 NOS1248     0.0000 
      5 N1         21.3250    5.9400  -11.8680 N.ar      1 NOS1248     0.0000 
      6 C6         22.2260    6.6010  -12.6350 C.ar      1 NOS1248     0.0000 
      7 O6         22.0820    6.7830  -13.9730 O.3       1 NOS1248     0.0000 
      8 C5         23.4240    7.1430  -11.9900 C.ar      1 NOS1248     0.0000 
      9 N7         24.4910    7.8050  -12.4200 N.2       1 NOS1248     0.0000 
     10 C8         25.2710    8.0410  -11.3350 C.2       1 NOS1248     0.0000 
     11 C5'        26.5600    4.5570   -9.4130 C.3       1 NOS1248     0.0000 
     12 O5'        27.8590    4.0320   -9.6990 O.3       1 NOS1248     0.0000 
     13 C4'        26.6900    5.7090   -8.4350 C.3       1 NOS1248     0.0000 
     14 O4'        26.6570    6.9760   -9.0710 O.3       1 NOS1248     0.0000 
     15 C1'        25.4100    7.6500   -8.9000 C.3       1 NOS1248     0.0000 
     16 C2'        24.6870    6.9250   -7.7900 C.3       1 NOS1248     0.0000 
     17 O2'        24.6600    7.7500   -6.6310 O.3       1 NOS1248     0.0000 
     18 C3'        25.5290    5.7090   -7.4750 C.3       1 NOS1248     0.0000 
     19 O3'        26.0490    5.7940   -6.1360 O.3       1 NOS1248     0.0000 
     20 H          20.7791    5.2641   -9.9819 H         1 NOS1248     0.0000 
     21 H          26.1295    8.5261  -11.3715 H         1 NOS1248     0.0000 
     22 H          25.9093    3.8001   -8.9627 H         1 NOS1248     0.0000 
     23 H          26.0685    4.9318  -10.3169 H         1 NOS1248     0.0000 
     24 H          27.5921    5.5854   -7.8581 H         1 NOS1248     0.0000 
     25 H          25.5619    8.6610   -8.6402 H         1 NOS1248     0.0000 
     26 H          23.7410    6.6230   -8.1150 H         1 NOS1248     0.0000 
     27 H          24.9530    4.8316   -7.6273 H         1 NOS1248     0.0000 
     28 H          22.9801    7.0870  -14.2908 H         1 NOS1248     0.0000 
     29 H          28.0940    4.3991  -10.5990 H         1 NOS1248     0.0000 
     30 H          25.1622    7.2358   -5.9357 H         1 NOS1248     0.0000 
     31 H          26.9593    6.1953   -6.2370 H         1 NOS1248     0.0000 
@<TRIPOS>BOND
     1    2    1 1    
     2   10    1 1    
     3   15    1 1    
     4    3    2 ar   
     5    8    2 ar   
     6    4    3 ar   
     7    5    4 ar   
     8   20    4 1    
     9    6    5 ar   
    10    7    6 1    
    11    8    6 ar   
    12   28    7 1    
    13    9    8 1    
    14   10    9 2    
    15   21   10 1    
    16   12   11 1    
    17   13   11 1    
    18   22   11 1    
    19   23   11 1    
    20   29   12 1    
    21   14   13 1    
    22   18   13 1    
    23   24   13 1    
    24   15   14 1    
    25   16   15 1    
    26   25   15 1    
    27   17   16 1    
    28   18   16 1    
    29   26   16 1    
    30   30   17 1    
    31   19   18 1    
    32   27   18 1    
    33   31   19 1    
@<TRIPOS>SUBSTRUCTURE
     1 NOS1248     1 GROUP   
@<TRIPOS>SET

