#    Name: 3g49_3G4_1_INTS_M
#    Modification time : Tue Mar 25 07:03:32 2014

@<TRIPOS>MOLECULE
3g49_3G4_1_INTS_M
   57     0     6     0     0
SMALL
NO_CHARGES


@<TRIPOS>ATOM
      1 CA          4.2830   21.6595   41.8520 C.3       2 GLC5        0.0000 
      2 CA          4.0300   21.2400   43.7350 C.3       6 GLL5        0.0000 
      3 CA          4.5360   22.0790   39.9690 C.3       4 GLP5        0.0000 
      4 CA          2.7425   21.6920   43.7505 C.3       2 GLC5        0.0000 
      5 CA          1.4550   22.1440   43.7660 C.3       4 GLP5        0.0000 
      6 CA          9.5075   23.1585   42.0705 C.3       2 GLC5        0.0000 
      7 CA          8.2630   22.8990   43.6700 C.3       6 GLL5        0.0000 
      8 CA         10.7520   23.4180   40.4710 C.3       4 GLP5        0.0000 
      9 CA          6.0740   20.5030   41.5005 C.3       2 GLC5        0.0000 
     10 CA          6.3840   19.6000   43.4300 C.3       6 GLL5        0.0000 
     11 CA          5.7640   21.4060   39.5710 C.3       4 GLP5        0.0000 
     12 CA          6.7620   18.0880   44.7220 C.3       2 GLC5        0.0000 
     13 CA          7.1400   16.5760   46.0140 C.3       4 GLP5        0.0000 
     14 N          10.2095   20.8545   40.6480 N.am      1 SEC2        0.0000 
     15 N           9.6690   20.4380   41.9320 N.am      5 SEL2        0.0000 
     16 N          10.7500   21.2710   39.3640 N.am      3 SEP2        0.0000 
     17 CA         11.6880   20.7230   43.8210 C.3       2 GLC5        0.0000 
     18 CA         10.3380   21.2470   45.4820 C.3       6 GLL5        0.0000 
     19 CA         13.0380   20.1990   42.1600 C.3       4 GLP5        0.0000 
     20 N          12.6025   22.0050   45.5555 N.am      1 SEC2        0.0000 
     21 N          11.4290   21.6580   46.1130 N.am      5 SEL2        0.0000 
     22 N          13.7760   22.3520   44.9980 N.am      3 SEP2        0.0000 
     23 CA          7.5200   19.9725   47.8975 C.3       2 GLC5        0.0000 
     24 CA          9.0650   21.4440   47.5450 C.3       6 GLL5        0.0000 
     25 CA          5.9750   18.5010   48.2500 C.3       4 GLP5        0.0000 
     26 CA         14.7365   22.7035   48.8890 C.3       2 GLC5        0.0000 
     27 CA         12.7110   22.4210   48.0440 C.3       6 GLL5        0.0000 
     28 CA         16.7620   22.9860   49.7340 C.3       4 GLP5        0.0000 
     29 CA         13.2130   23.0985   46.4600 C.3       2 GLC5        0.0000 
     30 CA         13.7150   23.7760   44.8760 C.3       4 GLP5        0.0000 
     31 CA         14.1955   21.3335   47.7395 C.3       2 GLC5        0.0000 
     32 CA         15.6800   20.2460   47.4350 C.3       4 GLP5        0.0000 
     33 CA         13.4225   24.8865   46.9570 C.3       2 GLC5        0.0000 
     34 CA         12.2950   25.1770   48.3110 C.3       6 GLL5        0.0000 
     35 CA         14.5500   24.5960   45.6030 C.3       4 GLP5        0.0000 
     36 CA          9.2595   26.0300   48.0740 C.3       2 GLC5        0.0000 
     37 CA         11.0140   25.1140   47.4510 C.3       6 GLL5        0.0000 
     38 CA          7.5050   26.9460   48.6970 C.3       4 GLP5        0.0000 
     39 CA         12.3645   24.4450   46.1635 C.3       2 GLC5        0.0000 
     40 CA         12.0530   25.4730   52.4190 C.3       2 GLC5        0.0000 
     41 CA         11.7450   24.7620   50.7070 C.3       6 GLL5        0.0000 
     42 CA         12.3610   26.1840   54.1310 C.3       4 GLP5        0.0000 
     43 CA         10.8175   25.9950   52.3460 C.3       2 GLC5        0.0000 
     44 CA         10.6510   25.7910   50.4440 C.3       6 GLL5        0.0000 
     45 CA         10.9840   26.1990   54.2480 C.3       4 GLP5        0.0000 
     46 CA         11.4540   27.6825   50.4700 C.3       2 GLC5        0.0000 
     47 CA         12.2570   29.5740   50.4960 C.3       4 GLP5        0.0000 
     48 CA          9.0780   26.3685   49.5705 C.3       2 GLC5        0.0000 
     49 CA          8.8635   25.3960   51.3850 C.3       2 GLC5        0.0000 
     50 CA          7.0760   25.0010   52.3260 C.3       4 GLP5        0.0000 
     51 CA          6.1898   24.6038   42.0382 C.3       2 GLC5        0.0000 
     52 CA          7.1690   23.7950   43.8050 C.3       6 GLL5        0.0000 
     53 CA          5.8670   25.6640   40.2600 C.3       4 GLP5        0.0000 
     54 CA          8.4290   24.8925   43.0102 C.3       2 GLC5        0.0000 
     55 CA          9.1420   26.4380   42.2830 C.3       4 GLP5        0.0000 
     56 CA          9.0440   20.6850   49.5678 C.3       2 GLC5        0.0000 
     57 CA          8.4470   19.7000   51.2830 C.3       4 GLP5        0.0000 
@<TRIPOS>BOND
@<TRIPOS>SUBSTRUCTURE
     1 SEC2       14 GROUP        1 X    SEC  0     ROOT SEC X 2
     2 GLC5        1 GROUP        1 X    GLC  0     **** GLC X 6
     3 SEP2       16 GROUP        1 Y    SEP  0     ROOT SEP Y 9
     4 GLP5        3 GROUP        1 Y    GLP  0     **** GLP Y 13
     5 SEL2       15 GROUP        1 Z    SEL  0     ROOT SEL Z 16
     6 GLL5        2 GROUP        1 Z    GLL  0     **** GLL Z 20
@<TRIPOS>SET

