#    Name: 3g49_3G4_1_ligand
#    Modification time : Tue Mar 25 07:03:32 2014

@<TRIPOS>MOLECULE
3g49_3G4_1_ligand
   48    49     1     0     0
SMALL
NO_CHARGES


@<TRIPOS>ATOM
      1 CL7         4.0300   21.2400   43.7350 Cl        1 3G42004     0.0000 
      2 C1          5.6490   21.9150   43.6870 C.ar      1 3G42004     0.0000 
      3 C2          5.8560   23.2920   43.8280 C.ar      1 3G42004     0.0000 
      4 C3          7.1690   23.7950   43.8050 C.ar      1 3G42004     0.0000 
      5 C4          8.2630   22.8990   43.6700 C.ar      1 3G42004     0.0000 
      6 C6          6.6880   21.0600   43.5470 C.ar      1 3G42004     0.0000 
      7 C8          6.3840   19.6000   43.4300 C.3       1 3G42004     0.0000 
      8 C5          8.0180   21.5270   43.5380 C.ar      1 3G42004     0.0000 
      9 S9          9.2790   20.4730   43.3420 S.o2      1 3G42004     0.0000 
     10 O11         8.8790   19.1440   43.7620 O.2       1 3G42004     0.0000 
     11 O12         9.6690   20.4380   41.9320 O.2       1 3G42004     0.0000 
     12 N10        10.4710   20.9390   44.1720 N.pl3     1 3G42004     0.0000 
     13 C13        10.3380   21.2470   45.4820 C.ar      1 3G42004     0.0000 
     14 N14        11.4290   21.6580   46.1130 N.ar      1 3G42004     0.0000 
     15 C18         9.1110   21.1150   46.1860 C.ar      1 3G42004     0.0000 
     16 C17         9.0650   21.4440   47.5450 C.ar      1 3G42004     0.0000 
     17 C16        10.2170   21.8960   48.1600 C.ar      1 3G42004     0.0000 
     18 C15        11.4160   21.9840   47.4130 C.ar      1 3G42004     0.0000 
     19 C19        12.7110   22.4210   48.0440 C.3       1 3G42004     0.0000 
     20 C20        12.6660   22.9480   49.3580 C.2       1 3G42004     0.0000 
     21 O22        12.5030   22.2900   50.4060 O.2       1 3G42004     0.0000 
     22 N21        12.2360   24.2100   49.4590 N.am      1 3G42004     0.0000 
     23 C23        12.2950   25.1770   48.3110 C.3       1 3G42004     0.0000 
     24 C26        11.0140   25.1140   47.4510 C.3       1 3G42004     0.0000 
     25 C24        11.7450   24.7620   50.7070 C.3       1 3G42004     0.0000 
     26 C25        10.6510   25.7910   50.4440 C.3       1 3G42004     0.0000 
     27 H           5.0666   23.9251   43.9461 H         1 3G42004     0.0000 
     28 H           7.3414   24.7955   43.8843 H         1 3G42004     0.0000 
     29 H           9.2147   23.2610   43.6703 H         1 3G42004     0.0000 
     30 H          11.3566   20.9955   43.6598 H         1 3G42004     0.0000 
     31 H           8.2822   20.7847   45.6994 H         1 3G42004     0.0000 
     32 H           8.1930   21.3492   48.0656 H         1 3G42004     0.0000 
     33 H          10.2189   22.1680   49.1449 H         1 3G42004     0.0000 
     34 H          13.1933   23.1643   47.3338 H         1 3G42004     0.0000 
     35 H          13.4207   21.5359   47.9946 H         1 3G42004     0.0000 
     36 H          13.1511   24.9481   47.6715 H         1 3G42004     0.0000 
     37 H          12.4089   26.1973   48.6856 H         1 3G42004     0.0000 
     38 H          12.5506   25.2557   51.2645 H         1 3G42004     0.0000 
     39 H          11.3272   23.9766   51.3489 H         1 3G42004     0.0000 
     40 H           7.2159   19.0543   43.3297 H         1 3G42004     0.0000 
     41 H           5.9026   19.2551   44.2358 H         1 3G42004     0.0000 
     42 H           5.8070   19.4031   42.6373 H         1 3G42004     0.0000 
     43 H          11.0478   25.7579   46.6866 H         1 3G42004     0.0000 
     44 H          10.8725   24.2039   47.0615 H         1 3G42004     0.0000 
     45 H          10.1974   25.3347   47.9843 H         1 3G42004     0.0000 
     46 H          10.9829   26.5516   49.8860 H         1 3G42004     0.0000 
     47 H           9.8728   25.3904   49.9604 H         1 3G42004     0.0000 
     48 H          10.2979   26.1830   51.2935 H         1 3G42004     0.0000 
@<TRIPOS>BOND
     1    2    1 1    
     2    3    2 ar   
     3    6    2 ar   
     4    4    3 ar   
     5   27    3 1    
     6    5    4 ar   
     7   28    4 1    
     8    8    5 ar   
     9   29    5 1    
    10    7    6 1    
    11    8    6 ar   
    12   40    7 1    
    13   41    7 1    
    14   42    7 1    
    15    9    8 1    
    16   10    9 2    
    17   11    9 2    
    18   12    9 1    
    19   13   12 1    
    20   30   12 1    
    21   14   13 ar   
    22   15   13 ar   
    23   18   14 ar   
    24   16   15 ar   
    25   31   15 1    
    26   17   16 ar   
    27   32   16 1    
    28   18   17 ar   
    29   33   17 1    
    30   19   18 1    
    31   20   19 1    
    32   34   19 1    
    33   35   19 1    
    34   21   20 2    
    35   22   20 am   
    36   23   22 1    
    37   25   22 1    
    38   24   23 1    
    39   36   23 1    
    40   37   23 1    
    41   43   24 1    
    42   44   24 1    
    43   45   24 1    
    44   26   25 1    
    45   38   25 1    
    46   39   25 1    
    47   46   26 1    
    48   47   26 1    
    49   48   26 1    
@<TRIPOS>SUBSTRUCTURE
     1 3G42004     1 GROUP   
@<TRIPOS>SET

