#    Name: 1ec2_BEJ_1_INTS_M
#    Modification time : Mon Mar 24 23:25:56 2014

@<TRIPOS>MOLECULE
1ec2_BEJ_1_INTS_M
   99     0     9     0     0
SMALL
NO_CHARGES


@<TRIPOS>ATOM
      1 CA         13.4115   20.9900    9.8635 C.3       3 GLC5        0.0000 
      2 CA         15.4530   21.6030    9.3310 C.3       9 GLL5        0.0000 
      3 CA         11.3700   20.3770   10.3960 C.3       6 GLP5        0.0000 
      4 CA         13.0670   26.7195    3.0990 C.3       3 GLC5        0.0000 
      5 CA         12.3440   24.9260    4.0130 C.3       9 GLL5        0.0000 
      6 CA         13.7900   28.5130    2.1850 C.3       6 GLP5        0.0000 
      7 O          11.0785   26.9370    4.2170 O.2       1 ALC1        0.0000 
      8 O          10.4910   25.9920    5.3170 O.2       7 ALL1        0.0000 
      9 O          11.6660   27.8820    3.1170 O.2       4 ALP1        0.0000 
     10 CA         10.6685   27.7720    5.8550 C.3       3 GLC5        0.0000 
     11 CA          9.3480   26.1620    6.2850 C.3       9 GLL5        0.0000 
     12 CA         11.9890   29.3820    5.4250 C.3       6 GLP5        0.0000 
     13 CA          8.0210   26.6800   10.5580 C.3       3 GLC5        0.0000 
     14 CA          8.6680   27.1000    8.6580 C.3       9 GLL5        0.0000 
     15 CA          7.3740   26.2600   12.4580 C.3       6 GLP5        0.0000 
     16 N           9.3175   29.4195    5.2210 N.am      2 SEC2        0.0000 
     17 N           8.6960   28.1420    5.0140 N.am      8 SEL2        0.0000 
     18 N           9.9390   30.6970    5.4280 N.am      5 SEP2        0.0000 
     19 O           6.8545   25.3600    6.1935 O.2       1 ALC1        0.0000 
     20 O           6.9870   26.6440    5.5530 O.2       7 ALL1        0.0000 
     21 O           6.7220   24.0760    6.8340 O.2       4 ALP1        0.0000 
     22 CA         10.1860   24.1460    0.2070 C.3       3 GLC5        0.0000 
     23 CA         11.3040   24.4670    1.8160 C.3       9 GLL5        0.0000 
     24 CA          9.0680   23.8250   -1.4020 C.3       6 GLP5        0.0000 
     25 N          15.4200   26.5995    4.3815 N.am      2 SEC2        0.0000 
     26 N          14.8340   25.4480    4.2200 N.am      8 SEL2        0.0000 
     27 N          16.0060   27.7510    4.5430 N.am      5 SEP2        0.0000 
     28 O          14.7585   25.2275    2.8465 O.2       1 ALC1        0.0000 
     29 O          14.8340   25.4480    4.2200 O.2       7 ALL1        0.0000 
     30 O          14.6830   25.0070    1.4730 O.2       4 ALP1        0.0000 
     31 O          14.6670   23.9605    2.3945 O.2       1 ALC1        0.0000 
     32 O          14.6510   22.9140    3.3160 O.2       7 ALL1        0.0000 
     33 O          17.3770   22.1350    5.1495 O.2       1 ALC1        0.0000 
     34 O          16.4240   20.8990    5.1360 O.2       7 ALL1        0.0000 
     35 O          18.3300   23.3710    5.1630 O.2       4 ALP1        0.0000 
     36 CA         17.7695   20.9775    3.7875 C.3       3 GLC5        0.0000 
     37 CA         16.7750   19.4880    4.9810 C.3       9 GLL5        0.0000 
     38 CA         18.7640   22.4670    2.5940 C.3       6 GLP5        0.0000 
     39 CA         18.5120   17.2670    1.4585 C.3       3 GLC5        0.0000 
     40 CA         17.2550   17.5640    3.2430 C.3       9 GLL5        0.0000 
     41 CA         19.7690   16.9700   -0.3260 C.3       6 GLP5        0.0000 
     42 CA         16.7055   15.7155    3.4535 C.3       3 GLC5        0.0000 
     43 CA         16.1560   13.8670    3.6640 C.3       6 GLP5        0.0000 
     44 CA         13.4890   19.2950    2.9800 C.3       3 GLC5        0.0000 
     45 CA         15.4900   19.3210    2.7410 C.3       9 GLL5        0.0000 
     46 CA         11.4880   19.2690    3.2190 C.3       6 GLP5        0.0000 
     47 CA         15.3285   18.3380    0.9025 C.3       3 GLC5        0.0000 
     48 CA         15.1670   17.3550   -0.9360 C.3       6 GLP5        0.0000 
     49 CA         14.0235   20.4220    1.4450 C.3       3 GLC5        0.0000 
     50 CA         12.5570   21.5230    0.1490 C.3       6 GLP5        0.0000 
     51 N          19.8470   20.4705    3.9425 N.am      2 SEC2        0.0000 
     52 N          19.1180   20.0830    5.1640 N.am      8 SEL2        0.0000 
     53 N          20.5760   20.8580    2.7210 N.am      5 SEP2        0.0000 
     54 O          16.9835   17.7730    6.8400 O.2       1 ALC1        0.0000 
     55 O          18.3310   18.3470    6.5160 O.2       7 ALL1        0.0000 
     56 O          15.6360   17.1990    7.1640 O.2       4 ALP1        0.0000 
     57 CA          6.5490   22.6265    5.1325 C.3       3 GLC5        0.0000 
     58 CA          4.9050   23.4540    3.9650 C.3       9 GLL5        0.0000 
     59 CA          8.1930   21.7990    6.3000 C.3       6 GLP5        0.0000 
     60 CA         16.1735   16.3185    9.2310 C.3       3 GLC5        0.0000 
     61 CA         17.2650   17.6460   10.5600 C.3       9 GLL5        0.0000 
     62 CA         15.0820   14.9910    7.9020 C.3       6 GLP5        0.0000 
     63 CA          8.8021   24.5310    0.3292 C.3       3 GLC5        0.0000 
     64 CA          9.0400   25.5490    1.8790 C.3       9 GLL5        0.0000 
     65 CA          6.4470   22.4462    1.6898 C.3       3 GLC5        0.0000 
     66 CA          7.0070   24.2790    2.6150 C.3       9 GLL5        0.0000 
     67 CA          5.4650   21.1950    0.6630 C.3       6 GLP5        0.0000 
     68 CA          8.3712   22.4678    4.4947 C.3       3 GLC5        0.0000 
     69 CA          7.8510   23.1160    2.8180 C.3       9 GLL5        0.0000 
     70 CA          8.8087   23.4808    0.6438 C.3       3 GLC5        0.0000 
     71 CA         16.7405   22.6135   10.4872 C.3       3 GLC5        0.0000 
     72 CA         16.2970   22.4930    8.5540 C.3       9 GLL5        0.0000 
     73 CA         17.6060   23.1790   12.0320 C.3       6 GLP5        0.0000 
     74 CA         16.2793   24.5493    9.3872 C.3       3 GLC5        0.0000 
     75 CA         16.5760   25.9980   10.5350 C.3       6 GLP5        0.0000 
     76 CA         15.3763   20.3455   11.4147 C.3       3 GLC5        0.0000 
     77 CA         15.0210   19.6760   13.1990 C.3       6 GLP5        0.0000 
     78 CA         14.4608   19.6330    8.7398 C.3       3 GLC5        0.0000 
     79 CA         16.0100   20.4270    9.9300 C.3       9 GLL5        0.0000 
     80 CA         13.1900   18.2510    7.8490 C.3       6 GLP5        0.0000 
     81 CA         17.1598   21.7270   10.9387 C.3       3 GLC5        0.0000 
     82 CA         17.7905   22.3992   10.3532 C.3       3 GLC5        0.0000 
     83 CA         18.2510   21.0280    8.9770 C.3       9 GLL5        0.0000 
     84 CA         17.9990   24.2135    8.2060 C.3       3 GLC5        0.0000 
     85 CA         19.6650   25.3970    8.2180 C.3       6 GLP5        0.0000 
     86 CA         11.5403   27.7900    7.3940 C.3       3 GLC5        0.0000 
     87 CA         10.9390   26.0460    8.3940 C.3       9 GLL5        0.0000 
     88 CA         12.7020   29.1410    6.7680 C.3       6 GLP5        0.0000 
     89 CA         10.9039   26.0290    0.6385 C.3       3 GLC5        0.0000 
     90 CA         11.4370   27.3380   -0.6220 C.3       6 GLP5        0.0000 
     91 CA         11.4899   22.8225    1.1093 C.3       3 GLC5        0.0000 
     92 CA         16.9390   20.7527    2.2888 C.3       3 GLC5        0.0000 
     93 CA         17.7250   22.3180    1.4750 C.3       6 GLP5        0.0000 
     94 CA          4.5785   23.1453    5.9900 C.3       3 GLC5        0.0000 
     95 CA          4.9680   22.8440    7.9210 C.3       6 GLP5        0.0000 
     96 CA          5.1781   22.7884    1.6984 C.3       3 GLC5        0.0000 
     97 CA          5.5060   24.2090    2.8920 C.3       9 GLL5        0.0000 
     98 CA         16.2544   19.1253   11.7587 C.3       3 GLC5        0.0000 
     99 CA         17.4170   20.1230    9.7610 C.3       9 GLL5        0.0000 
@<TRIPOS>BOND
@<TRIPOS>SUBSTRUCTURE
     1 ALC1        7 GROUP        1 X    ALC  0     ROOT ALC X 1
     2 SEC2       16 GROUP        1 X    SEC  0     **** SEC X 2
     3 GLC5        1 GROUP        1 X    GLC  0     **** GLC X 6
     4 ALP1        9 GROUP        1 Y    ALP  0     ROOT ALP Y 8
     5 SEP2       18 GROUP        1 Y    SEP  0     **** SEP Y 9
     6 GLP5        3 GROUP        1 Y    GLP  0     **** GLP Y 13
     7 ALL1        8 GROUP        1 Z    ALL  0     ROOT ALL Z 15
     8 SEL2       17 GROUP        1 Z    SEL  0     **** SEL Z 16
     9 GLL5        2 GROUP        1 Z    GLL  0     **** GLL Z 20
@<TRIPOS>SET

