#    Name: 1ec2_BEJ_1_ligand
#    Modification time : Mon Mar 24 23:25:56 2014

@<TRIPOS>MOLECULE
1ec2_BEJ_1_ligand
  108   111     1     0     0
SMALL
NO_CHARGES


@<TRIPOS>ATOM
      1 C01         9.8350   24.3970    2.0850 C.ar      1 BEJ501      0.0000 
      2 C02         9.0400   25.5490    1.8790 C.ar      1 BEJ501      0.0000 
      3 C03         7.6350   25.5010    2.1390 C.ar      1 BEJ501      0.0000 
      4 C04         7.0070   24.2790    2.6150 C.ar      1 BEJ501      0.0000 
      5 C05         7.8510   23.1160    2.8180 C.ar      1 BEJ501      0.0000 
      6 C06         9.2480   23.1570    2.5610 C.ar      1 BEJ501      0.0000 
      7 C07        16.2970   22.4930    8.5540 C.ar      1 BEJ501      0.0000 
      8 C08        15.4530   21.6030    9.3310 C.ar      1 BEJ501      0.0000 
      9 C09        16.0100   20.4270    9.9300 C.ar      1 BEJ501      0.0000 
     10 C10        17.4170   20.1230    9.7610 C.ar      1 BEJ501      0.0000 
     11 C11        18.2510   21.0280    8.9770 C.ar      1 BEJ501      0.0000 
     12 C12        17.6990   22.2110    8.3720 C.ar      1 BEJ501      0.0000 
     13 C13        15.6680   23.7080    7.9250 C.3       1 BEJ501      0.0000 
     14 O14        14.6010   23.3140    7.0070 O.3       1 BEJ501      0.0000 
     15 C15        15.0840   22.8600    5.7300 C.3       1 BEJ501      0.0000 
     16 C16        14.1220   23.2450    4.6160 C.3       1 BEJ501      0.0000 
     17 C17        13.7150   24.6950    4.6870 C.3       1 BEJ501      0.0000 
     18 C18        12.3440   24.9260    4.0130 C.3       1 BEJ501      0.0000 
     19 C19        11.2200   24.8260    5.0650 C.2       1 BEJ501      0.0000 
     20 O20        10.9830   23.7560    5.6420 O.2       1 BEJ501      0.0000 
     21 N21        10.4910   25.9920    5.3170 N.am      1 BEJ501      0.0000 
     22 C22         9.3480   26.1620    6.2850 C.3       1 BEJ501      0.0000 
     23 C23         9.8180   26.8320    7.6460 C.3       1 BEJ501      0.0000 
     24 C24        10.9390   26.0460    8.3940 C.3       1 BEJ501      0.0000 
     25 C25         8.6680   27.1000    8.6580 C.3       1 BEJ501      0.0000 
     26 C26         8.6030   27.1150    5.5900 C.2       1 BEJ501      0.0000 
     27 O27         8.6960   28.1420    5.0140 O.2       1 BEJ501      0.0000 
     28 N28         6.9870   26.6440    5.5530 N.am      1 BEJ501      0.0000 
     29 C29         5.9540   27.4430    4.8940 C.3       1 BEJ501      0.0000 
     30 O30        12.0750   23.9730    2.9180 O.3       1 BEJ501      0.0000 
     31 C31        11.3040   24.4670    1.8160 C.3       1 BEJ501      0.0000 
     32 O32        14.8340   25.4480    4.2200 O.3       1 BEJ501      0.0000 
     33 O33        14.6510   22.9140    3.3160 O.3       1 BEJ501      0.0000 
     34 C34        15.2240   21.3620    5.6540 C.2       1 BEJ501      0.0000 
     35 O35        14.2940   20.6580    6.0570 O.2       1 BEJ501      0.0000 
     36 N36        16.4240   20.8990    5.1360 N.am      1 BEJ501      0.0000 
     37 C37        16.7750   19.4880    4.9810 C.3       1 BEJ501      0.0000 
     38 C38        16.8160   19.0540    3.4640 C.3       1 BEJ501      0.0000 
     39 C39        17.2550   17.5640    3.2430 C.3       1 BEJ501      0.0000 
     40 C40        15.4900   19.3210    2.7410 C.3       1 BEJ501      0.0000 
     41 C41        18.1920   19.3440    5.5570 C.2       1 BEJ501      0.0000 
     42 O42        19.1180   20.0830    5.1640 O.2       1 BEJ501      0.0000 
     43 N43        18.3310   18.3470    6.5160 N.am      1 BEJ501      0.0000 
     44 C44        19.6240   18.1270    7.1140 C.3       1 BEJ501      0.0000 
     45 C45         5.5060   24.2090    2.8920 C.ar      1 BEJ501      0.0000 
     46 C46         4.9050   23.4540    3.9650 C.ar      1 BEJ501      0.0000 
     47 C47         3.4730   23.4390    4.1530 C.ar      1 BEJ501      0.0000 
     48 C48         2.6850   24.2050    3.2270 C.ar      1 BEJ501      0.0000 
     49 N49         3.2170   24.9420    2.1850 N.ar      1 BEJ501      0.0000 
     50 C50         4.5770   24.9320    2.0390 C.ar      1 BEJ501      0.0000 
     51 C51        18.0040   18.8830   10.3930 C.ar      1 BEJ501      0.0000 
     52 C52        17.2650   17.6460   10.5600 C.ar      1 BEJ501      0.0000 
     53 C53        17.8750   16.4930   11.1740 C.ar      1 BEJ501      0.0000 
     54 C54        19.2290   16.6340   11.6020 C.ar      1 BEJ501      0.0000 
     55 N55        19.9660   17.8000   11.4570 N.ar      1 BEJ501      0.0000 
     56 C56        19.3620   18.8760   10.8730 C.ar      1 BEJ501      0.0000 
     57 H           9.4610   26.4130    1.5466 H         1 BEJ501      0.0000 
     58 H           7.0585   26.3261    1.9925 H         1 BEJ501      0.0000 
     59 H           7.4172   22.2512    3.1548 H         1 BEJ501      0.0000 
     60 H           9.8305   22.3512    2.7015 H         1 BEJ501      0.0000 
     61 H          14.4718   21.8211    9.4445 H         1 BEJ501      0.0000 
     62 H          15.4268   19.8032   10.4730 H         1 BEJ501      0.0000 
     63 H          19.2378   20.8113    8.8614 H         1 BEJ501      0.0000 
     64 H          18.2774   22.8283    7.8338 H         1 BEJ501      0.0000 
     65 H          16.4445   24.2720    7.3932 H         1 BEJ501      0.0000 
     66 H          15.2730   24.3525    8.7202 H         1 BEJ501      0.0000 
     67 H          16.0449   23.2993    5.4864 H         1 BEJ501      0.0000 
     68 H          13.1933   22.6444    4.7817 H         1 BEJ501      0.0000 
     69 H          13.5728   24.8990    5.7828 H         1 BEJ501      0.0000 
     70 H          12.3292   25.9456    3.6278 H         1 BEJ501      0.0000 
     71 H          10.7394   26.8790    4.7874 H         1 BEJ501      0.0000 
     72 H           8.8606   25.2859    6.4544 H         1 BEJ501      0.0000 
     73 H          10.2495   27.8226    7.3928 H         1 BEJ501      0.0000 
     74 H           6.8213   25.7849    6.0175 H         1 BEJ501      0.0000 
     75 H          11.5679   25.5192    1.5899 H         1 BEJ501      0.0000 
     76 H          11.5182   23.8901    0.8944 H         1 BEJ501      0.0000 
     77 H          17.1539   21.5888    4.8236 H         1 BEJ501      0.0000 
     78 H          16.1266   18.8510    5.5068 H         1 BEJ501      0.0000 
     79 H          17.5865   19.6831    2.9714 H         1 BEJ501      0.0000 
     80 H          17.5494   17.7712    6.8060 H         1 BEJ501      0.0000 
     81 H           5.4988   22.9238    4.5993 H         1 BEJ501      0.0000 
     82 H           3.0562   22.9230    4.8880 H         1 BEJ501      0.0000 
     83 H           1.6442   24.1900    3.3687 H         1 BEJ501      0.0000 
     84 H           5.0214   25.4847    1.2517 H         1 BEJ501      0.0000 
     85 H          16.3015   17.5951   10.2376 H         1 BEJ501      0.0000 
     86 H          17.3728   15.6472   11.2900 H         1 BEJ501      0.0000 
     87 H          19.6786   15.7979   12.0505 H         1 BEJ501      0.0000 
     88 H          19.9001   19.7758   10.7515 H         1 BEJ501      0.0000 
     89 H          11.7660   25.9596    7.8385 H         1 BEJ501      0.0000 
     90 H          11.2040   26.4976    9.2459 H         1 BEJ501      0.0000 
     91 H          10.6475   25.1194    8.6318 H         1 BEJ501      0.0000 
     92 H           9.0048   27.5223    9.4996 H         1 BEJ501      0.0000 
     93 H           7.9752   27.7136    8.2790 H         1 BEJ501      0.0000 
     94 H           8.2001   26.2561    8.9205 H         1 BEJ501      0.0000 
     95 H           5.8797   28.3566    5.2938 H         1 BEJ501      0.0000 
     96 H           6.1433   27.5639    3.9196 H         1 BEJ501      0.0000 
     97 H           5.0522   27.0170    4.9667 H         1 BEJ501      0.0000 
     98 H          18.1695   17.3883    3.6075 H         1 BEJ501      0.0000 
     99 H          16.6324   16.9229    3.6918 H         1 BEJ501      0.0000 
    100 H          17.2749   17.3227    2.2728 H         1 BEJ501      0.0000 
    101 H          15.2478   20.2911    2.7555 H         1 BEJ501      0.0000 
    102 H          15.5277   19.0427    1.7813 H         1 BEJ501      0.0000 
    103 H          14.7312   18.8232    3.1610 H         1 BEJ501      0.0000 
    104 H          20.3111   17.8772    6.4317 H         1 BEJ501      0.0000 
    105 H          19.9601   18.9437    7.5830 H         1 BEJ501      0.0000 
    106 H          19.6002   17.3900    7.7895 H         1 BEJ501      0.0000 
    107 H          14.8596   25.2882    3.2331 H         1 BEJ501      0.0000 
    108 H          14.5822   23.7591    2.7859 H         1 BEJ501      0.0000 
@<TRIPOS>BOND
     1    2    1 ar   
     2    6    1 ar   
     3   31    1 1    
     4    3    2 ar   
     5   57    2 1    
     6    4    3 ar   
     7   58    3 1    
     8    5    4 ar   
     9   45    4 1    
    10    6    5 ar   
    11   59    5 1    
    12   60    6 1    
    13    8    7 ar   
    14   12    7 ar   
    15   13    7 1    
    16    9    8 ar   
    17   61    8 1    
    18   10    9 ar   
    19   62    9 1    
    20   11   10 ar   
    21   51   10 1    
    22   12   11 ar   
    23   63   11 1    
    24   64   12 1    
    25   14   13 1    
    26   65   13 1    
    27   66   13 1    
    28   15   14 1    
    29   16   15 1    
    30   34   15 1    
    31   67   15 1    
    32   17   16 1    
    33   33   16 1    
    34   68   16 1    
    35   18   17 1    
    36   32   17 1    
    37   69   17 1    
    38   19   18 1    
    39   30   18 1    
    40   70   18 1    
    41   20   19 2    
    42   21   19 am   
    43   22   21 1    
    44   71   21 1    
    45   23   22 1    
    46   26   22 1    
    47   72   22 1    
    48   24   23 1    
    49   25   23 1    
    50   73   23 1    
    51   89   24 1    
    52   90   24 1    
    53   91   24 1    
    54   92   25 1    
    55   93   25 1    
    56   94   25 1    
    57   27   26 2    
    58   28   26 am   
    59   29   28 1    
    60   74   28 1    
    61   95   29 1    
    62   96   29 1    
    63   97   29 1    
    64   31   30 1    
    65   75   31 1    
    66   76   31 1    
    67  107   32 1    
    68  108   33 1    
    69   35   34 2    
    70   36   34 am   
    71   37   36 1    
    72   77   36 1    
    73   38   37 1    
    74   41   37 1    
    75   78   37 1    
    76   39   38 1    
    77   40   38 1    
    78   79   38 1    
    79   98   39 1    
    80   99   39 1    
    81  100   39 1    
    82  101   40 1    
    83  102   40 1    
    84  103   40 1    
    85   42   41 2    
    86   43   41 am   
    87   44   43 1    
    88   80   43 1    
    89  104   44 1    
    90  105   44 1    
    91  106   44 1    
    92   46   45 ar   
    93   50   45 ar   
    94   47   46 ar   
    95   81   46 1    
    96   48   47 ar   
    97   82   47 1    
    98   49   48 ar   
    99   83   48 1    
   100   50   49 ar   
   101   84   50 1    
   102   52   51 ar   
   103   56   51 ar   
   104   53   52 ar   
   105   85   52 1    
   106   54   53 ar   
   107   86   53 1    
   108   55   54 ar   
   109   87   54 1    
   110   56   55 ar   
   111   88   56 1    
@<TRIPOS>SUBSTRUCTURE
     1 BEJ501      1 GROUP   
@<TRIPOS>SET

