#    Name: 3i28_34N_1_INTS_M
#    Modification time : Tue Mar 25 15:28:19 2014

@<TRIPOS>MOLECULE
3i28_34N_1_INTS_M
   67     0     9     0     0
SMALL
NO_CHARGES


@<TRIPOS>ATOM
      1 CA         74.6640   -7.3140   70.8350 C.3       3 GLC5        0.0000 
      2 CA         76.0050   -8.3230   70.3220 C.3       9 GLL5        0.0000 
      3 CA         73.3230   -6.3050   71.3480 C.3       6 GLP5        0.0000 
      4 CA         73.4140  -15.1585   67.1985 C.3       3 GLC5        0.0000 
      5 CA         74.8200  -15.5240   68.5920 C.3       9 GLL5        0.0000 
      6 CA         72.0080  -14.7930   65.8050 C.3       6 GLP5        0.0000 
      7 CA         75.3735  -15.8985   67.0265 C.3       3 GLC5        0.0000 
      8 CA         75.9270  -16.2730   65.4610 C.3       6 GLP5        0.0000 
      9 CA         76.4645  -16.3330   69.3760 C.3       3 GLC5        0.0000 
     10 CA         78.1090  -17.1420   70.1600 C.3       6 GLP5        0.0000 
     11 CA         72.5415  -10.2730   70.3175 C.3       3 GLC5        0.0000 
     12 CA         74.4000   -9.9500   69.1710 C.3       9 GLL5        0.0000 
     13 CA         70.6830  -10.5960   71.4640 C.3       6 GLP5        0.0000 
     14 N          78.4620   -5.4600   73.5915 N.am      2 SEC2        0.0000 
     15 N          77.7600   -6.6840   73.8950 N.am      8 SEL2        0.0000 
     16 N          79.1640   -4.2360   73.2880 N.am      5 SEP2        0.0000 
     17 CA         78.9245  -10.8950   73.3705 C.3       3 GLC5        0.0000 
     18 CA         78.8760   -9.1170   74.0300 C.3       9 GLL5        0.0000 
     19 CA         78.9730  -12.6730   72.7110 C.3       6 GLP5        0.0000 
     20 CA         79.9900   -7.2970   74.1010 C.3       3 GLC5        0.0000 
     21 CA         81.1040   -5.4770   74.1720 C.3       6 GLP5        0.0000 
     22 CA         79.2015   -8.4785   71.9300 C.3       3 GLC5        0.0000 
     23 CA         79.5270   -7.8400   69.8300 C.3       6 GLP5        0.0000 
     24 CA         73.5985   -8.2095   69.4305 C.3       3 GLC5        0.0000 
     25 CA         74.7890   -9.1980   67.9040 C.3       9 GLL5        0.0000 
     26 CA         72.4080   -7.2210   70.9570 C.3       6 GLP5        0.0000 
     27 O          72.5375   -8.3335   65.4705 O.2       1 ALC1        0.0000 
     28 O          74.0290   -8.7360   65.6970 O.2       7 ALL1        0.0000 
     29 O          71.0460   -7.9310   65.2440 O.2       4 ALP1        0.0000 
     30 O          73.2915   -7.7530   66.0155 O.2       1 ALC1        0.0000 
     31 O          72.5540   -6.7700   66.3340 O.2       4 ALP1        0.0000 
     32 N          76.8665   -9.7480   65.3215 N.am      2 SEC2        0.0000 
     33 N          75.7140   -9.8260   64.7080 N.am      8 SEL2        0.0000 
     34 N          78.0190   -9.6700   65.9350 N.am      5 SEP2        0.0000 
     35 N          74.9270  -10.8505   64.4375 N.am      2 SEC2        0.0000 
     36 N          74.1400  -11.8750   64.1670 N.am      5 SEP2        0.0000 
     37 CA         74.8085   -3.7205   59.1995 C.3       3 GLC5        0.0000 
     38 CA         75.3380   -4.9110   60.6680 C.3       9 GLL5        0.0000 
     39 CA         74.2790   -2.5300   57.7310 C.3       6 GLP5        0.0000 
     40 CA         74.4400   -3.2220   61.5245 C.3       3 GLC5        0.0000 
     41 CA         73.5420   -1.5330   62.3810 C.3       6 GLP5        0.0000 
     42 CA         73.8205   -3.7090   62.4755 C.3       3 GLC5        0.0000 
     43 CA         74.0990   -5.8850   62.5700 C.3       9 GLL5        0.0000 
     44 CA         72.3665   -5.7040   64.4345 C.3       3 GLC5        0.0000 
     45 CA         74.0230   -6.8640   63.5540 C.3       9 GLL5        0.0000 
     46 CA         70.7100   -4.5440   65.3150 C.3       6 GLP5        0.0000 
     47 CA         77.9201   -8.0571   70.5069 C.3       3 GLC5        0.0000 
     48 CA         76.5500   -8.5710   72.6420 C.3       9 GLL5        0.0000 
     49 CA         75.0279   -7.4699   72.5394 C.3       3 GLC5        0.0000 
     50 CA         75.7320   -9.6900   72.7060 C.3       9 GLL5        0.0000 
     51 CA         73.8790   -5.9820   72.7030 C.3       6 GLP5        0.0000 
     52 CA         77.2490  -12.3095   69.9203 C.3       3 GLC5        0.0000 
     53 CA         75.7920  -12.0230   68.7710 C.3       9 GLL5        0.0000 
     54 CA         78.6570  -11.9100   71.1370 C.3       6 GLP5        0.0000 
     55 CA         74.0708  -14.9957   70.3847 C.3       3 GLC5        0.0000 
     56 CA         74.7470  -14.1770   68.7210 C.3       9 GLL5        0.0000 
     57 CA         73.3580  -15.1410   72.1130 C.3       6 GLP5        0.0000 
     58 CA         71.4060  -13.1143   68.8938 C.3       3 GLC5        0.0000 
     59 CA         73.5130  -13.5840   68.9290 C.3       9 GLL5        0.0000 
     60 CA         69.3490  -13.3260   68.7860 C.3       6 GLP5        0.0000 
     61 CA         73.4105  -14.0218   70.5573 C.3       3 GLC5        0.0000 
     62 CA         73.6644   -8.5674   70.8181 C.3       3 GLC5        0.0000 
     63 CA         75.0480  -10.1260   71.5820 C.3       9 GLL5        0.0000 
     64 CA         72.1035   -6.2937   62.4860 C.3       3 GLC5        0.0000 
     65 CA         70.1460   -6.2130   61.9100 C.3       6 GLP5        0.0000 
     66 CA         77.1521  -10.6418   71.4079 C.3       3 GLC5        0.0000 
     67 CA         75.1870   -9.4530   70.3820 C.3       9 GLL5        0.0000 
@<TRIPOS>BOND
@<TRIPOS>SUBSTRUCTURE
     1 ALC1       27 GROUP        1 X    ALC  0     ROOT ALC X 1
     2 SEC2       14 GROUP        1 X    SEC  0     **** SEC X 2
     3 GLC5        1 GROUP        1 X    GLC  0     **** GLC X 6
     4 ALP1       29 GROUP        1 Y    ALP  0     ROOT ALP Y 8
     5 SEP2       16 GROUP        1 Y    SEP  0     **** SEP Y 9
     6 GLP5        3 GROUP        1 Y    GLP  0     **** GLP Y 13
     7 ALL1       28 GROUP        1 Z    ALL  0     ROOT ALL Z 15
     8 SEL2       15 GROUP        1 Z    SEL  0     **** SEL Z 16
     9 GLL5        2 GROUP        1 Z    GLL  0     **** GLL Z 20
@<TRIPOS>SET

