#    Name: 3i28_34N_1_ligand
#    Modification time : Tue Mar 25 15:28:19 2014

@<TRIPOS>MOLECULE
3i28_34N_1_ligand
   52    54     1     0     0
SMALL
NO_CHARGES


@<TRIPOS>ATOM
      1 C5         76.5500   -8.5710   72.6420 C.ar      1 34N999      0.0000 
      2 C6         76.6930   -7.8800   71.4490 C.ar      1 34N999      0.0000 
      3 C7         76.0050   -8.3230   70.3220 C.ar      1 34N999      0.0000 
      4 C8         75.1870   -9.4530   70.3820 C.ar      1 34N999      0.0000 
      5 C10        75.7320   -9.6900   72.7060 C.ar      1 34N999      0.0000 
      6 C13        73.9330   -9.7370   66.7590 C.3       1 34N999      0.0000 
      7 C15        74.9540   -8.8750   64.7200 C.2       1 34N999      0.0000 
      8 C17        75.0330   -7.8340   63.6640 C.ar      1 34N999      0.0000 
      9 C20        75.1940   -5.8980   61.6940 C.ar      1 34N999      0.0000 
     10 C21        76.1900   -6.8620   61.8210 C.ar      1 34N999      0.0000 
     11 C22        76.1140   -7.8180   62.7930 C.ar      1 34N999      0.0000 
     12 C26        75.7920  -12.0230   68.7710 C.ar      1 34N999      0.0000 
     13 C28        74.7470  -14.1770   68.7210 C.ar      1 34N999      0.0000 
     14 F29        74.8200  -15.5240   68.5920 F         1 34N999      0.0000 
     15 C27        75.8900  -13.3950   68.6360 C.ar      1 34N999      0.0000 
     16 C30        73.5130  -13.5840   68.9290 C.ar      1 34N999      0.0000 
     17 C31        73.4130  -12.2210   69.0740 C.ar      1 34N999      0.0000 
     18 C25        74.5550  -11.4390   68.9890 C.ar      1 34N999      0.0000 
     19 C11        74.4000   -9.9500   69.1710 C.3       1 34N999      0.0000 
     20 C9         75.0480  -10.1260   71.5820 C.ar      1 34N999      0.0000 
     21 S2         77.4080   -8.0520   74.0940 S.o2      1 34N999      0.0000 
     22 O3         76.5430   -8.3950   75.1650 O.2       1 34N999      0.0000 
     23 O4         77.7600   -6.6840   73.8950 O.2       1 34N999      0.0000 
     24 C1         78.8760   -9.1170   74.0300 C.3       1 34N999      0.0000 
     25 C12        74.7890   -9.1980   67.9040 C.3       1 34N999      0.0000 
     26 N14        74.0290   -8.7360   65.6970 N.am      1 34N999      0.0000 
     27 O16        75.7140   -9.8260   64.7080 O.2       1 34N999      0.0000 
     28 C23        75.3380   -4.9110   60.6680 C.1       1 34N999      0.0000 
     29 N24        75.4190   -4.1130   59.8640 N.1       1 34N999      0.0000 
     30 C19        74.0990   -5.8850   62.5700 C.ar      1 34N999      0.0000 
     31 C18        74.0230   -6.8640   63.5540 C.ar      1 34N999      0.0000 
     32 H          77.2951   -7.0552   71.3939 H         1 34N999      0.0000 
     33 H          76.1000   -7.8107   69.4305 H         1 34N999      0.0000 
     34 H          75.6325  -10.2013   73.5979 H         1 34N999      0.0000 
     35 H          72.9218   -9.8436   67.1059 H         1 34N999      0.0000 
     36 H          74.3355  -10.6819   66.4436 H         1 34N999      0.0000 
     37 H          76.9930   -6.8441   61.1652 H         1 34N999      0.0000 
     38 H          76.8533   -8.5316   62.8884 H         1 34N999      0.0000 
     39 H          76.6350  -11.4356   68.7099 H         1 34N999      0.0000 
     40 H          76.8040  -13.8363   68.4734 H         1 34N999      0.0000 
     41 H          72.6646  -14.1741   68.9748 H         1 34N999      0.0000 
     42 H          72.5003  -11.7788   69.2445 H         1 34N999      0.0000 
     43 H          73.3339   -9.7425   69.3637 H         1 34N999      0.0000 
     44 H          74.4355  -10.9529   71.6422 H         1 34N999      0.0000 
     45 H          74.5949   -8.1469   68.0332 H         1 34N999      0.0000 
     46 H          75.8293   -9.3700   67.6862 H         1 34N999      0.0000 
     47 H          73.3753   -7.9497   65.7366 H         1 34N999      0.0000 
     48 H          73.3792   -5.1726   62.4827 H         1 34N999      0.0000 
     49 H          73.2290   -6.8836   64.2053 H         1 34N999      0.0000 
     50 H          79.4571   -8.9017   73.2451 H         1 34N999      0.0000 
     51 H          79.4416   -9.0195   74.8489 H         1 34N999      0.0000 
     52 H          78.6306  -10.0837   73.9567 H         1 34N999      0.0000 
@<TRIPOS>BOND
     1    2    1 ar   
     2    5    1 ar   
     3   21    1 1    
     4    3    2 ar   
     5   32    2 1    
     6    4    3 ar   
     7   33    3 1    
     8   19    4 1    
     9   20    4 ar   
    10   20    5 ar   
    11   34    5 1    
    12   25    6 1    
    13   26    6 1    
    14   35    6 1    
    15   36    6 1    
    16    8    7 1    
    17   26    7 am   
    18   27    7 2    
    19   11    8 ar   
    20   31    8 ar   
    21   10    9 ar   
    22   28    9 1    
    23   30    9 ar   
    24   11   10 ar   
    25   37   10 1    
    26   38   11 1    
    27   15   12 ar   
    28   18   12 ar   
    29   39   12 1    
    30   14   13 1    
    31   15   13 ar   
    32   16   13 ar   
    33   40   15 1    
    34   17   16 ar   
    35   41   16 1    
    36   18   17 ar   
    37   42   17 1    
    38   19   18 1    
    39   25   19 1    
    40   43   19 1    
    41   44   20 1    
    42   22   21 2    
    43   23   21 2    
    44   24   21 1    
    45   50   24 1    
    46   51   24 1    
    47   52   24 1    
    48   45   25 1    
    49   46   25 1    
    50   47   26 1    
    51   29   28 3    
    52   31   30 ar   
    53   48   30 1    
    54   49   31 1    
@<TRIPOS>SUBSTRUCTURE
     1 34N999      1 GROUP   
@<TRIPOS>SET

