#    Name: 1bqo_N25_1_INTS_M
#    Modification time : Mon Mar 24 19:44:55 2014

@<TRIPOS>MOLECULE
1bqo_N25_1_INTS_M
   62     0    12     0     0
SMALL
NO_CHARGES


@<TRIPOS>ATOM
      1 CA          4.6940   50.7345   57.4955 C.3       4 GLC5        0.0000 
      2 CA          3.2370   49.1770   56.7950 C.3      12 GLL5        0.0000 
      3 CA          6.1510   52.2920   58.1960 C.3       8 GLP5        0.0000 
      4 CA          5.1695   48.9145   57.7510 C.3       4 GLC5        0.0000 
      5 CA          7.1020   48.6520   58.7070 C.3       8 GLP5        0.0000 
      6 CA          3.8275   45.9730   53.5250 C.3       4 GLC5        0.0000 
      7 CA          2.4780   47.4190   54.5640 C.3      12 GLL5        0.0000 
      8 CA          5.1770   44.5270   52.4860 C.3       8 GLP5        0.0000 
      9 CA          0.7200   47.7125   58.8640 C.3       4 GLC5        0.0000 
     10 CA          2.5440   48.0860   59.2890 C.3      12 GLL5        0.0000 
     11 CA         -1.1040   47.3390   58.4390 C.3       8 GLP5        0.0000 
     12 CA          1.1085   47.8580   60.9230 C.3       4 GLC5        0.0000 
     13 CA         -0.3270   47.6300   62.5570 C.3       8 GLP5        0.0000 
     14 Zn          1.1795   50.3730   52.9990 Zn        3 ZIC7        0.0000 
     15 Zn          3.5020   50.0930   51.9530 Zn       11 ZIL7        0.0000 
     16 Zn         -1.1430   50.6530   54.0450 Zn        7 ZIP7        0.0000 
     17 N           4.3655   46.7125   51.1060 N.am      2 SEC2        0.0000 
     18 N           3.7150   47.6060   51.8130 N.am     10 SEL2        0.0000 
     19 N           5.0160   45.8190   50.3990 N.am      6 SEP2        0.0000 
     20 N           3.0815   46.1880   51.3105 N.am      2 SEC2        0.0000 
     21 N           2.4480   44.7700   50.8080 N.am      6 SEP2        0.0000 
     22 Zn          0.5160   50.7900   52.0690 Zn        3 ZIC7        0.0000 
     23 Zn          2.1750   50.9270   50.0930 Zn       11 ZIL7        0.0000 
     24 CA          3.2910   52.7445   53.7955 C.3       4 GLC5        0.0000 
     25 CA          3.9910   51.4430   52.2790 C.3      12 GLL5        0.0000 
     26 CA          2.5910   54.0460   55.3120 C.3       8 GLP5        0.0000 
     27 CA          3.2700   53.9260   53.4500 C.3       4 GLC5        0.0000 
     28 CA          3.9490   53.8060   51.5880 C.3      12 GLL5        0.0000 
     29 CA          4.8705   50.5945   48.6700 C.3       4 GLC5        0.0000 
     30 CA          5.1420   52.0030   50.2370 C.3      12 GLL5        0.0000 
     31 CA          4.5990   49.1860   47.1030 C.3       8 GLP5        0.0000 
     32 O           0.3830   47.8145   51.4770 O.2       1 ALC1        0.0000 
     33 O           0.2950   48.9820   52.3440 O.2       9 ALL1        0.0000 
     34 O           0.4710   46.6470   50.6100 O.2       5 ALP1        0.0000 
     35 CA         -3.5270   50.0795   52.3000 C.3       4 GLC5        0.0000 
     36 CA         -2.9690   50.6320   50.3930 C.3      12 GLL5        0.0000 
     37 CA         -4.0850   49.5270   54.2070 C.3       8 GLP5        0.0000 
     38 CA         -6.6150   52.8765   50.4250 C.3       4 GLC5        0.0000 
     39 CA         -5.2220   52.1800   49.3750 C.3      12 GLL5        0.0000 
     40 CA         -8.0080   53.5730   51.4750 C.3       8 GLP5        0.0000 
     41 Zn         -0.3725   50.8820   53.4685 Zn        3 ZIC7        0.0000 
     42 Zn          0.3980   51.1110   52.8920 Zn       11 ZIL7        0.0000 
     43 Zn         -1.0560   49.9070   53.4895 Zn        3 ZIC7        0.0000 
     44 Zn         -0.9690   49.1610   52.9340 Zn       11 ZIL7        0.0000 
     45 O          -1.9085   47.7980   52.8750 O.2       1 ALC1        0.0000 
     46 O          -0.9690   49.1610   52.9340 O.2       9 ALL1        0.0000 
     47 O          -2.8480   46.4350   52.8160 O.2       5 ALP1        0.0000 
     48 O          -1.0475   47.8975   53.5455 O.2       1 ALC1        0.0000 
     49 O          -1.1260   46.6340   54.1570 O.2       5 ALP1        0.0000 
     50 CA          3.1630   51.3158   56.3705 C.3       4 GLC5        0.0000 
     51 CA          3.7130   49.4900   55.4530 C.3      12 GLL5        0.0000 
     52 CA          2.8510   53.2980   56.6170 C.3       8 GLP5        0.0000 
     53 CA          0.9473   48.6043   57.2975 C.3       4 GLC5        0.0000 
     54 CA         -0.9330   48.6250   57.6960 C.3       8 GLP5        0.0000 
     55 CA          1.8715   45.5105   55.3755 C.3       4 GLC5        0.0000 
     56 CA          2.0140   47.1210   55.9120 C.3      12 GLL5        0.0000 
     57 CA          1.4970   43.7510   55.5130 C.3       8 GLP5        0.0000 
     58 CA          0.5985   48.0920   55.8070 C.3       4 GLC5        0.0000 
     59 CA         -1.0490   48.9140   56.3760 C.3       8 GLP5        0.0000 
     60 CA         -2.0518   48.7397   49.2660 C.3       4 GLC5        0.0000 
     61 CA         -1.6180   50.2390   50.0370 C.3      12 GLL5        0.0000 
     62 CA         -1.8100   47.0440   48.3170 C.3       8 GLP5        0.0000 
@<TRIPOS>BOND
@<TRIPOS>SUBSTRUCTURE
     1 ALC1       32 GROUP        1 X    ALC  0     ROOT ALC X 1
     2 SEC2       17 GROUP        1 X    SEC  0     **** SEC X 2
     3 ZIC7       14 GROUP        1 X    ZIC  0     **** ZIC X 5
     4 GLC5        1 GROUP        1 X    GLC  0     **** GLC X 6
     5 ALP1       34 GROUP        1 Y    ALP  0     ROOT ALP Y 8
     6 SEP2       19 GROUP        1 Y    SEP  0     **** SEP Y 9
     7 ZIP7       16 GROUP        1 Y    ZIP  0     **** ZIP Y 12
     8 GLP5        3 GROUP        1 Y    GLP  0     **** GLP Y 13
     9 ALL1       33 GROUP        1 Z    ALL  0     ROOT ALL Z 15
    10 SEL2       18 GROUP        1 Z    SEL  0     **** SEL Z 16
    11 ZIL7       15 GROUP        1 Z    ZIL  0     **** ZIL Z 19
    12 GLL5        2 GROUP        1 Z    GLL  0     **** GLL Z 20
@<TRIPOS>SET

