#    Name: 1bqo_N25_1_ligand
#    Modification time : Mon Mar 24 19:44:55 2014

@<TRIPOS>MOLECULE
1bqo_N25_1_ligand
   61    63     1     0     0
SMALL
NO_CHARGES


@<TRIPOS>ATOM
      1 C1          3.3340   48.5830   54.3740 C.ar      1 N25401      0.0000 
      2 C2          3.7130   49.4900   55.4530 C.ar      1 N25401      0.0000 
      3 C3          3.2370   49.1770   56.7950 C.ar      1 N25401      0.0000 
      4 C4          2.4180   47.9900   57.0030 C.ar      1 N25401      0.0000 
      5 C5          2.0140   47.1210   55.9120 C.ar      1 N25401      0.0000 
      6 C6          2.4780   47.4190   54.5640 C.ar      1 N25401      0.0000 
      7 O7          2.0120   47.5280   58.1940 O.3       1 N25401      0.0000 
      8 C8          2.5440   48.0860   59.2890 C.3       1 N25401      0.0000 
      9 N9          3.5020   50.0930   51.9530 N.pl3     1 N25401      0.0000 
     10 S10         4.0650   48.6710   52.7060 S.o2      1 N25401      0.0000 
     11 O11         5.5090   48.7260   52.7520 O.2       1 N25401      0.0000 
     12 O12         3.7150   47.6060   51.8130 O.2       1 N25401      0.0000 
     13 C13         2.1570   50.3200   51.4250 C.3       1 N25401      0.0000 
     14 N14         2.1750   50.9270   50.0930 N.pl3     1 N25401      0.0000 
     15 C15         2.6570   52.3080   50.2790 C.3       1 N25401      0.0000 
     16 C16         3.9350   52.3800   51.0890 C.3       1 N25401      0.0000 
     17 C17         3.9910   51.4430   52.2790 C.3       1 N25401      0.0000 
     18 C18         3.9490   53.8060   51.5880 C.3       1 N25401      0.0000 
     19 C19         5.1420   52.0030   50.2370 C.3       1 N25401      0.0000 
     20 S20         0.8660   50.6730   49.0300 S.o2      1 N25401      0.0000 
     21 O21         0.6910   49.2620   48.7570 O.2       1 N25401      0.0000 
     22 O22         1.1610   51.4860   47.8860 O.2       1 N25401      0.0000 
     23 C23         0.8890   50.1660   52.2680 C.2       1 N25401      0.0000 
     24 N25         0.2950   48.9820   52.3440 N.am      1 N25401      0.0000 
     25 C27        -0.7000   51.3100   49.6620 C.ar      1 N25401      0.0000 
     26 C28        -1.6180   50.2390   50.0370 C.ar      1 N25401      0.0000 
     27 C29        -2.9690   50.6320   50.3930 C.ar      1 N25401      0.0000 
     28 C30        -3.2890   52.0490   50.3410 C.ar      1 N25401      0.0000 
     29 C31        -2.3560   53.1080   49.9980 C.ar      1 N25401      0.0000 
     30 C32        -0.9980   52.7370   49.6400 C.ar      1 N25401      0.0000 
     31 O33        -4.5680   52.3730   50.5330 O.3       1 N25401      0.0000 
     32 C34        -5.2220   52.1800   49.3750 C.3       1 N25401      0.0000 
     33 O24         0.3980   51.1110   52.8920 O.2       1 N25401      0.0000 
     34 O26        -0.9690   49.1610   52.9340 O.3       1 N25401      0.0000 
     35 H           4.2712   50.2860   55.2796 H         1 N25401      0.0000 
     36 H           3.4707   49.7718   57.5655 H         1 N25401      0.0000 
     37 H           1.4267   46.3302   56.0815 H         1 N25401      0.0000 
     38 H           2.2188   46.8459   53.7964 H         1 N25401      0.0000 
     39 H           2.0756   49.0338   50.9074 H         1 N25401      0.0000 
     40 H           1.8856   52.9140   50.7870 H         1 N25401      0.0000 
     41 H           2.8369   52.7826   49.2978 H         1 N25401      0.0000 
     42 H           5.0330   51.3946   52.6373 H         1 N25401      0.0000 
     43 H           3.3912   51.8787   53.0957 H         1 N25401      0.0000 
     44 H           0.6288   48.1294   52.0604 H         1 N25401      0.0000 
     45 H          -1.3315   49.2988   50.0467 H         1 N25401      0.0000 
     46 H          -3.6460   49.9629   50.6606 H         1 N25401      0.0000 
     47 H          -2.6392   54.0613   50.0080 H         1 N25401      0.0000 
     48 H          -0.3233   53.4015   49.3987 H         1 N25401      0.0000 
     49 H           3.5374   47.9748   59.3172 H         1 N25401      0.0000 
     50 H           2.3575   49.0674   59.3337 H         1 N25401      0.0000 
     51 H           2.1797   47.6800   60.1271 H         1 N25401      0.0000 
     52 H           4.7531   53.9943   52.1518 H         1 N25401      0.0000 
     53 H           3.9591   54.4631   50.8343 H         1 N25401      0.0000 
     54 H           3.1451   54.0122   52.1458 H         1 N25401      0.0000 
     55 H           5.9932   52.0436   50.7603 H         1 N25401      0.0000 
     56 H           5.0650   51.0743   49.8742 H         1 N25401      0.0000 
     57 H           5.2498   52.6156   49.4540 H         1 N25401      0.0000 
     58 H          -4.8499   52.7461   48.6395 H         1 N25401      0.0000 
     59 H          -5.1652   51.2292   49.0704 H         1 N25401      0.0000 
     60 H          -6.1932   52.4046   49.4550 H         1 N25401      0.0000 
     61 H          -1.1592   48.2993   53.4045 H         1 N25401      0.0000 
@<TRIPOS>BOND
     1    2    1 ar   
     2    6    1 ar   
     3   10    1 1    
     4    3    2 ar   
     5   35    2 1    
     6    4    3 ar   
     7   36    3 1    
     8    5    4 ar   
     9    7    4 1    
    10    6    5 ar   
    11   37    5 1    
    12   38    6 1    
    13    8    7 1    
    14   49    8 1    
    15   50    8 1    
    16   51    8 1    
    17   10    9 1    
    18   13    9 1    
    19   17    9 1    
    20   11   10 2    
    21   12   10 2    
    22   14   13 1    
    23   23   13 1    
    24   39   13 1    
    25   15   14 1    
    26   20   14 1    
    27   16   15 1    
    28   40   15 1    
    29   41   15 1    
    30   17   16 1    
    31   18   16 1    
    32   19   16 1    
    33   42   17 1    
    34   43   17 1    
    35   52   18 1    
    36   53   18 1    
    37   54   18 1    
    38   55   19 1    
    39   56   19 1    
    40   57   19 1    
    41   21   20 2    
    42   22   20 2    
    43   25   20 1    
    44   24   23 am   
    45   33   23 2    
    46   34   24 1    
    47   44   24 1    
    48   26   25 ar   
    49   30   25 ar   
    50   27   26 ar   
    51   45   26 1    
    52   28   27 ar   
    53   46   27 1    
    54   29   28 ar   
    55   31   28 1    
    56   30   29 ar   
    57   47   29 1    
    58   48   30 1    
    59   32   31 1    
    60   58   32 1    
    61   59   32 1    
    62   60   32 1    
    63   61   34 1    
@<TRIPOS>SUBSTRUCTURE
     1 N25401      1 GROUP   
@<TRIPOS>SET

