#    Name: 3q9t_FAY_1_INTS_M
#    Modification time : Tue Mar 25 09:11:18 2014

@<TRIPOS>MOLECULE
3q9t_FAY_1_INTS_M
  141     0     9     0     0
SMALL
NO_CHARGES


@<TRIPOS>ATOM
      1 N          76.6390   -3.5720   25.5615 N.am      2 SEC2        0.0000 
      2 N          77.5430   -4.0760   24.2240 N.am      8 SEL2        0.0000 
      3 N          75.7350   -3.0680   26.8990 N.am      5 SEP2        0.0000 
      4 N          76.9700   -3.2945   26.6115 N.am      2 SEC2        0.0000 
      5 N          78.2050   -3.5210   26.3240 N.am      8 SEL2        0.0000 
      6 N          78.3150   -3.0275   27.5255 N.am      2 SEC2        0.0000 
      7 N          78.4250   -2.5340   28.7270 N.am      5 SEP2        0.0000 
      8 O          80.1695   -4.5510   26.5365 O.2       1 ALC1        0.0000 
      9 O          79.6760   -4.6730   25.1330 O.2       7 ALL1        0.0000 
     10 O          80.6630   -4.4290   27.9400 O.2       4 ALP1        0.0000 
     11 N          82.1155   -5.3565   25.1630 N.am      2 SEC2        0.0000 
     12 N          81.3560   -5.0110   23.6930 N.am      8 SEL2        0.0000 
     13 N          82.8750   -5.7020   26.6330 N.am      5 SEP2        0.0000 
     14 N          82.5800   -4.2480   23.1245 N.am      2 SEC2        0.0000 
     15 N          83.8040   -3.4850   22.5560 N.am      5 SEP2        0.0000 
     16 N          80.4720   -6.8365   21.9375 N.am      2 SEC2        0.0000 
     17 N          79.5820   -5.5950   21.6350 N.am      8 SEL2        0.0000 
     18 N          81.3620   -8.0780   22.2400 N.am      5 SEP2        0.0000 
     19 CA         74.8810   -8.0180   20.6350 C.3       3 GLC5        0.0000 
     20 CA         76.3390   -6.5140   20.2190 C.3       9 GLL5        0.0000 
     21 CA         73.4230   -9.5220   21.0510 C.3       6 GLP5        0.0000 
     22 CA         74.6915   -3.2820   23.4275 C.3       3 GLC5        0.0000 
     23 CA         75.3760   -5.1290   22.6260 C.3       9 GLL5        0.0000 
     24 CA         74.0070   -1.4350   24.2290 C.3       6 GLP5        0.0000 
     25 N          60.4735  -16.5925   17.0175 N.am      2 SEC2        0.0000 
     26 N          61.7010  -15.8970   17.4010 N.am      8 SEL2        0.0000 
     27 N          59.2460  -17.2880   16.6340 N.am      5 SEP2        0.0000 
     28 N          71.1410  -10.7815   21.3730 N.am      2 SEC2        0.0000 
     29 N          69.7220   -9.8870   20.8850 N.am      8 SEL2        0.0000 
     30 N          72.5600  -11.6760   21.8610 N.am      5 SEP2        0.0000 
     31 N          71.1740   -9.7205   20.3800 N.am      2 SEC2        0.0000 
     32 N          72.6260   -9.5540   19.8750 N.am      5 SEP2        0.0000 
     33 CA         64.6500  -14.1860   21.6395 C.3       3 GLC5        0.0000 
     34 CA         65.8010  -13.9770   20.0610 C.3       9 GLL5        0.0000 
     35 CA         63.4990  -14.3950   23.2180 C.3       6 GLP5        0.0000 
     36 N          68.4915   -8.9985   26.6440 N.am      2 SEC2        0.0000 
     37 N          68.4290   -8.5190   25.2210 N.am      8 SEL2        0.0000 
     38 N          68.5540   -9.4780   28.0670 N.am      5 SEP2        0.0000 
     39 CA         76.7230   -7.4495   23.0830 C.3       3 GLC5        0.0000 
     40 CA         74.9960   -6.2980   23.5640 C.3       9 GLL5        0.0000 
     41 CA         78.4500   -8.6010   22.6020 C.3       6 GLP5        0.0000 
     42 N          76.6200   -7.9090   23.9725 N.am      2 SEC2        0.0000 
     43 N          75.5400   -7.4520   23.0310 N.am      8 SEL2        0.0000 
     44 N          77.7000   -8.3660   24.9140 N.am      5 SEP2        0.0000 
     45 CA         63.3290  -17.6620   20.0110 C.3       3 GLC5        0.0000 
     46 CA         62.3690  -16.4830   18.4600 C.3       9 GLL5        0.0000 
     47 CA         64.2890  -18.8410   21.5620 C.3       6 GLP5        0.0000 
     48 CA         63.7055  -17.1775   17.6675 C.3       3 GLC5        0.0000 
     49 CA         65.0420  -17.8720   16.8750 C.3       6 GLP5        0.0000 
     50 CA         61.5065  -17.7445   17.0545 C.3       3 GLC5        0.0000 
     51 CA         60.6440  -19.0060   15.6490 C.3       6 GLP5        0.0000 
     52 CA         60.2885  -15.9545   18.1740 C.3       3 GLC5        0.0000 
     53 CA         58.2080  -15.4260   17.8880 C.3       6 GLP5        0.0000 
     54 N          70.1495  -10.7445   24.6655 N.am      2 SEC2        0.0000 
     55 N          70.5120  -10.1260   23.2540 N.am      8 SEL2        0.0000 
     56 N          69.7870  -11.3630   26.0770 N.am      5 SEP2        0.0000 
     57 N          71.2050   -9.9420   24.3900 N.am      2 SEC2        0.0000 
     58 N          71.8980   -9.7580   25.5260 N.am      5 SEP2        0.0000 
     59 N          71.5360  -10.9010   22.5575 N.am      2 SEC2        0.0000 
     60 N          68.1785  -14.2330   17.6715 N.am      2 SEC2        0.0000 
     61 N          67.7650  -14.9840   18.9950 N.am      8 SEL2        0.0000 
     62 N          68.5920  -13.4820   16.3480 N.am      5 SEP2        0.0000 
     63 O          67.6700  -16.1685   19.6205 O.2       1 ALC1        0.0000 
     64 O          67.7650  -14.9840   18.9950 O.2       7 ALL1        0.0000 
     65 O          67.5750  -17.3530   20.2460 O.2       4 ALP1        0.0000 
     66 N          67.4470   -5.1950   24.4215 N.am      2 SEC2        0.0000 
     67 N          68.1350   -6.3730   23.9800 N.am      8 SEL2        0.0000 
     68 N          66.7590   -4.0170   24.8630 N.am      5 SEP2        0.0000 
     69 N          64.1240  -17.2330   19.1300 N.am      2 SEC2        0.0000 
     70 N          63.4430  -15.8410   19.0550 N.am      8 SEL2        0.0000 
     71 N          64.8050  -18.6250   19.2050 N.am      5 SEP2        0.0000 
     72 CA         69.6065  -13.5470   21.5375 C.3       3 GLC5        0.0000 
     73 CA         67.9450  -13.4230   20.8320 C.3       9 GLL5        0.0000 
     74 CA         71.2680  -13.6710   22.2430 C.3       6 GLP5        0.0000 
     75 O          67.4010  -15.6025   21.7815 O.2       1 ALC1        0.0000 
     76 O          68.2540  -14.5980   21.5400 O.2       7 ALL1        0.0000 
     77 O          66.5480  -16.6070   22.0230 O.2       4 ALP1        0.0000 
     78 CA         71.7775   -4.6945   24.9030 C.3       3 GLC5        0.0000 
     79 CA         72.4580   -5.8720   23.1910 C.3       9 GLL5        0.0000 
     80 CA         71.0970   -3.5170   26.6150 C.3       6 GLP5        0.0000 
     81 CA         65.1980  -13.5425   22.4255 C.3       3 GLC5        0.0000 
     82 CA         66.8970  -12.6900   21.6330 C.3       9 GLL5        0.0000 
     83 CA         71.1075   -7.7510   25.2670 C.3       3 GLC5        0.0000 
     84 CA         71.0620   -6.0580   23.8340 C.3       9 GLL5        0.0000 
     85 CA         71.1530   -9.4440   26.7000 C.3       6 GLP5        0.0000 
     86 CA         69.8045   -4.4720   23.7295 C.3       3 GLC5        0.0000 
     87 CA         68.5470   -2.8860   23.6250 C.3       6 GLP5        0.0000 
     88 CA         70.4470   -5.8205   25.5650 C.3       3 GLC5        0.0000 
     89 CA         69.8320   -5.5830   27.2960 C.3       6 GLP5        0.0000 
     90 N          71.2160   -8.5590   24.8270 N.am      2 SEC2        0.0000 
     91 N          70.5340   -7.3600   24.1280 N.am      8 SEL2        0.0000 
     92 CA         63.5950  -12.1070   16.5715 C.3       3 GLC5        0.0000 
     93 CA         63.1690  -14.0150   17.5380 C.3       9 GLL5        0.0000 
     94 CA         64.0210  -10.1990   15.6050 C.3       6 GLP5        0.0000 
     95 CA         66.4815   -9.2855   21.3510 C.3       3 GLC5        0.0000 
     96 CA         67.1700  -11.1990   21.6680 C.3       9 GLL5        0.0000 
     97 CA         65.7930   -7.3720   21.0340 C.3       6 GLP5        0.0000 
     98 CA         60.1510  -15.0415   17.4075 C.3       3 GLC5        0.0000 
     99 CA         62.0940  -14.6570   16.9270 C.3       9 GLL5        0.0000 
    100 O          60.2165  -14.2660   16.5130 O.2       1 ALC1        0.0000 
    101 O          61.5160  -14.1170   15.8450 O.2       7 ALL1        0.0000 
    102 O          58.9170  -14.4150   17.1810 O.2       4 ALP1        0.0000 
    103 O          60.2635  -13.7905   14.9115 O.2       1 ALC1        0.0000 
    104 O          59.0110  -13.4640   13.9780 O.2       4 ALP1        0.0000 
    105 CA         77.7285   -8.8880   16.1960 C.3       3 GLC5        0.0000 
    106 CA         78.6210   -7.6800   17.3870 C.3       9 GLL5        0.0000 
    107 CA         76.8360  -10.0960   15.0050 C.3       6 GLP5        0.0000 
    108 CA         80.4955   -8.0090   17.4485 C.3       3 GLC5        0.0000 
    109 CA         82.3700   -8.3380   17.5100 C.3       6 GLP5        0.0000 
    110 CA         78.2180   -6.2145   16.5155 C.3       3 GLC5        0.0000 
    111 CA         77.8150   -4.7490   15.6440 C.3       6 GLP5        0.0000 
    112 CA         78.9870   -8.1730   20.4348 C.3       3 GLC5        0.0000 
    113 CA         79.0390   -6.6440   19.6040 C.3       9 GLL5        0.0000 
    114 CA         79.3960   -9.4400   21.7100 C.3       6 GLP5        0.0000 
    115 CA         78.0630   -5.3015   18.5427 C.3       3 GLC5        0.0000 
    116 CA         77.5480   -3.6970   17.9260 C.3       6 GLP5        0.0000 
    117 CA         77.4975   -7.6913   21.1035 C.3       3 GLC5        0.0000 
    118 CA         76.7510   -7.0490   18.9910 C.3       9 GLL5        0.0000 
    119 CA         77.0465   -5.2393   18.7655 C.3       3 GLC5        0.0000 
    120 CA         66.4700  -14.2585   17.8053 C.3       3 GLC5        0.0000 
    121 CA         67.2230  -13.8030   19.5580 C.3       9 GLL5        0.0000 
    122 CA         66.4280  -14.6270   15.8010 C.3       6 GLP5        0.0000 
    123 CA         75.2142   -5.9792   25.4982 C.3       3 GLC5        0.0000 
    124 CA         73.5190   -6.5830   23.9930 C.3       9 GLL5        0.0000 
    125 CA         76.1710   -5.5180   27.2180 C.3       6 GLP5        0.0000 
    126 CA         73.3904   -7.8391   22.2679 C.3       3 GLC5        0.0000 
    127 CA         62.4918  -13.1020   19.2608 C.3       3 GLC5        0.0000 
    128 CA         63.8360  -14.6250   18.5970 C.3       9 GLL5        0.0000 
    129 CA         61.4810  -11.8840   20.4540 C.3       6 GLP5        0.0000 
    130 CA         65.2022  -11.1267   21.4312 C.3       3 GLC5        0.0000 
    131 CA         63.3710  -10.3090   21.2120 C.3       6 GLP5        0.0000 
    132 CA         67.9513  -12.6244   23.1931 C.3       3 GLC5        0.0000 
    133 CA         68.6070  -13.1210   24.9360 C.3       6 GLP5        0.0000 
    134 CA         78.1910   -7.2553   21.7473 C.3       3 GLC5        0.0000 
    135 CA         77.2530   -5.8990   21.0720 C.3       9 GLL5        0.0000 
    136 CA         77.7400   -4.8033   19.4093 C.3       3 GLC5        0.0000 
    137 CA         78.6110   -5.9200   20.7130 C.3       9 GLL5        0.0000 
    138 CA         63.9201  -16.1803   17.1861 C.3       3 GLC5        0.0000 
    139 CA         77.2343   -9.3206   18.4440 C.3       3 GLC5        0.0000 
    140 CA         78.1170   -7.1680   18.7150 C.3       9 GLL5        0.0000 
    141 CA         76.4410  -11.2470   18.7680 C.3       6 GLP5        0.0000 
@<TRIPOS>BOND
@<TRIPOS>SUBSTRUCTURE
     1 ALC1        8 GROUP        1 X    ALC  0     ROOT ALC X 1
     2 SEC2        1 GROUP        1 X    SEC  0     **** SEC X 2
     3 GLC5       19 GROUP        1 X    GLC  0     **** GLC X 6
     4 ALP1       10 GROUP        1 Y    ALP  0     ROOT ALP Y 8
     5 SEP2        3 GROUP        1 Y    SEP  0     **** SEP Y 9
     6 GLP5       21 GROUP        1 Y    GLP  0     **** GLP Y 13
     7 ALL1        9 GROUP        1 Z    ALL  0     ROOT ALL Z 15
     8 SEL2        2 GROUP        1 Z    SEL  0     **** SEL Z 16
     9 GLL5       20 GROUP        1 Z    GLL  0     **** GLL Z 20
@<TRIPOS>SET

