#    Name: 3q9t_FAY_1_ligand
#    Modification time : Tue Mar 25 09:11:18 2014

@<TRIPOS>MOLECULE
3q9t_FAY_1_ligand
   83    88     1     0     0
SMALL
NO_CHARGES


@<TRIPOS>ATOM
      1 P          68.9240   -7.6660   24.0780 P.3       1 FAY600      0.0000 
      2 N1         77.5430   -4.0760   24.2240 N.2       1 FAY600      0.0000 
      3 C2         78.5140   -3.9350   25.2130 C.2       1 FAY600      0.0000 
      4 O2         78.2050   -3.5210   26.3240 O.2       1 FAY600      0.0000 
      5 N3         79.6760   -4.6730   25.1330 N.am      1 FAY600      0.0000 
      6 C4         80.1280   -5.0570   23.8950 C.2       1 FAY600      0.0000 
      7 O4         81.3560   -5.0110   23.6930 O.2       1 FAY600      0.0000 
      8 N5         79.5820   -5.5950   21.6350 N.2       1 FAY600      0.0000 
      9 C6         79.0390   -6.6440   19.6040 C.ar      1 FAY600      0.0000 
     10 C7         78.1170   -7.1680   18.7150 C.ar      1 FAY600      0.0000 
     11 C8         76.7510   -7.0490   18.9910 C.ar      1 FAY600      0.0000 
     12 O8         74.6270   -7.8700   18.4390 O.2       1 FAY600      0.0000 
     13 C9         76.3390   -6.5140   20.2190 C.ar      1 FAY600      0.0000 
     14 PA         69.3630   -9.8500   22.3330 P.3       1 FAY600      0.0000 
     15 C1'        75.3760   -5.1290   22.6260 C.3       1 FAY600      0.0000 
     16 C10        77.8570   -4.6830   23.0310 C.2       1 FAY600      0.0000 
     17 N10        76.8470   -5.1880   22.2070 N.pl3     1 FAY600      0.0000 
     18 N1A        61.7010  -15.8970   17.4010 N.ar      1 FAY600      0.0000 
     19 O1A        69.7220   -9.8870   20.8850 O.co2     1 FAY600      0.0000 
     20 C1B        65.8010  -13.9770   20.0610 C.3       1 FAY600      0.0000 
     21 O1P        68.4290   -8.5190   25.2210 O.co2     1 FAY600      0.0000 
     22 C2'        74.9960   -6.2980   23.5640 C.3       1 FAY600      0.0000 
     23 O2'        75.5400   -7.4520   23.0310 O.3       1 FAY600      0.0000 
     24 C2A        62.3690  -16.4830   18.4600 C.ar      1 FAY600      0.0000 
     25 O2A        70.5120  -10.1260   23.2540 O.co2     1 FAY600      0.0000 
     26 C2B        67.2230  -13.8030   19.5580 C.3       1 FAY600      0.0000 
     27 O2B        67.7650  -14.9840   18.9950 O.3       1 FAY600      0.0000 
     28 O2P        68.1350   -6.3730   23.9800 O.co2     1 FAY600      0.0000 
     29 C3'        73.5190   -6.5830   23.9930 C.3       1 FAY600      0.0000 
     30 O3'        73.1500   -7.9590   24.0510 O.3       1 FAY600      0.0000 
     31 N3A        63.4430  -15.8410   19.0550 N.ar      1 FAY600      0.0000 
     32 C3B        67.9450  -13.4230   20.8320 C.3       1 FAY600      0.0000 
     33 O3B        68.2540  -14.5980   21.5400 O.3       1 FAY600      0.0000 
     34 O3P        68.7030   -8.4420   22.6830 O.3       1 FAY600      0.0000 
     35 C4'        72.4580   -5.8720   23.1910 C.3       1 FAY600      0.0000 
     36 O4'        72.8550   -4.5040   23.1530 O.3       1 FAY600      0.0000 
     37 C4A        63.8360  -14.6250   18.5970 C.ar      1 FAY600      0.0000 
     38 C4B        66.8970  -12.6900   21.6330 C.3       1 FAY600      0.0000 
     39 O4B        65.6460  -12.9690   21.0280 O.3       1 FAY600      0.0000 
     40 C4X        79.2010   -5.0530   22.8360 C.2       1 FAY600      0.0000 
     41 C5'        71.0620   -6.0580   23.8340 C.3       1 FAY600      0.0000 
     42 O5'        70.5340   -7.3600   24.1280 O.3       1 FAY600      0.0000 
     43 C5A        63.1690  -14.0150   17.5380 C.ar      1 FAY600      0.0000 
     44 C5B        67.1700  -11.1990   21.6680 C.3       1 FAY600      0.0000 
     45 O5B        68.2130  -10.9730   22.5840 O.3       1 FAY600      0.0000 
     46 C5X        78.6110   -5.9200   20.7130 C.ar      1 FAY600      0.0000 
     47 C6A        62.0940  -14.6570   16.9270 C.ar      1 FAY600      0.0000 
     48 N6A        61.5160  -14.1170   15.8450 N.pl3     1 FAY600      0.0000 
     49 N7A        63.7630  -12.8270   17.3020 N.2       1 FAY600      0.0000 
     50 C7M        78.6210   -7.6800   17.3870 C.3       1 FAY600      0.0000 
     51 C8A        64.7740  -12.6570   18.1800 C.2       1 FAY600      0.0000 
     52 C8M        75.8220   -7.9350   18.2540 C.2       1 FAY600      0.0000 
     53 C9A        77.2530   -5.8990   21.0720 C.ar      1 FAY600      0.0000 
     54 N9A        64.8330  -13.7610   18.9790 N.pl3     1 FAY600      0.0000 
     55 H          80.1893   -4.9280   25.9815 H         1 FAY600      0.0000 
     56 H          80.0478   -6.7885   19.4474 H         1 FAY600      0.0000 
     57 H          75.3460   -6.5781   20.4915 H         1 FAY600      0.0000 
     58 H          74.7444   -5.1726   21.7374 H         1 FAY600      0.0000 
     59 H          75.1843   -4.1876   23.1432 H         1 FAY600      0.0000 
     60 H          65.7072  -14.9444   20.4805 H         1 FAY600      0.0000 
     61 H          75.5583   -6.0976   24.5402 H         1 FAY600      0.0000 
     62 H          62.0661  -17.4068   18.8115 H         1 FAY600      0.0000 
     63 H          67.2422  -12.9577   18.9114 H         1 FAY600      0.0000 
     64 H          73.4222   -6.1634   25.0472 H         1 FAY600      0.0000 
     65 H          68.7387  -12.8036   20.6290 H         1 FAY600      0.0000 
     66 H          72.4409   -6.2995   22.2035 H         1 FAY600      0.0000 
     67 H          66.9260  -13.0729   22.6464 H         1 FAY600      0.0000 
     68 H          70.3308   -5.4769   23.1687 H         1 FAY600      0.0000 
     69 H          71.0643   -5.4104   24.7804 H         1 FAY600      0.0000 
     70 H          66.2453  -10.6957   21.9594 H         1 FAY600      0.0000 
     71 H          67.4307  -10.8821   20.6556 H         1 FAY600      0.0000 
     72 H          62.1158  -13.9515   15.0621 H         1 FAY600      0.0000 
     73 H          60.5367  -13.9279   15.9175 H         1 FAY600      0.0000 
     74 H          65.3557  -11.8942   18.2388 H         1 FAY600      0.0000 
     75 H          76.3219   -8.5856   17.5903 H         1 FAY600      0.0000 
     76 H          79.0696   -6.9601   16.8574 H         1 FAY600      0.0000 
     77 H          79.2865   -8.4175   17.5017 H         1 FAY600      0.0000 
     78 H          77.8788   -8.0403   16.8219 H         1 FAY600      0.0000 
     79 H          74.7860   -8.1087   23.0123 H         1 FAY600      0.0000 
     80 H          67.5510  -15.7061   19.6529 H         1 FAY600      0.0000 
     81 H          72.1501   -7.9584   24.0630 H         1 FAY600      0.0000 
     82 H          67.4072  -15.1299   21.5406 H         1 FAY600      0.0000 
     83 H          72.2250   -4.0696   22.5093 H         1 FAY600      0.0000 
@<TRIPOS>BOND
     1   21    1 ar   
     2   28    1 ar   
     3   34    1 1    
     4   42    1 1    
     5    3    2 1    
     6   16    2 2    
     7    4    3 2    
     8    5    3 am   
     9    6    5 am   
    10   55    5 1    
    11    7    6 2    
    12   40    6 1    
    13   40    8 2    
    14   46    8 1    
    15   10    9 ar   
    16   46    9 ar   
    17   56    9 1    
    18   11   10 ar   
    19   50   10 1    
    20   13   11 ar   
    21   52   11 1    
    22   52   12 2    
    23   53   13 ar   
    24   57   13 1    
    25   19   14 ar   
    26   25   14 ar   
    27   34   14 1    
    28   45   14 1    
    29   17   15 1    
    30   22   15 1    
    31   58   15 1    
    32   59   15 1    
    33   17   16 1    
    34   40   16 1    
    35   53   17 1    
    36   24   18 ar   
    37   47   18 ar   
    38   26   20 1    
    39   39   20 1    
    40   54   20 1    
    41   60   20 1    
    42   23   22 1    
    43   29   22 1    
    44   61   22 1    
    45   79   23 1    
    46   31   24 ar   
    47   62   24 1    
    48   27   26 1    
    49   32   26 1    
    50   63   26 1    
    51   80   27 1    
    52   30   29 1    
    53   35   29 1    
    54   64   29 1    
    55   81   30 1    
    56   37   31 ar   
    57   33   32 1    
    58   38   32 1    
    59   65   32 1    
    60   82   33 1    
    61   36   35 1    
    62   41   35 1    
    63   66   35 1    
    64   83   36 1    
    65   43   37 ar   
    66   54   37 1    
    67   39   38 1    
    68   44   38 1    
    69   67   38 1    
    70   42   41 1    
    71   68   41 1    
    72   69   41 1    
    73   47   43 ar   
    74   49   43 1    
    75   45   44 1    
    76   70   44 1    
    77   71   44 1    
    78   53   46 ar   
    79   48   47 1    
    80   72   48 1    
    81   73   48 1    
    82   51   49 2    
    83   76   50 1    
    84   77   50 1    
    85   78   50 1    
    86   54   51 1    
    87   74   51 1    
    88   75   52 1    
@<TRIPOS>SUBSTRUCTURE
     1 FAY600      1 GROUP   
@<TRIPOS>SET

