#    Name: 2viy_VG3_1_INTS_M
#    Modification time : Tue Mar 25 01:53:14 2014

@<TRIPOS>MOLECULE
2viy_VG3_1_INTS_M
   81     0    12     0     0
SMALL
NO_CHARGES


@<TRIPOS>ATOM
      1 O          28.2355    0.6305   34.0340 O.2       1 ALC1        0.0000 
      2 O          29.3600    1.4560   33.7170 O.2       9 ALL1        0.0000 
      3 O          27.1110   -0.1950   34.3510 O.2       5 ALP1        0.0000 
      4 CA         26.6455    2.1280   33.4540 C.3       4 GLC5        0.0000 
      5 CA         28.3370    3.5240   33.0190 C.3      12 GLL5        0.0000 
      6 CA         24.9540    0.7320   33.8890 C.3       8 GLP5        0.0000 
      7 CA         26.7570    1.1480   32.6325 C.3       4 GLC5        0.0000 
      8 CA         28.5600    1.5640   31.3760 C.3      12 GLL5        0.0000 
      9 N          32.9395    1.9380   34.1625 N.am      2 SEC2        0.0000 
     10 N          31.5040    2.0170   34.2240 N.am     10 SEL2        0.0000 
     11 N          34.3750    1.8590   34.1010 N.am      6 SEP2        0.0000 
     12 CA         29.5885    0.1490   38.2930 C.3       4 GLC5        0.0000 
     13 CA         31.0290   -0.9730   37.4100 C.3      12 GLL5        0.0000 
     14 CA         28.1480    1.2710   39.1760 C.3       8 GLP5        0.0000 
     15 CA         32.2545    2.0010   36.4010 C.3       4 GLC5        0.0000 
     16 CA         31.0110    0.1680   36.5650 C.3      12 GLL5        0.0000 
     17 CA         33.4980    3.8340   36.2370 C.3       8 GLP5        0.0000 
     18 CA         31.6265    1.9060   31.0500 C.3       4 GLC5        0.0000 
     19 CA         30.6090    0.1360   30.8570 C.3      12 GLL5        0.0000 
     20 CA         32.6440    3.6760   31.2430 C.3       8 GLP5        0.0000 
     21 O          27.0560    4.0955   31.2460 O.2       1 ALC1        0.0000 
     22 O          28.0980    4.4500   31.9870 O.2       9 ALL1        0.0000 
     23 O          26.0140    3.7410   30.5050 O.2       5 ALP1        0.0000 
     24 CA         26.8040    6.6210   34.2670 C.3       4 GLC5        0.0000 
     25 CA         28.9560    6.7450   34.8900 C.3      12 GLL5        0.0000 
     26 CA         24.6520    6.4970   33.6440 C.3       8 GLP5        0.0000 
     27 CA         28.3160    8.6625   34.8830 C.3       4 GLC5        0.0000 
     28 CA         27.6760   10.5800   34.8760 C.3       8 GLP5        0.0000 
     29 OD1        26.6000    4.6470   34.8440 O.co2     3 ASC3        0.0000 
     30 OD1        28.2730    5.5240   34.4250 O.co2    11 ASL3        0.0000 
     31 OD1        24.9270    3.7700   35.2630 O.co2     7 ASP3        0.0000 
     32 OD1        27.4650    5.0640   35.3775 O.co2     3 ASC3        0.0000 
     33 OD1        26.6570    4.6040   36.3300 O.co2     7 ASP3        0.0000 
     34 O          28.1270    7.7405   32.8450 O.2       1 ALC1        0.0000 
     35 O          29.6350    7.9310   32.9040 O.2       9 ALL1        0.0000 
     36 O          26.6190    7.5500   32.7860 O.2       5 ALP1        0.0000 
     37 N          32.5160    5.6600   33.9610 N.am      2 SEC2        0.0000 
     38 N          31.2560    6.7770   34.0420 N.am     10 SEL2        0.0000 
     39 N          33.7760    4.5430   33.8800 N.am      6 SEP2        0.0000 
     40 CA         29.7150   10.7590   33.5535 C.3       4 GLC5        0.0000 
     41 CA         30.8950    9.8650   32.0780 C.3      12 GLL5        0.0000 
     42 CA         28.5350   11.6530   35.0290 C.3       8 GLP5        0.0000 
     43 CA         31.4660   10.9805   27.5935 C.3       4 GLC5        0.0000 
     44 CA         31.0860   10.2440   29.5070 C.3      12 GLL5        0.0000 
     45 CA         31.8460   11.7170   25.6800 C.3       8 GLP5        0.0000 
     46 CA         31.1945    7.7960   27.9165 C.3       4 GLC5        0.0000 
     47 CA         30.5680    8.7980   29.2790 C.3      12 GLL5        0.0000 
     48 CA         31.8210    6.7940   26.5540 C.3       8 GLP5        0.0000 
     49 CA         30.2095    6.7130   29.0520 C.3       4 GLC5        0.0000 
     50 CA         29.8510    4.6280   28.8250 C.3       8 GLP5        0.0000 
     51 CA         34.3640   -1.7655   43.7740 C.3       4 GLC5        0.0000 
     52 CA         35.3160   -2.7550   42.2180 C.3      12 GLL5        0.0000 
     53 CA         33.4120   -0.7760   45.3300 C.3       8 GLP5        0.0000 
     54 N          29.1205   -1.6445   40.4970 N.am      2 SEC2        0.0000 
     55 N          30.5300   -1.4170   39.9240 N.am     10 SEL2        0.0000 
     56 N          27.7110   -1.8720   41.0700 N.am      6 SEP2        0.0000 
     57 CA         29.6569    3.4036   31.0216 C.3       4 GLC5        0.0000 
     58 CA         29.2020    2.3450   32.5500 C.3      12 GLL5        0.0000 
     59 CA         30.6490    4.5580   29.9630 C.3       8 GLP5        0.0000 
     60 CA         32.1471   -1.0160   34.7415 C.3       4 GLC5        0.0000 
     61 CA         30.1530   -1.2290   34.7310 C.3      12 GLL5        0.0000 
     62 CA         34.0250   -0.5560   34.2050 C.3       8 GLP5        0.0000 
     63 CA         28.7157   -0.9273   36.6560 C.3       4 GLC5        0.0000 
     64 CA         30.1760   -2.3610   35.5830 C.3      12 GLL5        0.0000 
     65 CA         27.0380    0.4430   37.0600 C.3       8 GLP5        0.0000 
     66 CA         29.1502   -3.1473   37.5845 C.3       4 GLC5        0.0000 
     67 CA         27.9070   -3.9970   38.9170 C.3       8 GLP5        0.0000 
     68 CA         32.5225   -0.4792   35.5962 C.3       4 GLC5        0.0000 
     69 CA         28.8624    0.1157   36.4145 C.3       4 GLC5        0.0000 
     70 CA         27.1378   -2.4073   30.4405 C.3       4 GLC5        0.0000 
     71 CA         28.4280   -0.9650   31.0890 C.3      12 GLL5        0.0000 
     72 CA         25.5440   -3.2220   29.9190 C.3       8 GLP5        0.0000 
     73 CA         27.7731    0.7473   29.6130 C.3       4 GLC5        0.0000 
     74 CA         26.8900    1.5300   28.0620 C.3       8 GLP5        0.0000 
     75 CA         27.7965    7.4325   36.8182 C.3       4 GLC5        0.0000 
     76 CA         26.3520    8.2300   38.0380 C.3       8 GLP5        0.0000 
     77 CA         30.3710    6.4532   30.5493 C.3       4 GLC5        0.0000 
     78 CA         30.4790    8.4020   31.8030 C.3      12 GLL5        0.0000 
     79 CA         28.4038    7.6673   29.6947 C.3       4 GLC5        0.0000 
     80 CA         29.7070    8.2950   30.4680 C.3      12 GLL5        0.0000 
     81 CA         26.6700    6.7880   29.5160 C.3       8 GLP5        0.0000 
@<TRIPOS>BOND
@<TRIPOS>SUBSTRUCTURE
     1 ALC1        1 GROUP        1 X    ALC  0     ROOT ALC X 1
     2 SEC2        9 GROUP        1 X    SEC  0     **** SEC X 2
     3 ASC3       29 GROUP        1 X    ASC  0     **** ASC X 3
     4 GLC5        4 GROUP        1 X    GLC  0     **** GLC X 6
     5 ALP1        3 GROUP        1 Y    ALP  0     ROOT ALP Y 8
     6 SEP2       11 GROUP        1 Y    SEP  0     **** SEP Y 9
     7 ASP3       31 GROUP        1 Y    ASP  0     **** ASP Y 10
     8 GLP5        6 GROUP        1 Y    GLP  0     **** GLP Y 13
     9 ALL1        2 GROUP        1 Z    ALL  0     ROOT ALL Z 15
    10 SEL2       10 GROUP        1 Z    SEL  0     **** SEL Z 16
    11 ASL3       30 GROUP        1 Z    ASL  0     **** ASL Z 17
    12 GLL5        5 GROUP        1 Z    GLL  0     **** GLL Z 20
@<TRIPOS>SET

