#    Name: 2viy_VG3_1_ligand
#    Modification time : Tue Mar 25 01:53:14 2014

@<TRIPOS>MOLECULE
2viy_VG3_1_ligand
   84    86     1     0     0
SMALL
NO_CHARGES


@<TRIPOS>ATOM
      1 C1         30.5470    1.2450   34.3590 C.2       1 VG31448     0.0000 
      2 N2         29.3600    1.4560   33.7170 N.am      1 VG31448     0.0000 
      3 C3         29.2020    2.3450   32.5500 C.3       1 VG31448     0.0000 
      4 C4         28.3370    3.5240   33.0190 C.3       1 VG31448     0.0000 
      5 C5         28.5600    1.5640   31.3760 C.3       1 VG31448     0.0000 
      6 O6         31.5040    2.0170   34.2240 O.2       1 VG31448     0.0000 
      7 C7         30.5720    0.0470   35.2150 C.ar      1 VG31448     0.0000 
      8 C8         30.1530   -1.2290   34.7310 C.ar      1 VG31448     0.0000 
      9 C9         30.1760   -2.3610   35.5830 C.ar      1 VG31448     0.0000 
     10 C10        30.6110   -2.2340   36.9210 C.ar      1 VG31448     0.0000 
     11 C11        31.0290   -0.9730   37.4100 C.ar      1 VG31448     0.0000 
     12 C12        31.0110    0.1680   36.5650 C.ar      1 VG31448     0.0000 
     13 C13        29.2090    0.2240   31.1020 C.ar      1 VG31448     0.0000 
     14 C14        28.4280   -0.9650   31.0890 C.ar      1 VG31448     0.0000 
     15 C15        29.0350   -2.2200   30.8350 C.ar      1 VG31448     0.0000 
     16 C16        30.4270   -2.2960   30.5930 C.ar      1 VG31448     0.0000 
     17 C17        31.2140   -1.1170   30.6050 C.ar      1 VG31448     0.0000 
     18 C18        30.6090    0.1360   30.8570 C.ar      1 VG31448     0.0000 
     19 O19        28.0980    4.4500   31.9870 O.3       1 VG31448     0.0000 
     20 C20        28.9560    6.7450   34.8900 C.3       1 VG31448     0.0000 
     21 C21        28.9930    4.2820   34.1860 C.3       1 VG31448     0.0000 
     22 N22        28.2730    5.5240   34.4250 N.4       1 VG31448     0.0000 
     23 S23        31.5550   -0.8330   39.1000 S.o2      1 VG31448     0.0000 
     24 C24        29.5260    6.5250   36.3070 C.3       1 VG31448     0.0000 
     25 C38        30.0910    7.1540   33.9040 C.2       1 VG31448     0.0000 
     26 N39        29.6350    7.9310   32.9040 N.am      1 VG31448     0.0000 
     27 C40        30.4790    8.4020   31.8030 C.3       1 VG31448     0.0000 
     28 O41        31.2560    6.7770   34.0420 O.2       1 VG31448     0.0000 
     29 C43        30.8950    9.8650   32.0780 C.3       1 VG31448     0.0000 
     30 C44        31.7800   10.4030   30.8840 C.3       1 VG31448     0.0000 
     31 C45        31.0860   10.2440   29.5070 C.3       1 VG31448     0.0000 
     32 C46        30.5680    8.7980   29.2790 C.3       1 VG31448     0.0000 
     33 C47        29.7070    8.2950   30.4680 C.3       1 VG31448     0.0000 
     34 C60        32.9950   -1.8910   39.1700 C.3       1 VG31448     0.0000 
     35 C61        33.5530   -1.8840   40.6000 C.3       1 VG31448     0.0000 
     36 C64        34.7870   -2.7790   40.7760 C.3       1 VG31448     0.0000 
     37 C67        35.3160   -2.7550   42.2180 C.3       1 VG31448     0.0000 
     38 C70        36.5490   -3.6500   42.4020 C.3       1 VG31448     0.0000 
     39 O76        30.5300   -1.4170   39.9240 O.2       1 VG31448     0.0000 
     40 O77        31.9300    0.5250   39.3430 O.2       1 VG31448     0.0000 
     41 H          28.4845    0.9789   34.0383 H         1 VG31448     0.0000 
     42 H          30.1568    2.7187   32.2457 H         1 VG31448     0.0000 
     43 H          27.3959    3.1172   33.4004 H         1 VG31448     0.0000 
     44 H          28.6156    2.1928   30.4733 H         1 VG31448     0.0000 
     45 H          27.4922    1.4176   31.6034 H         1 VG31448     0.0000 
     46 H          29.8360   -1.3216   33.7656 H         1 VG31448     0.0000 
     47 H          29.8769   -3.2705   35.2270 H         1 VG31448     0.0000 
     48 H          30.6244   -3.0483   37.5344 H         1 VG31448     0.0000 
     49 H          31.3111    1.0725   36.9215 H         1 VG31448     0.0000 
     50 H          27.4229   -0.9111   31.2643 H         1 VG31448     0.0000 
     51 H          28.4681   -3.0675   30.8268 H         1 VG31448     0.0000 
     52 H          30.8653   -3.1984   30.4098 H         1 VG31448     0.0000 
     53 H          32.2178   -1.1742   30.4315 H         1 VG31448     0.0000 
     54 H          31.1760    0.9859   30.8643 H         1 VG31448     0.0000 
     55 H          28.2529    7.5686   34.9394 H         1 VG31448     0.0000 
     56 H          30.0338    4.4719   33.9211 H         1 VG31448     0.0000 
     57 H          28.9689    3.6347   35.0635 H         1 VG31448     0.0000 
     58 H          28.6345    8.2408   32.8669 H         1 VG31448     0.0000 
     59 H          31.3701    7.8070   31.7294 H         1 VG31448     0.0000 
     60 H          31.4784    9.9140   32.9816 H         1 VG31448     0.0000 
     61 H          30.0178   10.4845   32.1561 H         1 VG31448     0.0000 
     62 H          32.7186    9.8515   30.8814 H         1 VG31448     0.0000 
     63 H          31.9892   11.4561   31.0638 H         1 VG31448     0.0000 
     64 H          31.7971   10.4920   28.7207 H         1 VG31448     0.0000 
     65 H          30.2446   10.9328   29.4523 H         1 VG31448     0.0000 
     66 H          31.4205    8.1332   29.1532 H         1 VG31448     0.0000 
     67 H          29.9660    8.7773   28.3725 H         1 VG31448     0.0000 
     68 H          28.8046    8.8959   30.5287 H         1 VG31448     0.0000 
     69 H          29.4376    7.2576   30.2939 H         1 VG31448     0.0000 
     70 H          33.6504   -1.4538   38.4643 H         1 VG31448     0.0000 
     71 H          32.6168   -2.8334   38.8744 H         1 VG31448     0.0000 
     72 H          32.7677   -2.2195   41.2905 H         1 VG31448     0.0000 
     73 H          33.8175   -0.8540   40.8742 H         1 VG31448     0.0000 
     74 H          35.5755   -2.4378   40.1014 H         1 VG31448     0.0000 
     75 H          34.5253   -3.8055   40.5094 H         1 VG31448     0.0000 
     76 H          34.5251   -3.0929   42.8934 H         1 VG31448     0.0000 
     77 H          35.5775   -1.7271   42.4846 H         1 VG31448     0.0000 
     78 H          30.1853    5.7735   36.3295 H         1 VG31448     0.0000 
     79 H          29.9970    7.3385   36.6483 H         1 VG31448     0.0000 
     80 H          28.8073    6.3042   36.9663 H         1 VG31448     0.0000 
     81 H          37.3065   -3.3639   41.8152 H         1 VG31448     0.0000 
     82 H          36.8845   -3.6310   43.3438 H         1 VG31448     0.0000 
     83 H          36.3512   -4.6049   42.1806 H         1 VG31448     0.0000 
     84 H          27.2751    4.1173   31.5264 H         1 VG31448     0.0000 
@<TRIPOS>BOND
     1    2    1 am   
     2    6    1 2    
     3    7    1 1    
     4    3    2 1    
     5   41    2 1    
     6    4    3 1    
     7    5    3 1    
     8   42    3 1    
     9   19    4 1    
    10   21    4 1    
    11   43    4 1    
    12   13    5 1    
    13   44    5 1    
    14   45    5 1    
    15    8    7 ar   
    16   12    7 ar   
    17    9    8 ar   
    18   46    8 1    
    19   10    9 ar   
    20   47    9 1    
    21   11   10 ar   
    22   48   10 1    
    23   12   11 ar   
    24   23   11 1    
    25   49   12 1    
    26   14   13 ar   
    27   18   13 ar   
    28   15   14 ar   
    29   50   14 1    
    30   16   15 ar   
    31   51   15 1    
    32   17   16 ar   
    33   52   16 1    
    34   18   17 ar   
    35   53   17 1    
    36   54   18 1    
    37   84   19 1    
    38   22   20 1    
    39   24   20 1    
    40   25   20 1    
    41   55   20 1    
    42   22   21 1    
    43   56   21 1    
    44   57   21 1    
    45   34   23 1    
    46   39   23 2    
    47   40   23 2    
    48   78   24 1    
    49   79   24 1    
    50   80   24 1    
    51   26   25 am   
    52   28   25 2    
    53   27   26 1    
    54   58   26 1    
    55   29   27 1    
    56   33   27 1    
    57   59   27 1    
    58   30   29 1    
    59   60   29 1    
    60   61   29 1    
    61   31   30 1    
    62   62   30 1    
    63   63   30 1    
    64   32   31 1    
    65   64   31 1    
    66   65   31 1    
    67   33   32 1    
    68   66   32 1    
    69   67   32 1    
    70   68   33 1    
    71   69   33 1    
    72   35   34 1    
    73   70   34 1    
    74   71   34 1    
    75   36   35 1    
    76   72   35 1    
    77   73   35 1    
    78   37   36 1    
    79   74   36 1    
    80   75   36 1    
    81   38   37 1    
    82   76   37 1    
    83   77   37 1    
    84   81   38 1    
    85   82   38 1    
    86   83   38 1    
@<TRIPOS>SUBSTRUCTURE
     1 VG31448     1 GROUP   
@<TRIPOS>SET

