#    Name: 3IB8_1_CAVITY_N1_6.mol2
#    Modification time : Tue Mar 11 02:04:42 2014

@<TRIPOS>MOLECULE
3IB8_1_CAVITY_N1_6.mol2
   81     0     6     0     0
SMALL
NO_CHARGES


@<TRIPOS>ATOM
      1 CA         25.9591    3.5336   13.6823 C.3       5 GLY6        0.0000 
      2 OG         27.2990    2.8930   13.4718 O.2       1 SER1        0.0000 
      3 CA         22.6093    3.6020   13.5285 C.3       5 GLY6        0.0000 
      4 CA         23.9492    2.9615   13.3180 C.3       5 GLY6        0.0000 
      5 DU         25.2891    2.3209   13.1075 H         6 CUB7        0.0000 
      6 DU         26.6290    1.6803   12.8970 H         6 CUB7        0.0000 
      7 CA         21.9392    2.3893   12.9537 C.3       5 GLY6        0.0000 
      8 CA         23.3546    5.4222   12.7339 C.3       5 GLY6        0.0000 
      9 CA         24.6945    4.7817   12.5234 C.3       5 GLY6        0.0000 
     10 N          26.0344    4.1411   12.3129 N.2       2 ALA2        0.0000 
     11 CA         27.3743    3.5005   12.1024 C.3       5 GLY6        0.0000 
     12 OG         22.6845    4.2095   12.1591 O.2       1 SER1        0.0000 
     13 DU         24.0245    3.5690   11.9486 H         6 CUB7        0.0000 
     14 DU         25.3644    2.9284   11.7381 H         6 CUB7        0.0000 
     15 DU         26.7043    2.2878   11.5275 H         6 CUB7        0.0000 
     16 CA         28.0442    1.6473   11.3170 C.3       5 GLY6        0.0000 
     17 CA         29.3841    1.0067   11.1065 C.3       5 GLY6        0.0000 
     18 OG         22.0145    2.9968   11.5843 O.2       1 SER1        0.0000 
     19 DU         23.3544    2.3563   11.3737 H         6 CUB7        0.0000 
     20 CA         28.7141   -0.2060   10.5317 C.3       5 GLY6        0.0000 
     21 CA         22.7600    7.8830   12.1498 C.3       5 GLY6        0.0000 
     22 O          24.0999    7.2424   11.9393 O.2       2 ALA2        0.0000 
     23 CA         25.4398    6.6019   11.7288 C.3       5 GLY6        0.0000 
     24 CA         26.7797    5.9613   11.5183 C.3       5 GLY6        0.0000 
     25 OG         22.0900    6.6703   11.5750 O.2       1 SER1        0.0000 
     26 OG         23.4299    6.0297   11.3645 O.2       1 SER1        0.0000 
     27 DU         24.7698    5.3892   11.1540 H         6 CUB7        0.0000 
     28 CA         26.1097    4.7486   10.9435 C.3       5 GLY6        0.0000 
     29 O          22.7598    4.8170   10.7897 O.2       2 ALA2        0.0000 
     30 DU         24.0997    4.1765   10.5792 H         6 CUB7        0.0000 
     31 DU         25.4397    3.5359   10.3687 H         6 CUB7        0.0000 
     32 CA         26.7796    2.8954   10.1581 C.3       5 GLY6        0.0000 
     33 CA         28.1195    2.2548    9.9476 C.3       5 GLY6        0.0000 
     34 CA         29.4594    1.6142    9.7371 C.3       5 GLY6        0.0000 
     35 O          23.4297    2.9638   10.0043 O.2       2 ALA2        0.0000 
     36 DU         24.7696    2.3232    9.7938 H         6 CUB7        0.0000 
     37 DU         26.1095    1.6827    9.5833 H         6 CUB7        0.0000 
     38 DU         27.4494    1.0421    9.3728 H         6 CUB7        0.0000 
     39 O          28.7893    0.4015    9.1623 O.2       2 ALA2        0.0000 
     40 OG         22.7596    1.7511    9.4295 O.2       1 SER1        0.0000 
     41 OG         24.0996    1.1105    9.2190 O.2       1 SER1        0.0000 
     42 DU         25.4395    0.4700    9.0085 H         6 CUB7        0.0000 
     43 N          26.7794   -0.1706    8.7980 N.2       2 ALA2        0.0000 
     44 OG         23.4295   -0.1022    8.6442 O.2       1 SER1        0.0000 
     45 OG         24.7694   -0.7427    8.4337 O.2       1 SER1        0.0000 
     46 CZ         22.7595   -1.3149    8.0694 C.ar      4 PHE5        0.0000 
     47 CA         22.8353    8.4905   10.7804 C.3       5 GLY6        0.0000 
     48 CA         24.1752    7.8499   10.5699 C.3       5 GLY6        0.0000 
     49 CA         25.5151    7.2094   10.3594 C.3       5 GLY6        0.0000 
     50 CA         26.8550    6.5688   10.1489 C.3       5 GLY6        0.0000 
     51 CA         22.1652    7.2778   10.2056 C.3       5 GLY6        0.0000 
     52 O          23.5052    6.6372    9.9951 O.2       2 ALA2        0.0000 
     53 DU         24.8451    5.9967    9.7846 H         6 CUB7        0.0000 
     54 CA         26.1850    5.3561    9.5741 C.3       5 GLY6        0.0000 
     55 CA         27.5249    4.7156    9.3636 C.3       5 GLY6        0.0000 
     56 O          22.8351    5.4245    9.4203 O.2       2 ALA2        0.0000 
     57 O          24.1750    4.7840    9.2098 O.2       2 ALA2        0.0000 
     58 DU         25.5149    4.1434    8.9992 H         6 CUB7        0.0000 
     59 CA         26.8548    3.5029    8.7887 C.3       5 GLY6        0.0000 
     60 O          28.1948    2.8623    8.5782 O.2       2 ALA2        0.0000 
     61 O          23.5050    3.5713    8.6349 O.2       2 ALA2        0.0000 
     62 DU         24.8449    2.9307    8.4244 H         6 CUB7        0.0000 
     63 DU         26.1848    2.2902    8.2139 H         6 CUB7        0.0000 
     64 N          27.5247    1.6496    8.0034 N.2       2 ALA2        0.0000 
     65 OG         24.1748    1.7180    7.8496 O.2       1 SER1        0.0000 
     66 N          25.5148    1.0775    7.6391 N.2       2 ALA2        0.0000 
     67 OG         24.8447   -0.1352    7.0643 O.2       1 SER1        0.0000 
     68 CA         24.2505    8.4574    9.2005 C.3       5 GLY6        0.0000 
     69 CA         25.5904    7.8169    8.9900 C.3       5 GLY6        0.0000 
     70 N          23.5804    7.2447    8.6257 N.2       2 ALA2        0.0000 
     71 N          24.9203    6.6042    8.4152 N.2       2 ALA2        0.0000 
     72 N          26.2603    5.9636    8.2047 N.2       2 ALA2        0.0000 
     73 N          22.9104    6.0320    8.0509 N.2       2 ALA2        0.0000 
     74 N          24.2503    5.3915    7.8404 N.2       2 ALA2        0.0000 
     75 N          25.5902    4.7509    7.6298 N.2       2 ALA2        0.0000 
     76 CA         26.9301    4.1104    7.4193 C.3       5 GLY6        0.0000 
     77 CA         23.5803    4.1788    7.2655 C.3       5 GLY6        0.0000 
     78 N          24.9202    3.5382    7.0550 N.2       2 ALA2        0.0000 
     79 OD1        26.2601    2.8977    6.8445 O.3       3 ASP3        0.0000 
     80 OG         24.2501    2.3255    6.4802 O.2       1 SER1        0.0000 
     81 OD1        25.5900    1.6850    6.2697 O.3       3 ASP3        0.0000 
@<TRIPOS>BOND
@<TRIPOS>SUBSTRUCTURE
     1 SER1        2 GROUP   
     2 ALA2       10 GROUP   
     3 ASP3       79 GROUP   
     4 PHE5       46 GROUP   
     5 GLY6        1 GROUP   
     6 CUB7        5 GROUP   
@<TRIPOS>SET

