#    Name: 3ib8_AMP_1_INTS_M
#    Modification time : Tue Mar 25 16:10:12 2014

@<TRIPOS>MOLECULE
3ib8_AMP_1_INTS_M
   29     0     9     0     0
SMALL
NO_CHARGES


@<TRIPOS>ATOM
      1 Zn         28.4670    3.4475    5.3215 Zn        2 ZIC7        0.0000 
      2 Zn         28.1120    2.8290    6.1360 Zn        8 ZIL7        0.0000 
      3 Zn         28.8220    4.0660    4.5070 Zn        5 ZIP7        0.0000 
      4 N          29.4255    2.3135    6.2845 N.am      1 SEC2        0.0000 
      5 N          28.1120    2.8290    6.1360 N.am      7 SEL2        0.0000 
      6 N          30.7390    1.7980    6.4330 N.am      4 SEP2        0.0000 
      7 N          27.4125    0.2240    6.5130 N.am      1 SEC2        0.0000 
      8 N          26.8310    1.0640    7.3390 N.am      7 SEL2        0.0000 
      9 N          27.9940   -0.6160    5.6870 N.am      4 SEP2        0.0000 
     10 Zn         25.8630    2.4055    4.2120 Zn        2 ZIC7        0.0000 
     11 Zn         25.9290    1.8470    5.1680 Zn        8 ZIL7        0.0000 
     12 Zn         25.7970    2.9640    3.2560 Zn        5 ZIP7        0.0000 
     13 CA         27.9265    4.8335    9.5730 C.3       3 GLC5        0.0000 
     14 CA         26.4620    4.2270    8.0670 C.3       9 GLL5        0.0000 
     15 CA         29.3910    5.4400   11.0790 C.3       6 GLP5        0.0000 
     16 CA         27.6540    5.7145   10.4065 C.3       3 GLC5        0.0000 
     17 CA         25.9170    5.9890    9.7340 C.3       9 GLL5        0.0000 
     18 CA         26.5245    3.2165   14.9520 C.3       3 GLC5        0.0000 
     19 CA         27.1830    2.9100   13.0090 C.3       9 GLL5        0.0000 
     20 CA         25.8660    3.5230   16.8950 C.3       6 GLP5        0.0000 
     21 CA         28.2870    4.1750   12.0440 C.3       3 GLC5        0.0000 
     22 CA         24.6190    4.6275   13.8905 C.3       3 GLC5        0.0000 
     23 CA         25.0140    3.2870   12.1930 C.3       9 GLL5        0.0000 
     24 CA         24.2240    5.9680   15.5880 C.3       6 GLP5        0.0000 
     25 CA         26.0498    7.3485   11.5675 C.3       3 GLC5        0.0000 
     26 CA         24.8220    6.0250   10.7840 C.3       9 GLL5        0.0000 
     27 CA         26.7300    8.6900   12.8760 C.3       6 GLP5        0.0000 
     28 CA         25.4322    2.7127   15.2170 C.3       3 GLC5        0.0000 
     29 CA         24.5030    2.2430   13.1050 C.3       9 GLL5        0.0000 
@<TRIPOS>BOND
@<TRIPOS>SUBSTRUCTURE
     1 SEC2        4 GROUP        1 X    SEC  0     ROOT SEC X 2
     2 ZIC7        1 GROUP        1 X    ZIC  0     **** ZIC X 5
     3 GLC5       13 GROUP        1 X    GLC  0     **** GLC X 6
     4 SEP2        6 GROUP        1 Y    SEP  0     ROOT SEP Y 9
     5 ZIP7        3 GROUP        1 Y    ZIP  0     **** ZIP Y 12
     6 GLP5       15 GROUP        1 Y    GLP  0     **** GLP Y 13
     7 SEL2        5 GROUP        1 Z    SEL  0     ROOT SEL Z 16
     8 ZIL7        2 GROUP        1 Z    ZIL  0     **** ZIL Z 19
     9 GLL5       14 GROUP        1 Z    GLL  0     **** GLL Z 20
@<TRIPOS>SET

