#    Name: 3ib8_AMP_1_ligand
#    Modification time : Tue Mar 25 16:10:12 2014

@<TRIPOS>MOLECULE
3ib8_AMP_1_ligand
   35    37     1     0     0
SMALL
NO_CHARGES


@<TRIPOS>ATOM
      1 P          26.7400    2.2420    6.3630 P.3       1 AMP666      0.0000 
      2 O1P        28.1120    2.8290    6.1360 O.co2     1 AMP666      0.0000 
      3 O2P        26.8310    1.0640    7.3390 O.co2     1 AMP666      0.0000 
      4 O3P        25.9290    1.8470    5.1680 O.co2     1 AMP666      0.0000 
      5 O5'        25.8700    3.3430    7.1340 O.3       1 AMP666      0.0000 
      6 C5'        26.4620    4.2270    8.0670 C.3       1 AMP666      0.0000 
      7 C4'        25.3600    5.0970    8.6420 C.3       1 AMP666      0.0000 
      8 O4'        24.3860    4.2530    9.2500 O.3       1 AMP666      0.0000 
      9 C3'        25.9170    5.9890    9.7340 C.3       1 AMP666      0.0000 
     10 O3'        26.2490    7.2720    9.1890 O.3       1 AMP666      0.0000 
     11 C2'        24.8220    6.0250   10.7840 C.3       1 AMP666      0.0000 
     12 O2'        24.0530    7.2190   10.6440 O.3       1 AMP666      0.0000 
     13 C1'        23.9370    4.8160   10.4790 C.3       1 AMP666      0.0000 
     14 N9         23.9560    3.7550   11.5230 N.pl3     1 AMP666      0.0000 
     15 C8         22.8640    3.0800   11.9450 C.2       1 AMP666      0.0000 
     16 N7         23.1740    2.1630   12.8950 N.2       1 AMP666      0.0000 
     17 C5         24.5030    2.2430   13.1050 C.ar      1 AMP666      0.0000 
     18 C6         25.4940    1.5620   13.9730 C.ar      1 AMP666      0.0000 
     19 N6         25.1290    0.5910   14.8460 N.pl3     1 AMP666      0.0000 
     20 N1         26.7880    1.9480   13.8650 N.ar      1 AMP666      0.0000 
     21 C2         27.1830    2.9100   13.0090 C.ar      1 AMP666      0.0000 
     22 N3         26.3390    3.5640   12.1960 N.ar      1 AMP666      0.0000 
     23 C4         25.0140    3.2870   12.1930 C.ar      1 AMP666      0.0000 
     24 H          27.2001    4.8816    7.6022 H         1 AMP666      0.0000 
     25 H          26.9373    3.6958    8.8925 H         1 AMP666      0.0000 
     26 H          24.9421    5.6977    7.8768 H         1 AMP666      0.0000 
     27 H          26.7690    5.4837   10.1532 H         1 AMP666      0.0000 
     28 H          25.2475    5.9032   11.7371 H         1 AMP666      0.0000 
     29 H          22.9146    5.1785   10.3560 H         1 AMP666      0.0000 
     30 H          21.9513    3.2335   11.6051 H         1 AMP666      0.0000 
     31 H          25.8615    0.2060   15.4074 H         1 AMP666      0.0000 
     32 H          24.1596    0.3457   14.8513 H         1 AMP666      0.0000 
     33 H          28.2180    3.1630   12.9773 H         1 AMP666      0.0000 
     34 H          27.0996    7.5343    9.6446 H         1 AMP666      0.0000 
     35 H          24.4942    7.7255    9.9031 H         1 AMP666      0.0000 
@<TRIPOS>BOND
     1    2    1 ar   
     2    3    1 ar   
     3    4    1 ar   
     4    5    1 1    
     5    6    5 1    
     6    7    6 1    
     7   24    6 1    
     8   25    6 1    
     9    8    7 1    
    10    9    7 1    
    11   26    7 1    
    12   13    8 1    
    13   10    9 1    
    14   11    9 1    
    15   27    9 1    
    16   34   10 1    
    17   12   11 1    
    18   13   11 1    
    19   28   11 1    
    20   35   12 1    
    21   14   13 1    
    22   29   13 1    
    23   15   14 1    
    24   23   14 1    
    25   16   15 2    
    26   30   15 1    
    27   17   16 1    
    28   18   17 ar   
    29   23   17 ar   
    30   19   18 1    
    31   20   18 ar   
    32   31   19 1    
    33   32   19 1    
    34   21   20 ar   
    35   22   21 ar   
    36   33   21 1    
    37   23   22 ar   
@<TRIPOS>SUBSTRUCTURE
     1 AMP666      1 GROUP   
@<TRIPOS>SET

