#    Name: 2W5Z_1_CAVITY_N1_ALL.mol2
#    Modification time : Mon Mar 10 18:52:57 2014

@<TRIPOS>MOLECULE
2W5Z_1_CAVITY_N1_ALL.mol2
   96     0     5     0     0
SMALL
NO_CHARGES


@<TRIPOS>ATOM
      1 DU        -17.4458   18.4791  -17.2904 H         5 CUB7        0.0000 
      2 CZ        -18.2697   17.5516  -16.4473 C.ar      3 PHE5        0.0000 
      3 OG        -16.6708   18.4222  -19.2643 O.2       1 SER1        0.0000 
      4 DU        -17.4948   17.4947  -18.4212 H         5 CUB7        0.0000 
      5 CZ        -18.3187   16.5672  -17.5781 C.ar      3 PHE5        0.0000 
      6 OG        -17.5438   16.5104  -19.5520 O.2       1 SER1        0.0000 
      7 DU        -18.3677   15.5829  -18.7088 H         5 CUB7        0.0000 
      8 N         -16.1933   17.8304  -16.7800 N.2       2 ALA2        0.0000 
      9 OG        -16.2423   16.8461  -17.9108 O.2       1 SER1        0.0000 
     10 CZ        -17.0662   15.9185  -17.0677 C.ar      3 PHE5        0.0000 
     11 CZ        -17.8902   14.9910  -16.2246 C.ar      3 PHE5        0.0000 
     12 OG        -16.2913   15.8617  -19.0416 O.2       1 SER1        0.0000 
     13 DU        -17.1152   14.9342  -18.1984 H         5 CUB7        0.0000 
     14 CZ        -17.9392   14.0067  -17.3553 C.ar      3 PHE5        0.0000 
     15 N         -18.7631   13.0792  -16.5122 N.2       2 ALA2        0.0000 
     16 CZ        -17.1642   13.9498  -19.3292 C.ar      3 PHE5        0.0000 
     17 DU        -17.9882   13.0223  -18.4861 H         5 CUB7        0.0000 
     18 CZ        -17.2132   12.9655  -20.4600 C.ar      3 PHE5        0.0000 
     19 DU        -18.0372   12.0380  -19.6169 H         5 CUB7        0.0000 
     20 CZ        -17.2623   11.9811  -21.5908 C.ar      3 PHE5        0.0000 
     21 CZ        -18.0862   11.0536  -20.7477 C.ar      3 PHE5        0.0000 
     22 N         -14.9898   16.1974  -17.4004 N.2       2 ALA2        0.0000 
     23 N         -15.8137   15.2699  -16.5573 N.2       2 ALA2        0.0000 
     24 OG        -15.0388   15.2130  -18.5312 O.2       1 SER1        0.0000 
     25 DU        -15.8628   14.2855  -17.6881 H         5 CUB7        0.0000 
     26 CZ        -16.6867   13.3580  -16.8449 C.ar      3 PHE5        0.0000 
     27 CZ        -15.0878   14.2287  -19.6619 C.ar      3 PHE5        0.0000 
     28 DU        -15.9118   13.3012  -18.8188 H         5 CUB7        0.0000 
     29 N         -16.7357   12.3737  -17.9757 N.2       2 ALA2        0.0000 
     30 N         -17.5596   11.4461  -17.1326 N.2       2 ALA2        0.0000 
     31 CZ        -15.1368   13.2443  -20.7927 C.ar      3 PHE5        0.0000 
     32 DU        -15.9608   12.3168  -19.9496 H         5 CUB7        0.0000 
     33 N         -16.7847   11.3893  -19.1065 N.2       2 ALA2        0.0000 
     34 CZ        -15.1858   12.2600  -21.9235 C.ar      3 PHE5        0.0000 
     35 CZ        -16.0098   11.3325  -21.0804 C.ar      3 PHE5        0.0000 
     36 N         -16.8337   10.4050  -20.2373 N.2       2 ALA2        0.0000 
     37 N         -17.6576    9.4774  -19.3941 N.2       2 ALA2        0.0000 
     38 CZ        -15.2348   11.2756  -23.0543 C.ar      3 PHE5        0.0000 
     39 CZ        -16.0588   10.3481  -22.2112 C.ar      3 PHE5        0.0000 
     40 CZ        -16.8827    9.4206  -21.3680 C.ar      3 PHE5        0.0000 
     41 N         -17.7066    8.4931  -20.5249 N.2       2 ALA2        0.0000 
     42 N         -15.2838   10.2913  -24.1850 N.2       2 ALA2        0.0000 
     43 CZ        -16.1078    9.3638  -23.3419 C.ar      3 PHE5        0.0000 
     44 CZ        -16.1568    8.3794  -24.4727 C.ar      3 PHE5        0.0000 
     45 N         -13.7863   14.5644  -18.0208 N.2       2 ALA2        0.0000 
     46 N         -14.6103   13.6368  -17.1777 N.2       2 ALA2        0.0000 
     47 OG        -15.4342   12.7093  -16.3345 O.2       1 SER1        0.0000 
     48 CZ        -13.8353   13.5800  -19.1515 C.ar      3 PHE5        0.0000 
     49 DU        -14.6593   12.6525  -18.3084 H         5 CUB7        0.0000 
     50 N         -15.4832   11.7250  -17.4653 N.2       2 ALA2        0.0000 
     51 CZ        -13.8843   12.5957  -20.2823 C.ar      3 PHE5        0.0000 
     52 DU        -14.7083   11.6681  -19.4392 H         5 CUB7        0.0000 
     53 N         -15.5322   10.7406  -18.5961 N.2       2 ALA2        0.0000 
     54 CZ        -13.9333   11.6113  -21.4131 C.ar      3 PHE5        0.0000 
     55 DU        -14.7573   10.6838  -20.5700 H         5 CUB7        0.0000 
     56 N         -15.5812    9.7563  -19.7269 N.2       2 ALA2        0.0000 
     57 N         -13.9823   10.6270  -22.5439 N.2       2 ALA2        0.0000 
     58 DU        -14.8063    9.6994  -21.7008 H         5 CUB7        0.0000 
     59 DU        -15.6302    8.7719  -20.8576 H         5 CUB7        0.0000 
     60 N         -16.4542    7.8444  -20.0145 N.2       2 ALA2        0.0000 
     61 N         -14.0313    9.6426  -23.6746 N.2       2 ALA2        0.0000 
     62 N         -14.8553    8.7151  -22.8315 N.2       2 ALA2        0.0000 
     63 DU        -15.6792    7.7876  -21.9884 H         5 CUB7        0.0000 
     64 CA        -16.5032    6.8601  -21.1453 C.3       4 GLY6        0.0000 
     65 N         -14.9043    7.7307  -23.9623 N.2       2 ALA2        0.0000 
     66 OG        -13.4068   12.0038  -17.7980 O.2       1 SER1        0.0000 
     67 CZ        -14.2307   11.0763  -16.9549 C.ar      3 PHE5        0.0000 
     68 OG        -12.6318   11.9470  -19.7719 O.2       1 SER1        0.0000 
     69 CZ        -13.4558   11.0195  -18.9288 C.ar      3 PHE5        0.0000 
     70 N         -14.2797   10.0920  -18.0857 N.2       2 ALA2        0.0000 
     71 CZ        -11.8569   11.8902  -21.7458 C.ar      3 PHE5        0.0000 
     72 CZ        -12.6809   10.9626  -20.9027 C.ar      3 PHE5        0.0000 
     73 CZ        -13.5048   10.0351  -20.0596 C.ar      3 PHE5        0.0000 
     74 CZ        -14.3287    9.1076  -19.2165 C.ar      3 PHE5        0.0000 
     75 CA        -11.9059   10.9058  -22.8766 C.3       4 GLY6        0.0000 
     76 CZ        -12.7299    9.9783  -22.0335 C.ar      3 PHE5        0.0000 
     77 CZ        -13.5538    9.0508  -21.1904 C.ar      3 PHE5        0.0000 
     78 CZ        -14.3777    8.1233  -20.3472 C.ar      3 PHE5        0.0000 
     79 O         -15.2017    7.1958  -19.5041 O.2       2 ALA2        0.0000 
     80 N         -11.9549    9.9214  -24.0074 N.2       2 ALA2        0.0000 
     81 N         -12.7789    8.9939  -23.1643 N.2       2 ALA2        0.0000 
     82 CZ        -13.6028    8.0664  -22.3211 C.ar      3 PHE5        0.0000 
     83 CZ        -14.4267    7.1389  -21.4780 C.ar      3 PHE5        0.0000 
     84 N         -12.8279    8.0096  -24.2950 N.2       2 ALA2        0.0000 
     85 DU        -13.6518    7.0821  -23.4519 H         5 CUB7        0.0000 
     86 N          -9.8295   11.1846  -23.2093 N.2       2 ALA2        0.0000 
     87 CZ        -10.6534   10.2571  -22.3662 C.ar      3 PHE5        0.0000 
     88 N         -10.7024    9.2728  -23.4970 N.2       2 ALA2        0.0000 
     89 CZ        -11.5264    8.3453  -22.6539 C.ar      3 PHE5        0.0000 
     90 N          -9.9275    9.2159  -25.4709 N.2       2 ALA2        0.0000 
     91 CA        -10.7514    8.2884  -24.6277 C.3       4 GLY6        0.0000 
     92 DU        -11.5754    7.3609  -23.7846 H         5 CUB7        0.0000 
     93 N          -8.6260    9.5516  -23.8297 N.2       2 ALA2        0.0000 
     94 OG         -9.4500    8.6241  -22.9866 O.2       1 SER1        0.0000 
     95 DU         -9.4990    7.6398  -24.1174 H         5 CUB7        0.0000 
     96 CZ        -10.3229    6.7122  -23.2742 C.ar      3 PHE5        0.0000 
@<TRIPOS>BOND
@<TRIPOS>SUBSTRUCTURE
     1 SER1        3 GROUP   
     2 ALA2        8 GROUP   
     3 PHE5        2 GROUP   
     4 GLY6       64 GROUP   
     5 CUB7        1 GROUP   
@<TRIPOS>SET

