#    Name: 2W5Z_1_CAVITY_N1_6.mol2
#    Modification time : Mon Mar 10 18:52:57 2014

@<TRIPOS>MOLECULE
2W5Z_1_CAVITY_N1_6.mol2
   40     0     4     0     0
SMALL
NO_CHARGES


@<TRIPOS>ATOM
      1 DU        -17.4458   18.4791  -17.2904 H         4 CUB7        0.0000 
      2 CZ        -18.2697   17.5516  -16.4473 C.ar      3 PHE5        0.0000 
      3 OG        -16.6708   18.4222  -19.2643 O.2       1 SER1        0.0000 
      4 DU        -17.4948   17.4947  -18.4212 H         4 CUB7        0.0000 
      5 CZ        -18.3187   16.5672  -17.5781 C.ar      3 PHE5        0.0000 
      6 OG        -17.5438   16.5104  -19.5520 O.2       1 SER1        0.0000 
      7 DU        -18.3677   15.5829  -18.7088 H         4 CUB7        0.0000 
      8 N         -16.1933   17.8304  -16.7800 N.2       2 ALA2        0.0000 
      9 OG        -16.2423   16.8461  -17.9108 O.2       1 SER1        0.0000 
     10 CZ        -17.0662   15.9185  -17.0677 C.ar      3 PHE5        0.0000 
     11 CZ        -17.8902   14.9910  -16.2246 C.ar      3 PHE5        0.0000 
     12 OG        -16.2913   15.8617  -19.0416 O.2       1 SER1        0.0000 
     13 DU        -17.1152   14.9342  -18.1984 H         4 CUB7        0.0000 
     14 CZ        -17.9392   14.0067  -17.3553 C.ar      3 PHE5        0.0000 
     15 N         -18.7631   13.0792  -16.5122 N.2       2 ALA2        0.0000 
     16 CZ        -17.1642   13.9498  -19.3292 C.ar      3 PHE5        0.0000 
     17 DU        -17.9882   13.0223  -18.4861 H         4 CUB7        0.0000 
     18 CZ        -17.2132   12.9655  -20.4600 C.ar      3 PHE5        0.0000 
     19 DU        -18.0372   12.0380  -19.6169 H         4 CUB7        0.0000 
     20 CZ        -17.2623   11.9811  -21.5908 C.ar      3 PHE5        0.0000 
     21 N         -14.9898   16.1974  -17.4004 N.2       2 ALA2        0.0000 
     22 N         -15.8137   15.2699  -16.5573 N.2       2 ALA2        0.0000 
     23 OG        -15.0388   15.2130  -18.5312 O.2       1 SER1        0.0000 
     24 DU        -15.8628   14.2855  -17.6881 H         4 CUB7        0.0000 
     25 CZ        -16.6867   13.3580  -16.8449 C.ar      3 PHE5        0.0000 
     26 CZ        -15.0878   14.2287  -19.6619 C.ar      3 PHE5        0.0000 
     27 DU        -15.9118   13.3012  -18.8188 H         4 CUB7        0.0000 
     28 N         -16.7357   12.3737  -17.9757 N.2       2 ALA2        0.0000 
     29 N         -17.5596   11.4461  -17.1326 N.2       2 ALA2        0.0000 
     30 CZ        -15.1368   13.2443  -20.7927 C.ar      3 PHE5        0.0000 
     31 DU        -15.9608   12.3168  -19.9496 H         4 CUB7        0.0000 
     32 N         -16.7847   11.3893  -19.1065 N.2       2 ALA2        0.0000 
     33 CZ        -15.1858   12.2600  -21.9235 C.ar      3 PHE5        0.0000 
     34 N         -13.7863   14.5644  -18.0208 N.2       2 ALA2        0.0000 
     35 N         -14.6103   13.6368  -17.1777 N.2       2 ALA2        0.0000 
     36 OG        -15.4342   12.7093  -16.3345 O.2       1 SER1        0.0000 
     37 CZ        -13.8353   13.5800  -19.1515 C.ar      3 PHE5        0.0000 
     38 DU        -14.6593   12.6525  -18.3084 H         4 CUB7        0.0000 
     39 N         -15.4832   11.7250  -17.4653 N.2       2 ALA2        0.0000 
     40 CZ        -13.8843   12.5957  -20.2823 C.ar      3 PHE5        0.0000 
@<TRIPOS>BOND
@<TRIPOS>SUBSTRUCTURE
     1 SER1        3 GROUP   
     2 ALA2        8 GROUP   
     3 PHE5        2 GROUP   
     4 CUB7        1 GROUP   
@<TRIPOS>SET

