#    Name: 2w5z_SAH_1_INTS_M
#    Modification time : Tue Mar 25 03:41:47 2014

@<TRIPOS>MOLECULE
2w5z_SAH_1_INTS_M
   57     0     9     0     0
SMALL
NO_CHARGES


@<TRIPOS>ATOM
      1 O         -17.0590   22.4770  -18.3760 O.2       1 ALC1        0.0000 
      2 O         -15.9670   21.8290  -17.5970 O.2       7 ALL1        0.0000 
      3 O         -18.1510   23.1250  -19.1550 O.2       4 ALP1        0.0000 
      4 O         -14.8405   22.3170  -16.8300 O.2       1 ALC1        0.0000 
      5 O         -13.7140   22.8050  -16.0630 O.2       4 ALP1        0.0000 
      6 O         -15.1075   21.4305  -18.6440 O.2       1 ALC1        0.0000 
      7 O         -14.2480   21.0320  -19.6910 O.2       4 ALP1        0.0000 
      8 CA        -17.1660   16.7560  -15.6475 C.3       3 GLC5        0.0000 
      9 CA        -16.7350   17.4420  -17.4870 C.3       9 GLL5        0.0000 
     10 CA        -17.5970   16.0700  -13.8080 C.3       6 GLP5        0.0000 
     11 N         -18.1770   19.2640  -13.9045 N.am      2 SEC2        0.0000 
     12 N         -17.6410   20.5020  -14.7700 N.am      8 SEL2        0.0000 
     13 N         -18.7130   18.0260  -13.0390 N.am      5 SEP2        0.0000 
     14 N         -16.3570   23.7590  -15.4640 N.am      2 SEC2        0.0000 
     15 N         -17.2350   22.6110  -15.3580 N.am      8 SEL2        0.0000 
     16 N         -15.4790   24.9070  -15.5700 N.am      5 SEP2        0.0000 
     17 CA        -16.3290   16.2925  -20.7245 C.3       3 GLC5        0.0000 
     18 CA        -17.3300   17.0620  -19.1670 C.3       9 GLL5        0.0000 
     19 CA        -15.3280   15.5230  -22.2820 C.3       6 GLP5        0.0000 
     20 CA        -17.0820   16.6330  -21.6735 C.3       3 GLC5        0.0000 
     21 CA        -18.8360   17.7430  -21.0650 C.3       9 GLL5        0.0000 
     22 CA        -18.1425   21.8170  -20.7465 C.3       3 GLC5        0.0000 
     23 CA        -18.2190   20.0520  -21.0400 C.3       9 GLL5        0.0000 
     24 CA        -18.0660   23.5820  -20.4530 C.3       6 GLP5        0.0000 
     25 N         -13.6560   19.2465  -22.8675 N.am      2 SEC2        0.0000 
     26 N         -14.8990   19.9300  -22.8530 N.am      8 SEL2        0.0000 
     27 N         -12.4130   18.5630  -22.8820 N.am      5 SEP2        0.0000 
     28 CA        -14.8525   21.0995  -27.1680 C.3       3 GLC5        0.0000 
     29 CA        -15.3700   21.3030  -25.1570 C.3       9 GLL5        0.0000 
     30 CA        -14.3350   20.8960  -29.1790 C.3       6 GLP5        0.0000 
     31 O         -12.8575   20.6730  -25.3710 O.2       1 ALC1        0.0000 
     32 O         -14.0380   21.1660  -25.7260 O.2       7 ALL1        0.0000 
     33 O         -11.6770   20.1800  -25.0160 O.2       4 ALP1        0.0000 
     34 N         -16.2245   22.8655  -26.9665 N.am      2 SEC2        0.0000 
     35 N         -16.3920   22.0230  -25.8990 N.am      8 SEL2        0.0000 
     36 N         -16.0570   23.7080  -28.0340 N.am      5 SEP2        0.0000 
     37 CA        -17.3950   21.9980  -27.2865 C.3       3 GLC5        0.0000 
     38 CA        -17.7680   22.1660  -25.3230 C.3       9 GLL5        0.0000 
     39 CA        -17.0220   21.8300  -29.2500 C.3       6 GLP5        0.0000 
     40 CA        -16.9570   23.9775  -26.0155 C.3       3 GLC5        0.0000 
     41 CA        -16.1460   25.7890  -26.7080 C.3       6 GLP5        0.0000 
     42 CA        -18.2745   20.2405  -25.7205 C.3       3 GLC5        0.0000 
     43 CA        -18.7810   18.3150  -26.1180 C.3       6 GLP5        0.0000 
     44 CA        -17.9205   19.5785  -24.6825 C.3       3 GLC5        0.0000 
     45 CA        -17.0600   20.8420  -23.2470 C.3       9 GLL5        0.0000 
     46 CA        -13.9355   19.0167  -15.8033 C.3       3 GLC5        0.0000 
     47 CA        -15.3500   18.6270  -17.5940 C.3       9 GLL5        0.0000 
     48 CA        -12.4610   18.8630  -14.5540 C.3       6 GLP5        0.0000 
     49 CA        -14.4190   22.3630  -24.1127 C.3       3 GLC5        0.0000 
     50 CA        -15.7000   20.6990  -23.8180 C.3       9 GLL5        0.0000 
     51 CA        -13.3030   23.7250  -23.7380 C.3       6 GLP5        0.0000 
     52 CA        -16.5705   22.3473  -22.3182 C.3       3 GLC5        0.0000 
     53 CA        -16.7610   23.9240  -21.1040 C.3       6 GLP5        0.0000 
     54 CA        -14.3990   19.2055  -24.6857 C.3       3 GLC5        0.0000 
     55 CA        -13.2630   17.4100  -24.8840 C.3       6 GLP5        0.0000 
     56 CA        -15.9675   19.5270  -25.6758 C.3       3 GLC5        0.0000 
     57 CA        -16.4000   18.0530  -26.8640 C.3       6 GLP5        0.0000 
@<TRIPOS>BOND
@<TRIPOS>SUBSTRUCTURE
     1 ALC1        1 GROUP        1 X    ALC  0     ROOT ALC X 1
     2 SEC2       11 GROUP        1 X    SEC  0     **** SEC X 2
     3 GLC5        8 GROUP        1 X    GLC  0     **** GLC X 6
     4 ALP1        3 GROUP        1 Y    ALP  0     ROOT ALP Y 8
     5 SEP2       13 GROUP        1 Y    SEP  0     **** SEP Y 9
     6 GLP5       10 GROUP        1 Y    GLP  0     **** GLP Y 13
     7 ALL1        2 GROUP        1 Z    ALL  0     ROOT ALL Z 15
     8 SEL2       12 GROUP        1 Z    SEL  0     **** SEL Z 16
     9 GLL5        9 GROUP        1 Z    GLL  0     **** GLL Z 20
@<TRIPOS>SET

