#    Name: 2w5z_SAH_1_ligand
#    Modification time : Tue Mar 25 03:41:47 2014

@<TRIPOS>MOLECULE
2w5z_SAH_1_ligand
   46    48     1     0     0
SMALL
NO_CHARGES


@<TRIPOS>ATOM
      1 N         -15.9670   21.8290  -17.5970 N.4       1 SAH4971     0.0000 
      2 CA        -16.5820   20.7120  -16.8880 C.3       1 SAH4971     0.0000 
      3 CB        -15.4700   19.7140  -16.5110 C.3       1 SAH4971     0.0000 
      4 CG        -15.3500   18.6270  -17.5940 C.3       1 SAH4971     0.0000 
      5 SD        -16.7350   17.4420  -17.4870 S.3       1 SAH4971     0.0000 
      6 C         -17.2810   21.2430  -15.6240 C.2       1 SAH4971     0.0000 
      7 O         -17.6410   20.5020  -14.7700 O.co2     1 SAH4971     0.0000 
      8 OXT       -17.2350   22.6110  -15.3580 O.co2     1 SAH4971     0.0000 
      9 C5'       -17.3300   17.0620  -19.1670 C.3       1 SAH4971     0.0000 
     10 C4'       -18.3440   18.1090  -19.6630 C.3       1 SAH4971     0.0000 
     11 O4'       -17.7400   19.4470  -19.7920 O.3       1 SAH4971     0.0000 
     12 C3'       -18.8360   17.7430  -21.0650 C.3       1 SAH4971     0.0000 
     13 O3'       -19.9590   16.9030  -20.9940 O.3       1 SAH4971     0.0000 
     14 C2'       -19.2360   19.0780  -21.6300 C.3       1 SAH4971     0.0000 
     15 O2'       -20.5250   19.4180  -21.1900 O.3       1 SAH4971     0.0000 
     16 C1'       -18.2190   20.0520  -21.0400 C.3       1 SAH4971     0.0000 
     17 N9        -17.0910   20.1680  -21.9550 N.pl3     1 SAH4971     0.0000 
     18 C8        -15.7340   19.5980  -21.7080 C.2       1 SAH4971     0.0000 
     19 N7        -14.8990   19.9300  -22.8530 N.2       1 SAH4971     0.0000 
     20 C5        -15.7000   20.6990  -23.8180 C.ar      1 SAH4971     0.0000 
     21 C6        -15.3700   21.3030  -25.1570 C.ar      1 SAH4971     0.0000 
     22 N6        -14.0380   21.1660  -25.7260 N.pl3     1 SAH4971     0.0000 
     23 N1        -16.3920   22.0230  -25.8990 N.ar      1 SAH4971     0.0000 
     24 C2        -17.7680   22.1660  -25.3230 C.ar      1 SAH4971     0.0000 
     25 N3        -18.0820   21.5720  -24.0070 N.ar      1 SAH4971     0.0000 
     26 C4        -17.0600   20.8420  -23.2470 C.ar      1 SAH4971     0.0000 
     27 H         -17.2963   20.2158  -17.5004 H         1 SAH4971     0.0000 
     28 H         -15.7141   19.2498  -15.5641 H         1 SAH4971     0.0000 
     29 H         -14.5292   20.2431  -16.4298 H         1 SAH4971     0.0000 
     30 H         -14.5030   17.9967  -17.4714 H         1 SAH4971     0.0000 
     31 H         -15.4482   19.0009  -18.5841 H         1 SAH4971     0.0000 
     32 H         -17.7495   16.0892  -19.0459 H         1 SAH4971     0.0000 
     33 H         -16.4255   17.0467  -19.7315 H         1 SAH4971     0.0000 
     34 H         -19.1840   18.1365  -19.0095 H         1 SAH4971     0.0000 
     35 H         -18.0282   17.3638  -21.6147 H         1 SAH4971     0.0000 
     36 H         -19.1195   19.0642  -22.6751 H         1 SAH4971     0.0000 
     37 H         -18.6833   20.9742  -20.8613 H         1 SAH4971     0.0000 
     38 H         -15.4917   19.1280  -20.9644 H         1 SAH4971     0.0000 
     39 H         -13.2864   21.0825  -25.0716 H         1 SAH4971     0.0000 
     40 H         -13.9839   21.1667  -26.7245 H         1 SAH4971     0.0000 
     41 H         -18.4635   22.6624  -25.8336 H         1 SAH4971     0.0000 
     42 H         -16.6434   22.5128  -17.8706 H         1 SAH4971     0.0000 
     43 H         -15.2876   22.2982  -17.0327 H         1 SAH4971     0.0000 
     44 H         -15.5004   21.5290  -18.4290 H         1 SAH4971     0.0000 
     45 H         -19.7521   16.2561  -20.2601 H         1 SAH4971     0.0000 
     46 H         -20.8648   18.5991  -20.7275 H         1 SAH4971     0.0000 
@<TRIPOS>BOND
     1    2    1 1    
     2   42    1 1    
     3   43    1 1    
     4   44    1 1    
     5    3    2 1    
     6    6    2 1    
     7   27    2 1    
     8    4    3 1    
     9   28    3 1    
    10   29    3 1    
    11    5    4 1    
    12   30    4 1    
    13   31    4 1    
    14    9    5 1    
    15    7    6 ar   
    16    8    6 ar   
    17   10    9 1    
    18   32    9 1    
    19   33    9 1    
    20   11   10 1    
    21   12   10 1    
    22   34   10 1    
    23   16   11 1    
    24   13   12 1    
    25   14   12 1    
    26   35   12 1    
    27   45   13 1    
    28   15   14 1    
    29   16   14 1    
    30   36   14 1    
    31   46   15 1    
    32   17   16 1    
    33   37   16 1    
    34   18   17 1    
    35   26   17 1    
    36   19   18 2    
    37   38   18 1    
    38   20   19 1    
    39   21   20 ar   
    40   26   20 ar   
    41   22   21 1    
    42   23   21 ar   
    43   39   22 1    
    44   40   22 1    
    45   24   23 ar   
    46   25   24 ar   
    47   41   24 1    
    48   26   25 ar   
@<TRIPOS>SUBSTRUCTURE
     1 SAH4971     1 GROUP   
@<TRIPOS>SET

