#    Name: 3bxs_DRS_2_INTS_M
#    Modification time : Mon Mar 24 20:11:44 2014

@<TRIPOS>MOLECULE
3bxs_DRS_2_INTS_M
   48     0     9     0     0
SMALL
NO_CHARGES


@<TRIPOS>ATOM
      1 CA         11.7555   -4.6150   16.1670 C.3       3 GLC5        0.0000 
      2 CA          9.9170   -5.3110   16.6370 C.3       9 GLL5        0.0000 
      3 CA         13.5940   -3.9190   15.6970 C.3       6 GLP5        0.0000 
      4 CA         11.3035   -6.0040   15.2795 C.3       3 GLC5        0.0000 
      5 CA         12.6900   -6.6970   13.9220 C.3       6 GLP5        0.0000 
      6 CA         10.0910   -1.4010   16.7345 C.3       3 GLC5        0.0000 
      7 CA          8.8290   -3.0850   16.0540 C.3       9 GLL5        0.0000 
      8 CA         11.3530    0.2830   17.4150 C.3       6 GLP5        0.0000 
      9 CA          7.6710   -3.9185   18.1755 C.3       3 GLC5        0.0000 
     10 CA          7.3640   -5.1330   16.3470 C.3       9 GLL5        0.0000 
     11 CA          7.9780   -2.7040   20.0040 C.3       6 GLP5        0.0000 
     12 N           8.0085   -5.3305   19.8880 N.am      2 SEC2        0.0000 
     13 N           7.4220   -5.8830   18.6450 N.am      8 SEL2        0.0000 
     14 N           8.5950   -4.7780   21.1310 N.am      5 SEP2        0.0000 
     15 O           6.9870   -7.5020   15.6345 O.2       1 ALC1        0.0000 
     16 O           7.2040   -7.4320   17.0100 O.2       7 ALL1        0.0000 
     17 O           6.7700   -7.5720   14.2590 O.2       4 ALP1        0.0000 
     18 N           8.3625   -9.8780   14.9645 N.am      2 SEC2        0.0000 
     19 N           8.2840  -10.0980   16.4320 N.am      8 SEL2        0.0000 
     20 N           8.4410   -9.6580   13.4970 N.am      5 SEP2        0.0000 
     21 CA          2.4340   -4.7645   19.4900 C.3       3 GLC5        0.0000 
     22 CA          3.3090   -6.4310   18.3450 C.3       9 GLL5        0.0000 
     23 CA          1.5590   -3.0980   20.6350 C.3       6 GLP5        0.0000 
     24 CA          0.6095   -6.1840   14.3520 C.3       3 GLC5        0.0000 
     25 CA          1.4290   -4.8560   15.7190 C.3       9 GLL5        0.0000 
     26 CA         -0.2100   -7.5120   12.9850 C.3       6 GLP5        0.0000 
     27 CA          0.2765   -5.2800   17.1595 C.3       3 GLC5        0.0000 
     28 CA         -0.8760   -5.7040   18.6000 C.3       6 GLP5        0.0000 
     29 CA          3.7370   -5.2665   13.9885 C.3       3 GLC5        0.0000 
     30 CA          2.6620   -4.0360   15.3350 C.3       9 GLL5        0.0000 
     31 CA          4.8120   -6.4970   12.6420 C.3       6 GLP5        0.0000 
     32 CA          1.8005   -3.6765   13.3405 C.3       3 GLC5        0.0000 
     33 CA          0.9390   -3.3170   11.3460 C.3       6 GLP5        0.0000 
     34 CA          2.3670   -3.1860   18.5965 C.3       3 GLC5        0.0000 
     35 CA          3.1750   -3.2740   16.5580 C.3       9 GLL5        0.0000 
     36 O           5.8405   -3.5630   18.0880 O.2       1 ALC1        0.0000 
     37 O           6.4000   -4.0730   16.6810 O.2       7 ALL1        0.0000 
     38 O           5.2810   -3.0530   19.4950 O.2       4 ALP1        0.0000 
     39 CA          9.0787   -2.9762   17.7235 C.3       3 GLC5        0.0000 
     40 CA          9.0770   -1.9300   19.2750 C.3       6 GLP5        0.0000 
     41 CA          4.1318   -7.0913   14.4132 C.3       3 GLC5        0.0000 
     42 CA          2.9480   -7.2120   16.1000 C.3       9 GLL5        0.0000 
     43 CA          1.0445   -6.0457   18.1710 C.3       3 GLC5        0.0000 
     44 CA          2.6210   -6.3440   17.1390 C.3       9 GLL5        0.0000 
     45 CA          1.6981   -8.0024   15.6969 C.3       3 GLC5        0.0000 
     46 CA          0.3600   -8.9900   14.7320 C.3       6 GLP5        0.0000 
     47 CA          1.2061   -3.0425   16.9862 C.3       3 GLC5        0.0000 
     48 CA         -0.1980   -2.2250   17.9300 C.3       6 GLP5        0.0000 
@<TRIPOS>BOND
@<TRIPOS>SUBSTRUCTURE
     1 ALC1       15 GROUP        1 X    ALC  0     ROOT ALC X 1
     2 SEC2       12 GROUP        1 X    SEC  0     **** SEC X 2
     3 GLC5        1 GROUP        1 X    GLC  0     **** GLC X 6
     4 ALP1       17 GROUP        1 Y    ALP  0     ROOT ALP Y 8
     5 SEP2       14 GROUP        1 Y    SEP  0     **** SEP Y 9
     6 GLP5        3 GROUP        1 Y    GLP  0     **** GLP Y 13
     7 ALL1       16 GROUP        1 Z    ALL  0     ROOT ALL Z 15
     8 SEL2       13 GROUP        1 Z    SEL  0     **** SEL Z 16
     9 GLL5        2 GROUP        1 Z    GLL  0     **** GLL Z 20
@<TRIPOS>SET

