#    Name: 3bxs_DRS_2_ligand
#    Modification time : Mon Mar 24 20:11:45 2014

@<TRIPOS>MOLECULE
3bxs_DRS_2_ligand
   51    52     1     0     0
SMALL
NO_CHARGES


@<TRIPOS>ATOM
      1 CAA         9.9170   -5.3110   16.6370 C.3       1 DRS203      0.0000 
      2 CAX         8.7470   -4.6090   15.9430 C.3       1 DRS203      0.0000 
      3 CAB         8.8290   -3.0850   16.0540 C.3       1 DRS203      0.0000 
      4 CAZ         7.3640   -5.1330   16.3470 C.3       1 DRS203      0.0000 
      5 CAU         7.3520   -6.1880   17.4550 C.2       1 DRS203      0.0000 
      6 OAE         7.4220   -5.8830   18.6450 O.2       1 DRS203      0.0000 
      7 N           7.2040   -7.4320   17.0100 N.am      1 DRS203      0.0000 
      8 CA          7.1180   -8.6000   17.8960 C.3       1 DRS203      0.0000 
      9 C           8.2500   -9.5680   17.5410 C.2       1 DRS203      0.0000 
     10 OXT         8.2840  -10.0980   16.4320 O.co2     1 DRS203      0.0000 
     11 O           9.1500   -9.8040   18.3450 O.co2     1 DRS203      0.0000 
     12 CB          5.7650   -9.2720   17.6440 C.3       1 DRS203      0.0000 
     13 CG          4.6400   -8.2450   17.4780 C.ar      1 DRS203      0.0000 
     14 CD2         3.9550   -8.1590   16.2690 C.ar      1 DRS203      0.0000 
     15 CE2         2.9480   -7.2120   16.1000 C.ar      1 DRS203      0.0000 
     16 CD1         4.3140   -7.3800   18.5180 C.ar      1 DRS203      0.0000 
     17 CE1         3.3090   -6.4310   18.3450 C.ar      1 DRS203      0.0000 
     18 CZ          2.6210   -6.3440   17.1390 C.ar      1 DRS203      0.0000 
     19 OH          1.6230   -5.4220   17.0260 O.3       1 DRS203      0.0000 
     20 CAM         1.4290   -4.8560   15.7190 C.3       1 DRS203      0.0000 
     21 CAK         2.6620   -4.0360   15.3350 C.3       1 DRS203      0.0000 
     22 CAL         3.1750   -3.2740   16.5580 C.3       1 DRS203      0.0000 
     23 CAN         4.5180   -2.6000   16.2750 C.3       1 DRS203      0.0000 
     24 CAS         5.5570   -3.6000   15.7670 C.2       1 DRS203      0.0000 
     25 OAC         5.5630   -3.9470   14.5860 O.2       1 DRS203      0.0000 
     26 NAP         6.4000   -4.0730   16.6810 N.am      1 DRS203      0.0000 
     27 H           8.8537   -4.8372   14.8378 H         1 DRS203      0.0000 
     28 H           6.9465   -5.6632   15.4302 H         1 DRS203      0.0000 
     29 H           7.1396   -7.6500   15.9843 H         1 DRS203      0.0000 
     30 H           7.1900   -8.3197   18.9092 H         1 DRS203      0.0000 
     31 H           5.5289   -9.9282   18.4847 H         1 DRS203      0.0000 
     32 H           5.8303   -9.8803   16.7391 H         1 DRS203      0.0000 
     33 H           4.1934   -8.7972   15.4976 H         1 DRS203      0.0000 
     34 H           2.4440   -7.1533   15.2049 H         1 DRS203      0.0000 
     35 H           4.8140   -7.4406   19.4137 H         1 DRS203      0.0000 
     36 H           3.0740   -5.7889   19.1167 H         1 DRS203      0.0000 
     37 H           0.5618   -4.1913   15.6924 H         1 DRS203      0.0000 
     38 H           1.2913   -5.6309   14.9607 H         1 DRS203      0.0000 
     39 H           2.3958   -3.3299   14.5575 H         1 DRS203      0.0000 
     40 H           3.4377   -4.7012   14.9748 H         1 DRS203      0.0000 
     41 H           3.2911   -3.9694   17.3909 H         1 DRS203      0.0000 
     42 H           2.4443   -2.5139   16.8391 H         1 DRS203      0.0000 
     43 H           4.8862   -2.1352   17.1923 H         1 DRS203      0.0000 
     44 H           4.3760   -1.8185   15.5252 H         1 DRS203      0.0000 
     45 H           6.4263   -3.7313   17.6566 H         1 DRS203      0.0000 
     46 H          10.7965   -5.0449   16.2426 H         1 DRS203      0.0000 
     47 H           9.9552   -5.0931   17.6122 H         1 DRS203      0.0000 
     48 H           9.8508   -6.3059   16.5613 H         1 DRS203      0.0000 
     49 H           9.6673   -2.7272   15.6426 H         1 DRS203      0.0000 
     50 H           8.0624   -2.6373   15.5937 H         1 DRS203      0.0000 
     51 H           8.8170   -2.7808   17.0065 H         1 DRS203      0.0000 
@<TRIPOS>BOND
     1    2    1 1    
     2   46    1 1    
     3   47    1 1    
     4   48    1 1    
     5    3    2 1    
     6    4    2 1    
     7   27    2 1    
     8   49    3 1    
     9   50    3 1    
    10   51    3 1    
    11    5    4 1    
    12   26    4 1    
    13   28    4 1    
    14    6    5 2    
    15    7    5 am   
    16    8    7 1    
    17   29    7 1    
    18    9    8 1    
    19   12    8 1    
    20   30    8 1    
    21   10    9 ar   
    22   11    9 ar   
    23   13   12 1    
    24   31   12 1    
    25   32   12 1    
    26   14   13 ar   
    27   16   13 ar   
    28   15   14 ar   
    29   33   14 1    
    30   18   15 ar   
    31   34   15 1    
    32   17   16 ar   
    33   35   16 1    
    34   18   17 ar   
    35   36   17 1    
    36   19   18 1    
    37   20   19 1    
    38   21   20 1    
    39   37   20 1    
    40   38   20 1    
    41   22   21 1    
    42   39   21 1    
    43   40   21 1    
    44   23   22 1    
    45   41   22 1    
    46   42   22 1    
    47   24   23 1    
    48   43   23 1    
    49   44   23 1    
    50   25   24 2    
    51   26   24 am   
    52   45   26 1    
@<TRIPOS>SUBSTRUCTURE
     1 DRS203      1 GROUP   
@<TRIPOS>SET

