#    Name: 3tqb_FOL_1_INTS_M
#    Modification time : Mon Mar 24 20:48:54 2014

@<TRIPOS>MOLECULE
3tqb_FOL_1_INTS_M
   47     0    12     0     0
SMALL
NO_CHARGES


@<TRIPOS>ATOM
      1 O           8.5175    0.2685   17.7365 O.2       1 ALC1        0.0000 
      2 O           9.7250    0.2880   16.7090 O.2       9 ALL1        0.0000 
      3 O           7.3100    0.2490   18.7640 O.2       5 ALP1        0.0000 
      4 O           9.0800    1.2050   17.8510 O.2       1 ALC1        0.0000 
      5 O           8.4350    2.1220   18.9930 O.2       5 ALP1        0.0000 
      6 CA         15.8510    1.7795   13.9685 C.3       4 GLC5        0.0000 
      7 CA         14.7810    2.9570   14.9680 C.3      12 GLL5        0.0000 
      8 CA         16.9210    0.6020   12.9690 C.3       8 GLP5        0.0000 
      9 CA         11.4775    1.5875   14.1845 C.3       4 GLC5        0.0000 
     10 CA         12.7190    2.0970   15.8300 C.3      12 GLL5        0.0000 
     11 CA         10.2360    1.0780   12.5390 C.3       8 GLP5        0.0000 
     12 CA         17.1490    5.5215   14.6245 C.3       4 GLC5        0.0000 
     13 CA         15.7440    5.1210   15.7580 C.3      12 GLL5        0.0000 
     14 CA         18.5540    5.9220   13.4910 C.3       8 GLP5        0.0000 
     15 CA         14.6985    5.0860   14.2320 C.3       4 GLC5        0.0000 
     16 CA         13.6530    5.0510   12.7060 C.3       8 GLP5        0.0000 
     17 CA         17.8515    5.0400   19.4960 C.3       4 GLC5        0.0000 
     18 CA         16.2460    4.1170   20.7500 C.3      12 GLL5        0.0000 
     19 CA         19.4570    5.9630   18.2420 C.3       8 GLP5        0.0000 
     20 CA         18.5750    1.9175   22.1385 C.3       4 GLC5        0.0000 
     21 CA         16.8900    1.5790   23.4790 C.3      12 GLL5        0.0000 
     22 CA         20.2600    2.2560   20.7980 C.3       8 GLP5        0.0000 
     23 CA         13.6785    1.7690   24.1630 C.3       4 GLC5        0.0000 
     24 CA         15.7910    1.4410   24.5310 C.3      12 GLL5        0.0000 
     25 CA         11.5660    2.0970   23.7950 C.3       8 GLP5        0.0000 
     26 NZ         18.0190   -1.3695   21.6360 N.4       3 LYC4        0.0000 
     27 NZ         17.3210   -0.2750   22.0310 N.4      11 LYL4        0.0000 
     28 NZ         19.8860   -2.6660   21.8420 N.4       7 LYP4        0.0000 
     29 N          18.0190   -1.3695   21.6360 N.am      2 SEC2        0.0000 
     30 N          17.3210   -0.2750   22.0310 N.am     10 SEL2        0.0000 
     31 N          18.7170   -2.4640   21.2410 N.am      6 SEP2        0.0000 
     32 NZ         19.1070   -1.2815   23.5360 N.4       3 LYC4        0.0000 
     33 NZ         18.1110   -0.4070   24.0220 N.4      11 LYL4        0.0000 
     34 N          19.1070   -1.2815   23.5360 N.am      2 SEC2        0.0000 
     35 N          18.1110   -0.4070   24.0220 N.am     10 SEL2        0.0000 
     36 N          20.1030   -2.1560   23.0500 N.am      6 SEP2        0.0000 
     37 CA         14.0095    4.2270   21.3047 C.3       4 GLC5        0.0000 
     38 CA         12.0710    3.7130   21.9350 C.3       8 GLP5        0.0000 
     39 CA         18.3693    3.0150   20.4940 C.3       4 GLC5        0.0000 
     40 CA         13.8447    6.5987   19.5842 C.3       4 GLC5        0.0000 
     41 CA         15.6500    5.3650   20.5990 C.3      12 GLL5        0.0000 
     42 CA         12.1040    7.5520   19.2030 C.3       8 GLP5        0.0000 
     43 CA         17.6040    5.7748   18.5057 C.3       4 GLC5        0.0000 
     44 CA         15.5210    5.9260   19.3320 C.3      12 GLL5        0.0000 
     45 CA         18.2267    4.1433   18.3727 C.3       4 GLC5        0.0000 
     46 CA         16.5820    3.9940   18.3590 C.3      12 GLL5        0.0000 
     47 CA         19.8070    4.5740   17.7510 C.3       8 GLP5        0.0000 
@<TRIPOS>BOND
@<TRIPOS>SUBSTRUCTURE
     1 ALC1        1 GROUP        1 X    ALC  0     ROOT ALC X 1
     2 SEC2       29 GROUP        1 X    SEC  0     **** SEC X 2
     3 LYC4       26 GROUP        1 X    LYC  0     **** LYC X 4
     4 GLC5        6 GROUP        1 X    GLC  0     **** GLC X 6
     5 ALP1        3 GROUP        1 Y    ALP  0     ROOT ALP Y 8
     6 SEP2       31 GROUP        1 Y    SEP  0     **** SEP Y 9
     7 LYP4       28 GROUP        1 Y    LYP  0     **** LYP Y 11
     8 GLP5        8 GROUP        1 Y    GLP  0     **** GLP Y 13
     9 ALL1        2 GROUP        1 Z    ALL  0     ROOT ALL Z 15
    10 SEL2       30 GROUP        1 Z    SEL  0     **** SEL Z 16
    11 LYL4       27 GROUP        1 Z    LYL  0     **** LYL Z 18
    12 GLL5        7 GROUP        1 Z    GLL  0     **** GLL Z 20
@<TRIPOS>SET

