#    Name: 3tqb_FOL_1_ligand
#    Modification time : Mon Mar 24 20:48:54 2014

@<TRIPOS>MOLECULE
3tqb_FOL_1_ligand
   49    51     1     0     0
SMALL
NO_CHARGES


@<TRIPOS>ATOM
      1 N1         11.7470    1.1140   15.8440 N.pl3     1 FOL2001     0.0000 
      2 C2         10.6600    1.2330   16.6920 C.2       1 FOL2001     0.0000 
      3 NA2         9.7250    0.2880   16.7090 N.pl3     1 FOL2001     0.0000 
      4 N3         10.5400    2.3330   17.5200 N.2       1 FOL2001     0.0000 
      5 C4         11.5030    3.3230   17.5160 C.2       1 FOL2001     0.0000 
      6 O4         11.3800    4.2940   18.2630 O.2       1 FOL2001     0.0000 
      7 C4A        12.6020    3.2100   16.6650 C.ar      1 FOL2001     0.0000 
      8 N5         13.5780    4.1910   16.6410 N.ar      1 FOL2001     0.0000 
      9 C6         14.6640    4.0660   15.7950 C.ar      1 FOL2001     0.0000 
     10 C7         14.7810    2.9570   14.9680 C.ar      1 FOL2001     0.0000 
     11 N8         13.8060    1.9780   14.9840 N.ar      1 FOL2001     0.0000 
     12 C8A        12.7190    2.0970   15.8300 C.ar      1 FOL2001     0.0000 
     13 C9         15.7440    5.1210   15.7580 C.3       1 FOL2001     0.0000 
     14 N10        15.8340    5.8380   17.0170 N.pl3     1 FOL2001     0.0000 
     15 C11        16.2460    4.1170   20.7500 C.ar      1 FOL2001     0.0000 
     16 C12        15.6500    5.3650   20.5990 C.ar      1 FOL2001     0.0000 
     17 C13        15.5210    5.9260   19.3320 C.ar      1 FOL2001     0.0000 
     18 C14        15.9810    5.2470   18.2070 C.ar      1 FOL2001     0.0000 
     19 C15        16.5820    3.9940   18.3590 C.ar      1 FOL2001     0.0000 
     20 C16        16.7110    3.4310   19.6300 C.ar      1 FOL2001     0.0000 
     21 C          16.3760    3.5390   22.1260 C.2       1 FOL2001     0.0000 
     22 O          16.5080    4.4260   23.2150 O.2       1 FOL2001     0.0000 
     23 N          16.3600    2.2160   22.2860 N.am      1 FOL2001     0.0000 
     24 CA         16.8900    1.5790   23.4790 C.3       1 FOL2001     0.0000 
     25 CB         15.7910    1.4410   24.5310 C.3       1 FOL2001     0.0000 
     26 CG         16.3710    1.5090   25.9410 C.3       1 FOL2001     0.0000 
     27 CD         15.3090    1.2340   26.9820 C.2       1 FOL2001     0.0000 
     28 OE1        15.2510    1.9450   28.0090 O.co2     1 FOL2001     0.0000 
     29 OE2        14.4860    0.2980   26.8450 O.co2     1 FOL2001     0.0000 
     30 CT         17.4680    0.2320   23.1620 C.2       1 FOL2001     0.0000 
     31 O1         17.3210   -0.2750   22.0310 O.co2     1 FOL2001     0.0000 
     32 O2         18.1110   -0.4070   24.0220 O.co2     1 FOL2001     0.0000 
     33 H          11.8312    0.2954   15.2254 H         1 FOL2001     0.0000 
     34 H           8.9804    0.4175   17.3639 H         1 FOL2001     0.0000 
     35 H           9.8507   -0.4670   16.0655 H         1 FOL2001     0.0000 
     36 H          15.5953    2.8667   14.3439 H         1 FOL2001     0.0000 
     37 H          15.5242    5.8144   14.9292 H         1 FOL2001     0.0000 
     38 H          16.7019    4.6294   15.5199 H         1 FOL2001     0.0000 
     39 H          15.7749    6.8907   16.9388 H         1 FOL2001     0.0000 
     40 H          15.3048    5.8730   21.4234 H         1 FOL2001     0.0000 
     41 H          15.0808    6.8530   19.2252 H         1 FOL2001     0.0000 
     42 H          16.9281    3.4886   17.5357 H         1 FOL2001     0.0000 
     43 H          17.1504    2.5079   19.7385 H         1 FOL2001     0.0000 
     44 H          15.9667    1.5753   21.5633 H         1 FOL2001     0.0000 
     45 H          17.6768    2.1980   23.9122 H         1 FOL2001     0.0000 
     46 H          15.2834    0.4861   24.3964 H         1 FOL2001     0.0000 
     47 H          15.0667    2.2448   24.4007 H         1 FOL2001     0.0000 
     48 H          16.7946    2.5023   26.1041 H         1 FOL2001     0.0000 
     49 H          17.1721    0.7724   26.0322 H         1 FOL2001     0.0000 
@<TRIPOS>BOND
     1    2    1 1    
     2   12    1 1    
     3   33    1 1    
     4    3    2 1    
     5    4    2 2    
     6   34    3 1    
     7   35    3 1    
     8    5    4 1    
     9    6    5 2    
    10    7    5 1    
    11    8    7 ar   
    12   12    7 ar   
    13    9    8 ar   
    14   10    9 ar   
    15   13    9 1    
    16   11   10 ar   
    17   36   10 1    
    18   12   11 ar   
    19   14   13 1    
    20   37   13 1    
    21   38   13 1    
    22   18   14 1    
    23   39   14 1    
    24   16   15 ar   
    25   20   15 ar   
    26   21   15 1    
    27   17   16 ar   
    28   40   16 1    
    29   18   17 ar   
    30   41   17 1    
    31   19   18 ar   
    32   20   19 ar   
    33   42   19 1    
    34   43   20 1    
    35   22   21 2    
    36   23   21 am   
    37   24   23 1    
    38   44   23 1    
    39   25   24 1    
    40   30   24 1    
    41   45   24 1    
    42   26   25 1    
    43   46   25 1    
    44   47   25 1    
    45   27   26 1    
    46   48   26 1    
    47   49   26 1    
    48   28   27 ar   
    49   29   27 ar   
    50   31   30 ar   
    51   32   30 ar   
@<TRIPOS>SUBSTRUCTURE
     1 FOL2001     1 GROUP   
@<TRIPOS>SET

