#    Name: 2x7j_TPP_2_INTS_M
#    Modification time : Tue Mar 25 05:18:22 2014

@<TRIPOS>MOLECULE
2x7j_TPP_2_INTS_M
   90     0    12     0     0
SMALL
NO_CHARGES


@<TRIPOS>ATOM
      1 N          32.7620  -32.3565  -45.7190 N.am      2 SEC2        0.0000 
      2 N          33.8220  -31.5110  -46.6820 N.am     10 SEL2        0.0000 
      3 N          31.7020  -33.2020  -44.7560 N.am      6 SEP2        0.0000 
      4 CA         35.6345  -30.9605  -46.2370 C.3       4 GLC5        0.0000 
      5 CA         34.0920  -30.3900  -47.3560 C.3      12 GLL5        0.0000 
      6 CA         37.1770  -31.5310  -45.1180 C.3       8 GLP5        0.0000 
      7 CA         35.7335  -29.5635  -45.7145 C.3       4 GLC5        0.0000 
      8 CA         34.1590  -29.0490  -46.6400 C.3      12 GLL5        0.0000 
      9 CA         37.3080  -30.0780  -44.7890 C.3       8 GLP5        0.0000 
     10 CA         33.4990  -27.1775  -46.6940 C.3       4 GLC5        0.0000 
     11 CA         32.8390  -25.3060  -46.7480 C.3       8 GLP5        0.0000 
     12 N          33.5540  -29.3680  -49.6335 N.am      2 SEC2        0.0000 
     13 N          34.3040  -30.4490  -48.6760 N.am     10 SEL2        0.0000 
     14 N          32.8040  -28.2870  -50.5910 N.am      6 SEP2        0.0000 
     15 CA         34.6720  -29.7075  -50.2615 C.3       4 GLC5        0.0000 
     16 CA         34.2620  -31.6160  -49.3380 C.3      12 GLL5        0.0000 
     17 CA         35.0820  -27.7990  -51.1850 C.3       8 GLP5        0.0000 
     18 O          34.8205  -30.6440  -51.8935 O.2       1 ALC1        0.0000 
     19 O          34.4730  -31.6090  -50.6550 O.2       9 ALL1        0.0000 
     20 O          35.1680  -29.6790  -53.1320 O.2       5 ALP1        0.0000 
     21 CA         35.4675  -32.1100  -46.2035 C.3       4 GLC5        0.0000 
     22 CA         33.7580  -32.6890  -47.2890 C.3      12 GLL5        0.0000 
     23 CA         31.9145  -31.8170  -47.7810 C.3       4 GLC5        0.0000 
     24 CA         30.0710  -30.9450  -48.2730 C.3       8 GLP5        0.0000 
     25 CA         34.1705  -36.1700  -48.5090 C.3       4 GLC5        0.0000 
     26 CA         33.8810  -34.2010  -49.2760 C.3      12 GLL5        0.0000 
     27 CA         34.4600  -38.1390  -47.7420 C.3       8 GLP5        0.0000 
     28 CA         30.2950  -33.5775  -53.6155 C.3       4 GLC5        0.0000 
     29 CA         31.4140  -34.3440  -52.3400 C.3      12 GLL5        0.0000 
     30 CA         29.1760  -32.8110  -54.8910 C.3       8 GLP5        0.0000 
     31 CA         30.5080  -35.4950  -46.6365 C.3       4 GLC5        0.0000 
     32 CA         30.9410  -34.5140  -48.4070 C.3      12 GLL5        0.0000 
     33 CA         30.0750  -36.4760  -44.8660 C.3       8 GLP5        0.0000 
     34 CA         31.2315  -36.3325  -49.4270 C.3       4 GLC5        0.0000 
     35 CA         31.5220  -38.1510  -50.4470 C.3       8 GLP5        0.0000 
     36 CA         27.4865  -34.8130  -49.3895 C.3       4 GLC5        0.0000 
     37 CA         29.0080  -34.6280  -50.8250 C.3      12 GLL5        0.0000 
     38 CA         25.9650  -34.9980  -47.9540 C.3       8 GLP5        0.0000 
     39 CA         27.4000  -35.9225  -50.9210 C.3       4 GLC5        0.0000 
     40 CA         25.7920  -37.2170  -51.0170 C.3       8 GLP5        0.0000 
     41 CA         29.3630  -35.9760  -52.4715 C.3       4 GLC5        0.0000 
     42 CA         29.7180  -37.3240  -54.1180 C.3       8 GLP5        0.0000 
     43 CA         29.5965  -36.4750  -50.4700 C.3       4 GLC5        0.0000 
     44 CA         30.1850  -38.3220  -50.1150 C.3       8 GLP5        0.0000 
     45 CA         29.5335  -31.8670  -51.2350 C.3       4 GLC5        0.0000 
     46 CA         28.2400  -33.3510  -51.1930 C.3      12 GLL5        0.0000 
     47 CA         30.8270  -30.3830  -51.2770 C.3       8 GLP5        0.0000 
     48 CA         26.9475  -32.9310  -49.7940 C.3       4 GLC5        0.0000 
     49 CA         25.6550  -32.5110  -48.3950 C.3       8 GLP5        0.0000 
     50 Zn         23.6810  -33.7390  -52.0085 Zn        3 ZIC7        0.0000 
     51 Zn         24.3540  -32.9880  -51.5790 Zn       11 ZIL7        0.0000 
     52 Zn         23.0080  -34.4900  -52.4380 Zn        7 ZIP7        0.0000 
     53 N          24.0485  -32.1535  -50.4890 N.am      2 SEC2        0.0000 
     54 N          24.3540  -32.9880  -51.5790 N.am     10 SEL2        0.0000 
     55 N          23.7430  -31.3190  -49.3990 N.am      6 SEP2        0.0000 
     56 N          26.0455  -30.4430  -50.6895 N.am      2 SEC2        0.0000 
     57 N          26.1910  -31.3020  -51.8570 N.am     10 SEL2        0.0000 
     58 N          25.9000  -29.5840  -49.5220 N.am      6 SEP2        0.0000 
     59 N          27.5085  -33.6430  -54.0970 N.am      2 SEC2        0.0000 
     60 N          26.0280  -33.1020  -53.6280 N.am     10 SEL2        0.0000 
     61 N          28.9890  -34.1840  -54.5660 N.am      6 SEP2        0.0000 
     62 Zn         23.6630  -34.7590  -53.1355 Zn        3 ZIC7        0.0000 
     63 Zn         24.3180  -35.0280  -53.8330 Zn       11 ZIL7        0.0000 
     64 N          23.1680  -35.5095  -54.5055 N.am      2 SEC2        0.0000 
     65 N          24.3180  -35.0280  -53.8330 N.am     10 SEL2        0.0000 
     66 N          22.0180  -35.9910  -55.1780 N.am      6 SEP2        0.0000 
     67 N          24.6435  -36.4125  -53.5190 N.am      2 SEC2        0.0000 
     68 N          24.9690  -37.7970  -53.2050 N.am      6 SEP2        0.0000 
     69 N          27.4170  -34.2975  -55.2115 N.am      2 SEC2        0.0000 
     70 N          25.8450  -34.4110  -55.8570 N.am     10 SEL2        0.0000 
     71 N          27.1310  -33.8905  -56.7060 N.am      2 SEC2        0.0000 
     72 N          28.4170  -33.3700  -57.5550 N.am      6 SEP2        0.0000 
     73 N          25.0985  -35.2030  -56.4840 N.am      2 SEC2        0.0000 
     74 N          24.3520  -35.9950  -57.1110 N.am      6 SEP2        0.0000 
     75 N          26.9555  -36.9065  -54.4740 N.am      2 SEC2        0.0000 
     76 N          26.8700  -35.5410  -53.9230 N.am     10 SEL2        0.0000 
     77 N          27.0410  -38.2720  -55.0250 N.am      6 SEP2        0.0000 
     78 N          27.9295  -34.8625  -54.2445 N.am      2 SEC2        0.0000 
     79 CA         32.5697  -29.7952  -47.9065 C.3       4 GLC5        0.0000 
     80 CA         31.0140  -29.8710  -48.8150 C.3       8 GLP5        0.0000 
     81 CA         32.5678  -31.0387  -48.9050 C.3       4 GLC5        0.0000 
     82 CA         35.5186  -34.2895  -47.9906 C.3       4 GLC5        0.0000 
     83 CA         33.9810  -32.7970  -48.6520 C.3      12 GLL5        0.0000 
     84 CA         37.1620  -35.1070  -47.3580 C.3       8 GLP5        0.0000 
     85 CA         30.3425  -35.8653  -52.8655 C.3       4 GLC5        0.0000 
     86 CA         31.0898  -32.3809  -51.3471 C.3       4 GLC5        0.0000 
     87 CA         30.5200  -34.4690  -50.8860 C.3      12 GLL5        0.0000 
     88 CA         30.6288  -32.7058  -48.7000 C.3       4 GLC5        0.0000 
     89 CA         31.4320  -34.4190  -49.8470 C.3      12 GLL5        0.0000 
     90 CA         28.9000  -33.4002  -52.9500 C.3       4 GLC5        0.0000 
@<TRIPOS>BOND
@<TRIPOS>SUBSTRUCTURE
     1 ALC1       18 GROUP        1 X    ALC  0     ROOT ALC X 1
     2 SEC2        1 GROUP        1 X    SEC  0     **** SEC X 2
     3 ZIC7       50 GROUP        1 X    ZIC  0     **** ZIC X 5
     4 GLC5        4 GROUP        1 X    GLC  0     **** GLC X 6
     5 ALP1       20 GROUP        1 Y    ALP  0     ROOT ALP Y 8
     6 SEP2        3 GROUP        1 Y    SEP  0     **** SEP Y 9
     7 ZIP7       52 GROUP        1 Y    ZIP  0     **** ZIP Y 12
     8 GLP5        6 GROUP        1 Y    GLP  0     **** GLP Y 13
     9 ALL1       19 GROUP        1 Z    ALL  0     ROOT ALL Z 15
    10 SEL2        2 GROUP        1 Z    SEL  0     **** SEL Z 16
    11 ZIL7       51 GROUP        1 Z    ZIL  0     **** ZIL Z 19
    12 GLL5        5 GROUP        1 Z    GLL  0     **** GLL Z 20
@<TRIPOS>SET

