#    Name: 2x7j_TPP_2_ligand
#    Modification time : Tue Mar 25 05:18:22 2014

@<TRIPOS>MOLECULE
2x7j_TPP_2_ligand
   42    43     1     0     0
SMALL
NO_CHARGES


@<TRIPOS>ATOM
      1 N1'        33.8220  -31.5110  -46.6820 N.ar      1 TPP601      0.0000 
      2 C2'        34.0920  -30.3900  -47.3560 C.ar      1 TPP601      0.0000 
      3 CM2        34.1590  -29.0490  -46.6400 C.3       1 TPP601      0.0000 
      4 N3'        34.3040  -30.4490  -48.6760 N.ar      1 TPP601      0.0000 
      5 C4'        34.2620  -31.6160  -49.3380 C.ar      1 TPP601      0.0000 
      6 N4'        34.4730  -31.6090  -50.6550 N.pl3     1 TPP601      0.0000 
      7 C5'        33.9810  -32.7970  -48.6520 C.ar      1 TPP601      0.0000 
      8 C6'        33.7580  -32.6890  -47.2890 C.ar      1 TPP601      0.0000 
      9 C7'        33.8810  -34.2010  -49.2760 C.3       1 TPP601      0.0000 
     10 N3         32.7360  -34.2880  -50.2260 N.pl3     1 TPP601      0.0000 
     11 C2         32.9560  -34.2330  -51.5570 C.2       1 TPP601      0.0000 
     12 S1         31.4140  -34.3440  -52.3400 S.3       1 TPP601      0.0000 
     13 C5         30.5200  -34.4690  -50.8860 C.2       1 TPP601      0.0000 
     14 C4         31.4320  -34.4190  -49.8470 C.2       1 TPP601      0.0000 
     15 CM4        30.9410  -34.5140  -48.4070 C.3       1 TPP601      0.0000 
     16 C6         29.0080  -34.6280  -50.8250 C.3       1 TPP601      0.0000 
     17 C7         28.2400  -33.3510  -51.1930 C.3       1 TPP601      0.0000 
     18 O7         26.8230  -33.6570  -51.2180 O.3       1 TPP601      0.0000 
     19 PA         25.8660  -32.7310  -52.0510 P.3       1 TPP601      0.0000 
     20 O1A        24.3540  -32.9880  -51.5790 O.co2     1 TPP601      0.0000 
     21 O2A        26.1910  -31.3020  -51.8570 O.co2     1 TPP601      0.0000 
     22 O3A        26.0280  -33.1020  -53.6280 O.3       1 TPP601      0.0000 
     23 PB         25.8050  -34.5610  -54.2830 P.3       1 TPP601      0.0000 
     24 O1B        24.3180  -35.0280  -53.8330 O.co2     1 TPP601      0.0000 
     25 O2B        25.8450  -34.4110  -55.8570 O.co2     1 TPP601      0.0000 
     26 O3B        26.8700  -35.5410  -53.9230 O.co2     1 TPP601      0.0000 
     27 H          34.4467  -32.4993  -51.1096 H         1 TPP601      0.0000 
     28 H          34.6385  -30.7141  -51.0694 H         1 TPP601      0.0000 
     29 H          33.5386  -33.5609  -46.7556 H         1 TPP601      0.0000 
     30 H          33.7604  -34.9284  -48.4688 H         1 TPP601      0.0000 
     31 H          34.8202  -34.4153  -49.7930 H         1 TPP601      0.0000 
     32 H          33.6519  -34.1579  -52.1239 H         1 TPP601      0.0000 
     33 H          28.7166  -34.9344  -49.8087 H         1 TPP601      0.0000 
     34 H          28.7005  -35.4340  -51.5088 H         1 TPP601      0.0000 
     35 H          28.5922  -33.0142  -52.1653 H         1 TPP601      0.0000 
     36 H          28.4708  -32.5925  -50.4485 H         1 TPP601      0.0000 
     37 H          34.8661  -29.0404  -45.9329 H         1 TPP601      0.0000 
     38 H          34.3662  -28.3012  -47.2707 H         1 TPP601      0.0000 
     39 H          33.2938  -28.8235  -46.1921 H         1 TPP601      0.0000 
     40 H          31.3321  -35.3026  -47.9325 H         1 TPP601      0.0000 
     41 H          31.1856  -33.7021  -47.8769 H         1 TPP601      0.0000 
     42 H          29.9465  -34.6067  -48.3591 H         1 TPP601      0.0000 
@<TRIPOS>BOND
     1    2    1 ar   
     2    8    1 ar   
     3    3    2 1    
     4    4    2 ar   
     5   37    3 1    
     6   38    3 1    
     7   39    3 1    
     8    5    4 ar   
     9    6    5 1    
    10    7    5 ar   
    11   27    6 1    
    12   28    6 1    
    13    8    7 ar   
    14    9    7 1    
    15   29    8 1    
    16   10    9 1    
    17   30    9 1    
    18   31    9 1    
    19   11   10 2    
    20   14   10 1    
    21   12   11 1    
    22   32   11 1    
    23   13   12 1    
    24   14   13 2    
    25   16   13 1    
    26   15   14 1    
    27   40   15 1    
    28   41   15 1    
    29   42   15 1    
    30   17   16 1    
    31   33   16 1    
    32   34   16 1    
    33   18   17 1    
    34   35   17 1    
    35   36   17 1    
    36   19   18 1    
    37   20   19 ar   
    38   21   19 ar   
    39   22   19 1    
    40   23   22 1    
    41   24   23 ar   
    42   25   23 ar   
    43   26   23 ar   
@<TRIPOS>SUBSTRUCTURE
     1 TPP601      1 GROUP   
@<TRIPOS>SET

