#    Name: 2pvm_P29_1_INTS_M
#    Modification time : Mon Mar 24 19:25:32 2014

@<TRIPOS>MOLECULE
2pvm_P29_1_INTS_M
   52     0     9     0     0
SMALL
NO_CHARGES


@<TRIPOS>ATOM
      1 N          19.1485   11.1825   20.1605 N.am      2 SEC2        0.0000 
      2 N          20.1340    9.9390   19.7070 N.am      8 SEL2        0.0000 
      3 N          18.1630   12.4260   20.6140 N.am      5 SEP2        0.0000 
      4 CA         19.7785    7.9050   18.3585 C.3       3 GLC5        0.0000 
      5 CA         21.4070    9.0650   18.0660 C.3       9 GLL5        0.0000 
      6 CA         18.1500    6.7450   18.6510 C.3       6 GLP5        0.0000 
      7 CA         20.2385    7.2185   19.7455 C.3       3 GLC5        0.0000 
      8 CA         21.6650    8.3550   19.3000 C.3       9 GLL5        0.0000 
      9 CA         18.8120    6.0820   20.1910 C.3       6 GLP5        0.0000 
     10 CA         21.4080    6.8255   18.0745 C.3       3 GLC5        0.0000 
     11 CA         21.1510    5.2960   16.8490 C.3       6 GLP5        0.0000 
     12 O          18.9750    9.8345   22.5280 O.2       1 ALC1        0.0000 
     13 O          20.1550    9.1040   22.4290 O.2       7 ALL1        0.0000 
     14 O          17.7950   10.5650   22.6270 O.2       4 ALP1        0.0000 
     15 CA         18.4420    7.6880   23.3765 C.3       3 GLC5        0.0000 
     16 CA         20.1440    8.6660   23.8230 C.3       9 GLL5        0.0000 
     17 CA         16.7400    6.7100   22.9300 C.3       6 GLP5        0.0000 
     18 CA         27.6285    2.8225   21.6410 C.3       3 GLC5        0.0000 
     19 CA         25.6500    3.2670   20.7230 C.3       9 GLL5        0.0000 
     20 CA         29.6070    2.3780   22.5590 C.3       6 GLP5        0.0000 
     21 CA         23.5315    9.8230   18.0930 C.3       3 GLC5        0.0000 
     22 CA         22.0690    8.8930   16.8090 C.3       9 GLL5        0.0000 
     23 CA         24.9940   10.7530   19.3770 C.3       6 GLP5        0.0000 
     24 CA         20.9890    9.8405   15.4405 C.3       3 GLC5        0.0000 
     25 CA         19.9090   10.7880   14.0720 C.3       6 GLP5        0.0000 
     26 CA         22.8135   10.6975   16.1380 C.3       3 GLC5        0.0000 
     27 CA         23.5580   12.5020   15.4670 C.3       6 GLP5        0.0000 
     28 CA         22.2390   10.1905   19.6030 C.3       3 GLC5        0.0000 
     29 CA         22.9420   11.6710   20.5230 C.3       6 GLP5        0.0000 
     30 CA         20.6050    8.1330   16.2852 C.3       3 GLC5        0.0000 
     31 CA         19.4720    7.2870   15.1330 C.3       6 GLP5        0.0000 
     32 CA         22.0495   10.0180   23.0410 C.3       3 GLC5        0.0000 
     33 CA         23.3700   11.0730   21.8670 C.3       6 GLP5        0.0000 
     34 CA         20.7510   10.9640   24.3230 C.3       3 GLC5        0.0000 
     35 CA         21.3140    9.2600   24.6070 C.3       9 GLL5        0.0000 
     36 CA         20.7730   12.9650   24.4310 C.3       6 GLP5        0.0000 
     37 CA         22.9069    9.2234   26.5439 C.3       3 GLC5        0.0000 
     38 CA         21.1660    9.4540   27.2120 C.3       9 GLL5        0.0000 
     39 CA         24.5880    9.2260   26.8260 C.3       6 GLP5        0.0000 
     40 CA         25.8525    5.5498   20.0860 C.3       3 GLC5        0.0000 
     41 CA         23.9910    5.0260   20.6430 C.3       9 GLL5        0.0000 
     42 CA         27.7110    6.1230   20.2260 C.3       6 GLP5        0.0000 
     43 CA         22.7795    4.8838   17.8840 C.3       3 GLC5        0.0000 
     44 CA         24.8190    4.0160   18.5890 C.3       9 GLL5        0.0000 
     45 CA         26.4735    4.8617   19.5932 C.3       3 GLC5        0.0000 
     46 CA         26.0343    4.8841   17.6227 C.3       3 GLC5        0.0000 
     47 CA         25.6530    3.1850   19.3320 C.3       9 GLL5        0.0000 
     48 CA         27.0380    5.9400   16.1200 C.3       6 GLP5        0.0000 
     49 CA         26.1612    3.9270   22.9025 C.3       3 GLC5        0.0000 
     50 CA         27.0860    4.1300   24.7560 C.3       6 GLP5        0.0000 
     51 CA         26.4737    4.9235   20.6375 C.3       3 GLC5        0.0000 
     52 CA         24.8230    4.1810   21.3750 C.3       9 GLL5        0.0000 
@<TRIPOS>BOND
@<TRIPOS>SUBSTRUCTURE
     1 ALC1       12 GROUP        1 X    ALC  0     ROOT ALC X 1
     2 SEC2        1 GROUP        1 X    SEC  0     **** SEC X 2
     3 GLC5        4 GROUP        1 X    GLC  0     **** GLC X 6
     4 ALP1       14 GROUP        1 Y    ALP  0     ROOT ALP Y 8
     5 SEP2        3 GROUP        1 Y    SEP  0     **** SEP Y 9
     6 GLP5        6 GROUP        1 Y    GLP  0     **** GLP Y 13
     7 ALL1       13 GROUP        1 Z    ALL  0     ROOT ALL Z 15
     8 SEL2        2 GROUP        1 Z    SEL  0     **** SEL Z 16
     9 GLL5        5 GROUP        1 Z    GLL  0     **** GLL Z 20
@<TRIPOS>SET

