#    Name: 2pvm_P29_1_ligand
#    Modification time : Mon Mar 24 19:25:32 2014

@<TRIPOS>MOLECULE
2pvm_P29_1_ligand
   41    44     1     0     0
SMALL
NO_CHARGES


@<TRIPOS>ATOM
      1 N01        20.1340    9.9390   19.7070 N.2       1 P29501      0.0000 
      2 C02        20.4390   10.0350   18.3860 C.2       1 P29501      0.0000 
      3 C03        21.4070    9.0650   18.0660 C.2       1 P29501      0.0000 
      4 C04        21.6650    8.3550   19.3000 C.2       1 P29501      0.0000 
      5 N05        20.8760    8.9320   20.2520 N.pl3     1 P29501      0.0000 
      6 N06        22.4740    7.3330   19.6320 N.2       1 P29501      0.0000 
      7 C07        22.4660    6.9290   20.9010 C.2       1 P29501      0.0000 
      8 N08        21.7110    7.4830   21.8430 N.2       1 P29501      0.0000 
      9 C09        20.9190    8.4910   21.4950 C.2       1 P29501      0.0000 
     10 N10        20.1550    9.1040   22.4290 N.pl3     1 P29501      0.0000 
     11 C11        20.1440    8.6660   23.8230 C.3       1 P29501      0.0000 
     12 C12        21.3140    9.2600   24.6070 C.3       1 P29501      0.0000 
     13 C13        21.2570    8.7150   26.0160 C.2       1 P29501      0.0000 
     14 N14        21.2900    7.3950   26.3010 N.pl3     1 P29501      0.0000 
     15 C15        21.2220    7.2880   27.6570 C.2       1 P29501      0.0000 
     16 N16        21.1460    8.5320   28.2120 N.2       1 P29501      0.0000 
     17 C17        21.1660    9.4540   27.2120 C.2       1 P29501      0.0000 
     18 N18        23.2210    5.8920   21.3510 N.pl3     1 P29501      0.0000 
     19 C19        23.9910    5.0260   20.6430 C.ar      1 P29501      0.0000 
     20 C20        23.9970    4.9270   19.2490 C.ar      1 P29501      0.0000 
     21 C21        24.8190    4.0160   18.5890 C.ar      1 P29501      0.0000 
     22 C22        25.6530    3.1850   19.3320 C.ar      1 P29501      0.0000 
     23 C23        25.6500    3.2670   20.7230 C.ar      1 P29501      0.0000 
     24 C24        24.8230    4.1810   21.3750 C.ar      1 P29501      0.0000 
     25 C25        22.0690    8.8930   16.8090 C.1       1 P29501      0.0000 
     26 N26        22.6610    8.8540   15.8130 N.1       1 P29501      0.0000 
     27 H          20.0709   10.6520   17.7538 H         1 P29501      0.0000 
     28 H          19.5458    9.9094   22.1954 H         1 P29501      0.0000 
     29 H          20.2103    7.5706   23.8883 H         1 P29501      0.0000 
     30 H          19.2112    8.9690   24.3198 H         1 P29501      0.0000 
     31 H          21.2214   10.3346   24.6245 H         1 P29501      0.0000 
     32 H          22.2407    8.9693   24.1376 H         1 P29501      0.0000 
     33 H          21.3491    6.6759   25.6809 H         1 P29501      0.0000 
     34 H          21.2268    6.4564   28.1529 H         1 P29501      0.0000 
     35 H          21.1287   10.3854   27.2743 H         1 P29501      0.0000 
     36 H          23.2058    5.7325   22.4409 H         1 P29501      0.0000 
     37 H          23.3757    5.5456   18.6957 H         1 P29501      0.0000 
     38 H          24.8094    3.9586   17.5673 H         1 P29501      0.0000 
     39 H          26.2677    2.5145   18.8577 H         1 P29501      0.0000 
     40 H          26.2627    2.6484   21.2738 H         1 P29501      0.0000 
     41 H          24.8274    4.2316   22.4036 H         1 P29501      0.0000 
@<TRIPOS>BOND
     1    2    1 2    
     2    5    1 1    
     3    3    2 1    
     4   27    2 1    
     5    4    3 2    
     6   25    3 1    
     7    5    4 1    
     8    6    4 1    
     9    9    5 1    
    10    7    6 2    
    11    8    7 1    
    12   18    7 1    
    13    9    8 2    
    14   10    9 1    
    15   11   10 1    
    16   28   10 1    
    17   12   11 1    
    18   29   11 1    
    19   30   11 1    
    20   13   12 1    
    21   31   12 1    
    22   32   12 1    
    23   14   13 1    
    24   17   13 2    
    25   15   14 1    
    26   33   14 1    
    27   16   15 2    
    28   34   15 1    
    29   17   16 1    
    30   35   17 1    
    31   19   18 1    
    32   36   18 1    
    33   20   19 ar   
    34   24   19 ar   
    35   21   20 ar   
    36   37   20 1    
    37   22   21 ar   
    38   38   21 1    
    39   23   22 ar   
    40   39   22 1    
    41   24   23 ar   
    42   40   23 1    
    43   41   24 1    
    44   26   25 3    
@<TRIPOS>SUBSTRUCTURE
     1 P29501      1 GROUP   
@<TRIPOS>SET

