#    Name: 3FUF_2_CAVITY_N1_6.mol2
#    Modification time : Mon Mar 10 17:19:18 2014

@<TRIPOS>MOLECULE
3FUF_2_CAVITY_N1_6.mol2
  146     0     7     0     0
SMALL
NO_CHARGES


@<TRIPOS>ATOM
      1 O           3.9832  -12.1366    6.9695 O.2       2 ALA2        0.0000 
      2 NZ          5.3047  -12.6445    6.4738 N.2       4 LYS4        0.0000 
      3 NZ          6.6263  -13.1523    5.9781 N.2       4 LYS4        0.0000 
      4 O           3.2738  -13.1064    6.0716 O.2       2 ALA2        0.0000 
      5 DU          4.5953  -13.6142    5.5759 H         7 CUB7        0.0000 
      6 CA          5.9168  -14.1221    5.0802 C.3       6 GLY6        0.0000 
      7 O           2.5643  -14.0761    5.1737 O.2       2 ALA2        0.0000 
      8 OD1         3.8858  -14.5840    4.6780 O.3       3 ASP3        0.0000 
      9 O           1.8549  -15.0459    4.2758 O.2       2 ALA2        0.0000 
     10 CA          4.6762  -10.1413    6.7728 C.3       6 GLY6        0.0000 
     11 NZ          5.9978  -10.6492    6.2771 N.2       4 LYS4        0.0000 
     12 NZ          7.3193  -11.1571    5.7814 N.2       4 LYS4        0.0000 
     13 OG          8.6408  -11.6649    5.2858 O.2       1 SER1        0.0000 
     14 NZ          2.6453  -10.6032    6.3705 N.2       4 LYS4        0.0000 
     15 DU          3.9668  -11.1111    5.8749 H         7 CUB7        0.0000 
     16 DU          5.2883  -11.6190    5.3792 H         7 CUB7        0.0000 
     17 DU          6.6098  -12.1268    4.8836 H         7 CUB7        0.0000 
     18 OG          7.9313  -12.6347    4.3879 O.2       1 SER1        0.0000 
     19 O           3.2573  -12.0809    4.9770 O.2       2 ALA2        0.0000 
     20 OD1         4.5788  -12.5887    4.4813 O.3       3 ASP3        0.0000 
     21 OD1         5.9003  -13.0966    3.9857 O.3       3 ASP3        0.0000 
     22 OD1         7.2219  -13.6045    3.4900 O.3       3 ASP3        0.0000 
     23 O           2.5479  -13.0506    4.0791 O.2       2 ALA2        0.0000 
     24 OD1         3.8694  -13.5585    3.5834 O.3       3 ASP3        0.0000 
     25 OD1         1.8384  -14.0204    3.1812 O.3       3 ASP3        0.0000 
     26 N          -0.1926  -14.4823    2.7790 N.2       2 ALA2        0.0000 
     27 N           3.2725   -4.5060    1.7955 N.2       2 ALA2        0.0000 
     28 OG          4.5940   -5.0139    1.2999 O.2       1 SER1        0.0000 
     29 N           3.8845   -5.9837    0.4020 N.2       2 ALA2        0.0000 
     30 CZ          5.2060   -6.4915   -0.0937 C.ar      5 PHE5        0.0000 
     31 O           3.1751   -6.9535   -0.4959 O.2       2 ALA2        0.0000 
     32 O           4.4966   -7.4613   -0.9916 O.2       2 ALA2        0.0000 
     33 CZ          5.8181   -7.9692   -1.4872 C.ar      5 PHE5        0.0000 
     34 CZ          7.1396   -8.4770   -1.9829 C.ar      5 PHE5        0.0000 
     35 CZ          8.4611   -8.9849   -2.4786 C.ar      5 PHE5        0.0000 
     36 O           5.1086   -8.9389   -2.3851 O.2       2 ALA2        0.0000 
     37 CZ         13.4109   -1.1710    2.7121 C.ar      5 PHE5        0.0000 
     38 CZ         12.7014   -2.1408    1.8142 C.ar      5 PHE5        0.0000 
     39 CA         14.0230   -2.6487    1.3185 C.3       6 GLY6        0.0000 
     40 OG          5.2870   -3.0187    1.1032 O.2       1 SER1        0.0000 
     41 OG          6.6085   -3.5265    0.6075 O.2       1 SER1        0.0000 
     42 N           4.5776   -3.9884    0.2053 N.2       2 ALA2        0.0000 
     43 CZ          5.8991   -4.4963   -0.2904 C.ar      5 PHE5        0.0000 
     44 CZ         12.0729    0.3623    2.1132 C.ar      5 PHE5        0.0000 
     45 CZ         13.3945   -0.1455    1.6175 C.ar      5 PHE5        0.0000 
     46 CZ         11.3635   -0.6074    1.2153 C.ar      5 PHE5        0.0000 
     47 N          12.6850   -1.1153    0.7196 N.2       2 ALA2        0.0000 
     48 CZ          9.3325   -1.0694    0.8130 C.ar      5 PHE5        0.0000 
     49 CZ         10.6540   -1.5772    0.3174 C.ar      5 PHE5        0.0000 
     50 CZ         11.9755   -2.0851   -0.1783 C.ar      5 PHE5        0.0000 
     51 N           7.3015   -1.5313    0.4108 N.2       2 ALA2        0.0000 
     52 CZ          8.6230   -2.0391   -0.0848 C.ar      5 PHE5        0.0000 
     53 CZ          9.9446   -2.5470   -0.5805 C.ar      5 PHE5        0.0000 
     54 N           5.2706   -1.9932    0.0086 N.2       2 ALA2        0.0000 
     55 CZ          6.5921   -2.5010   -0.4871 C.ar      5 PHE5        0.0000 
     56 CZ          7.9136   -3.0089   -0.9827 C.ar      5 PHE5        0.0000 
     57 N           4.5611   -2.9629   -0.8893 N.2       2 ALA2        0.0000 
     58 CA         12.0565    1.3878    1.0186 C.3       6 GLY6        0.0000 
     59 CA         13.3780    0.8799    0.5229 C.3       6 GLY6        0.0000 
     60 CA         11.3470    0.4180    0.1207 C.3       6 GLY6        0.0000 
     61 CA         12.6685   -0.0898   -0.3750 C.3       6 GLY6        0.0000 
     62 CA          9.3161   -0.0439   -0.2815 C.3       6 GLY6        0.0000 
     63 CA         10.6376   -0.5517   -0.7772 C.3       6 GLY6        0.0000 
     64 N          11.9591   -1.0596   -1.2729 N.2       2 ALA2        0.0000 
     65 N           7.2851   -0.5058   -0.6838 N.2       2 ALA2        0.0000 
     66 CA          8.6066   -1.0136   -1.1794 C.3       6 GLY6        0.0000 
     67 OG          9.9281   -1.5215   -1.6751 O.2       1 SER1        0.0000 
     68 NZ         11.2496   -2.0294   -2.1708 N.2       4 LYS4        0.0000 
     69 N           5.2541   -0.9677   -1.0860 N.2       2 ALA2        0.0000 
     70 N           6.5756   -1.4755   -1.5817 N.2       2 ALA2        0.0000 
     71 OG          7.8971   -1.9834   -2.0773 O.2       1 SER1        0.0000 
     72 CZ          5.8662   -2.4453   -2.4795 C.ar      5 PHE5        0.0000 
     73 NZ         11.9426   -0.0341   -2.3674 N.2       4 LYS4        0.0000 
     74 O           9.9117   -0.4960   -2.7697 O.2       2 ALA2        0.0000 
     75 CZ          4.6598   -9.1158    5.6782 C.ar      5 PHE5        0.0000 
     76 CZ          5.9813   -9.6237    5.1825 C.ar      5 PHE5        0.0000 
     77 CZ          7.3028  -10.1316    4.6869 C.ar      5 PHE5        0.0000 
     78 OG          8.6243  -10.6394    4.1912 O.2       1 SER1        0.0000 
     79 O           2.6288   -9.5778    5.2760 O.2       2 ALA2        0.0000 
     80 DU          3.9503  -10.0856    4.7803 H         7 CUB7        0.0000 
     81 DU          5.2718  -10.5935    4.2846 H         7 CUB7        0.0000 
     82 DU          6.5934  -11.1013    3.7890 H         7 CUB7        0.0000 
     83 OG          7.9149  -11.6092    3.2933 O.2       1 SER1        0.0000 
     84 O           1.9194  -10.5475    4.3781 O.2       2 ALA2        0.0000 
     85 DU          3.2409  -11.0554    3.8824 H         7 CUB7        0.0000 
     86 OD1         4.5624  -11.5633    3.3867 O.3       3 ASP3        0.0000 
     87 OD1         5.8839  -12.0711    2.8911 O.3       3 ASP3        0.0000 
     88 CA          7.2054  -12.5790    2.3954 C.3       6 GLY6        0.0000 
     89 OG          8.5269  -13.0868    1.8998 O.2       1 SER1        0.0000 
     90 CA          1.2099  -11.5173    3.4802 C.3       6 GLY6        0.0000 
     91 OD1         2.5314  -12.0252    2.9845 O.3       3 ASP3        0.0000 
     92 OD1         3.8529  -12.5330    2.4889 O.3       3 ASP3        0.0000 
     93 O           1.8220  -12.9949    2.0866 O.2       2 ALA2        0.0000 
     94 CZ          4.6433   -8.0904    4.5836 C.ar      5 PHE5        0.0000 
     95 CZ          5.9649   -8.5982    4.0879 C.ar      5 PHE5        0.0000 
     96 CZ          7.2864   -9.1061    3.5923 C.ar      5 PHE5        0.0000 
     97 CZ          8.6079   -9.6140    3.0966 C.ar      5 PHE5        0.0000 
     98 CA          2.6124   -8.5523    4.1814 C.3       6 GLY6        0.0000 
     99 DU          3.9339   -9.0601    3.6857 H         7 CUB7        0.0000 
    100 DU          5.2554   -9.5680    3.1901 H         7 CUB7        0.0000 
    101 DU          6.5769  -10.0759    2.6944 H         7 CUB7        0.0000 
    102 DU          7.8984  -10.5837    2.1987 H         7 CUB7        0.0000 
    103 OG          9.2199  -11.0916    1.7031 O.2       1 SER1        0.0000 
    104 CA          0.5814   -9.0142    3.7792 C.3       6 GLY6        0.0000 
    105 CA          1.9029   -9.5220    3.2835 C.3       6 GLY6        0.0000 
    106 DU          3.2244  -10.0299    2.7878 H         7 CUB7        0.0000 
    107 DU          4.5459  -10.5378    2.2922 H         7 CUB7        0.0000 
    108 OD1         5.8674  -11.0456    1.7965 O.3       3 ASP3        0.0000 
    109 CA          7.1890  -11.5535    1.3008 C.3       6 GLY6        0.0000 
    110 CA          8.5105  -12.0614    0.8052 C.3       6 GLY6        0.0000 
    111 O           2.5150  -10.9997    1.8899 O.2       2 ALA2        0.0000 
    112 O           3.8365  -11.5075    1.3943 O.2       2 ALA2        0.0000 
    113 OD1         5.1580  -12.0154    0.8986 O.3       3 ASP3        0.0000 
    114 CZ          4.6269   -7.0649    3.4890 C.ar      5 PHE5        0.0000 
    115 OG          7.2699   -8.0806    2.4977 O.2       1 SER1        0.0000 
    116 NZ          1.2744   -7.0189    3.5825 N.2       4 LYS4        0.0000 
    117 NZ          2.5959   -7.5268    3.0868 N.2       4 LYS4        0.0000 
    118 DU          3.9174   -8.0347    2.5911 H         7 CUB7        0.0000 
    119 OG          5.2389   -8.5425    2.0955 O.2       1 SER1        0.0000 
    120 OG          6.5605   -9.0504    1.5998 O.2       1 SER1        0.0000 
    121 OG          7.8820   -9.5582    1.1041 O.2       1 SER1        0.0000 
    122 CZ          9.2035  -10.0661    0.6085 C.ar      5 PHE5        0.0000 
    123 CA          0.5650   -7.9887    2.6846 C.3       6 GLY6        0.0000 
    124 NZ          1.8865   -8.4966    2.1889 N.2       4 LYS4        0.0000 
    125 DU          3.2080   -9.0044    1.6932 H         7 CUB7        0.0000 
    126 DU          4.5295   -9.5123    1.1976 H         7 CUB7        0.0000 
    127 DU          5.8510  -10.0201    0.7019 H         7 CUB7        0.0000 
    128 CA          7.1725  -10.5280    0.2063 C.3       6 GLY6        0.0000 
    129 CA          8.4940  -11.0359   -0.2894 C.3       6 GLY6        0.0000 
    130 CA          1.1770   -9.4663    1.2910 C.3       6 GLY6        0.0000 
    131 O           2.4985   -9.9742    0.7954 O.2       2 ALA2        0.0000 
    132 O           3.8200  -10.4821    0.2997 O.2       2 ALA2        0.0000 
    133 CA          5.1415  -10.9899   -0.1960 C.3       6 GLY6        0.0000 
    134 OG          4.6104   -6.0394    2.3944 O.2       1 SER1        0.0000 
    135 NZ          2.5795   -6.5013    1.9922 N.2       4 LYS4        0.0000 
    136 NZ          3.9010   -7.0092    1.4966 N.2       4 LYS4        0.0000 
    137 OG          5.2225   -7.5170    1.0009 O.2       1 SER1        0.0000 
    138 O           1.8700   -7.4711    1.0943 O.2       2 ALA2        0.0000 
    139 O           3.1915   -7.9789    0.5987 O.2       2 ALA2        0.0000 
    140 O           4.5130   -8.4868    0.1030 O.2       2 ALA2        0.0000 
    141 OG          5.8345   -8.9947   -0.3927 O.2       1 SER1        0.0000 
    142 OG          7.1561   -9.5025   -0.8883 O.2       1 SER1        0.0000 
    143 CA          8.4776  -10.0104   -1.3840 C.3       6 GLY6        0.0000 
    144 O           3.8036   -9.4566   -0.7949 O.2       2 ALA2        0.0000 
    145 O           5.1251   -9.9644   -1.2906 O.2       2 ALA2        0.0000 
    146 CA          6.4466  -10.4723   -1.7862 C.3       6 GLY6        0.0000 
@<TRIPOS>BOND
@<TRIPOS>SUBSTRUCTURE
     1 SER1       13 GROUP   
     2 ALA2        1 GROUP   
     3 ASP3        8 GROUP   
     4 LYS4        2 GROUP   
     5 PHE5       30 GROUP   
     6 GLY6        6 GROUP   
     7 CUB7        5 GROUP   
@<TRIPOS>SET

