#    Name: 3fuf_BES_2_INTS_M
#    Modification time : Tue Mar 25 06:29:28 2014

@<TRIPOS>MOLECULE
3fuf_BES_2_INTS_M
   62     0    15     0     0
SMALL
NO_CHARGES


@<TRIPOS>ATOM
      1 OD1         3.1395   -1.0430    2.0550 O.co2     3 ASC3        0.0000 
      2 OD1         4.2840   -1.5150    1.7390 O.co2    13 ASL3        0.0000 
      3 OD1         1.9950   -0.5710    2.3710 O.co2     8 ASP3        0.0000 
      4 OD1         3.6280   -0.3655    2.7585 O.co2     3 ASC3        0.0000 
      5 OD1         2.9720    0.7840    3.7780 O.co2     8 ASP3        0.0000 
      6 OD1         5.2870   -1.8185    3.1540 O.co2     3 ASC3        0.0000 
      7 OD1         6.2900   -2.1220    4.5690 O.co2     8 ASP3        0.0000 
      8 O           4.8300   -0.3395    1.2365 O.2       1 ALC1        0.0000 
      9 O           4.2840   -1.5150    1.7390 O.2      11 ALL1        0.0000 
     10 O           5.3760    0.8360    0.7340 O.2       6 ALP1        0.0000 
     11 O           3.1395   -1.0430    2.0550 O.2       1 ALC1        0.0000 
     12 O           1.9950   -0.5710    2.3710 O.2       6 ALP1        0.0000 
     13 O           3.6280   -0.3655    2.7585 O.2       1 ALC1        0.0000 
     14 O           2.9720    0.7840    3.7780 O.2       6 ALP1        0.0000 
     15 CA          5.5190   -4.3585   -1.3250 C.3       5 GLC5        0.0000 
     16 CA          4.9730   -3.3080    0.2070 C.3      15 GLL5        0.0000 
     17 CA          6.0650   -5.4090   -2.8570 C.3      10 GLP5        0.0000 
     18 CA          2.4095   -4.5870    3.7820 C.3       5 GLC5        0.0000 
     19 CA          3.3300   -3.8050    2.0060 C.3      15 GLL5        0.0000 
     20 CA          1.4890   -5.3690    5.5580 C.3      10 GLP5        0.0000 
     21 Zn          3.2795   -3.4300    4.0050 Zn        4 ZIC7        0.0000 
     22 Zn          2.6590   -3.2910    3.1540 Zn       14 ZIL7        0.0000 
     23 Zn          3.9000   -3.5690    4.8560 Zn        9 ZIP7        0.0000 
     24 N           1.5390   -4.2280    2.6270 N.am      2 SEC2        0.0000 
     25 N           2.6590   -3.2910    3.1540 N.am     12 SEL2        0.0000 
     26 N           0.4190   -5.1650    2.1000 N.am      7 SEP2        0.0000 
     27 O           2.3270   -1.9310    2.7625 O.2       1 ALC1        0.0000 
     28 O           2.6590   -3.2910    3.1540 O.2      11 ALL1        0.0000 
     29 Zn          4.3125   -4.5230    3.9375 Zn        4 ZIC7        0.0000 
     30 Zn          4.7250   -5.4770    3.0190 Zn       14 ZIL7        0.0000 
     31 N           6.0440   -5.2775    2.9480 N.am      2 SEC2        0.0000 
     32 N           4.7250   -5.4770    3.0190 N.am     12 SEL2        0.0000 
     33 N           7.3630   -5.0780    2.8770 N.am      7 SEP2        0.0000 
     34 O           2.4175   -5.2370    0.5585 O.2       1 ALC1        0.0000 
     35 O           3.1560   -6.1880    1.6300 O.2      11 ALL1        0.0000 
     36 O           1.6790   -4.2860   -0.5130 O.2       6 ALP1        0.0000 
     37 CA          0.3245   -8.5955    2.0310 C.3       5 GLC5        0.0000 
     38 CA          2.4650   -8.2980    2.6510 C.3      15 GLL5        0.0000 
     39 CA         -1.8160   -8.8930    1.4110 C.3      10 GLP5        0.0000 
     40 CA          1.9770   -6.8335    4.1045 C.3       5 GLC5        0.0000 
     41 CA          5.4805   -7.6415    4.6560 C.3       5 GLC5        0.0000 
     42 CA          4.1010   -9.0510    4.4290 C.3      15 GLL5        0.0000 
     43 CA          6.8600   -6.2320    4.8830 C.3      10 GLP5        0.0000 
     44 CA         -0.3090   -9.4570    4.2665 C.3       5 GLC5        0.0000 
     45 CA          1.6770   -9.2750    4.8290 C.3      15 GLL5        0.0000 
     46 CA         -2.2950   -9.6390    3.7040 C.3      10 GLP5        0.0000 
     47 N           2.9665   -7.9180   -1.6870 N.am      2 SEC2        0.0000 
     48 N           3.5710   -7.5080   -0.5810 N.am     12 SEL2        0.0000 
     49 N           2.3620   -8.3280   -2.7930 N.am      7 SEP2        0.0000 
     50 N           2.0855   -7.1135   -0.9735 N.am      2 SEC2        0.0000 
     51 N           0.6000   -6.7190   -1.3660 N.am      7 SEP2        0.0000 
     52 CA          6.5235    0.2460   -1.7107 C.3       5 GLC5        0.0000 
     53 CA          6.1580   -2.0350   -1.6180 C.3      15 GLL5        0.0000 
     54 CA          6.3400    2.1650   -1.5350 C.3      10 GLP5        0.0000 
     55 CA          4.3319   -1.1289   -1.0254 C.3       5 GLC5        0.0000 
     56 CA          2.7990    0.2180   -1.2140 C.3      10 GLP5        0.0000 
     57 CA          7.7588    0.4380   -0.4913 C.3       5 GLC5        0.0000 
     58 CA          8.3950   -1.0740   -1.4130 C.3      15 GLL5        0.0000 
     59 CA          7.1130    2.1950   -0.2220 C.3      10 GLP5        0.0000 
     60 CA          1.8155   -7.6799    5.4735 C.3       5 GLC5        0.0000 
     61 CA          2.7410   -8.4060    4.1610 C.3      15 GLL5        0.0000 
     62 CA          1.0820   -6.3580    6.3850 C.3      10 GLP5        0.0000 
@<TRIPOS>BOND
@<TRIPOS>SUBSTRUCTURE
     1 ALC1        8 GROUP        1 X    ALC  0     ROOT ALC X 1
     2 SEC2       24 GROUP        1 X    SEC  0     **** SEC X 2
     3 ASC3        1 GROUP        1 X    ASC  0     **** ASC X 3
     4 ZIC7       21 GROUP        1 X    ZIC  0     **** ZIC X 5
     5 GLC5       15 GROUP        1 X    GLC  0     **** GLC X 6
     6 ALP1       10 GROUP        1 Y    ALP  0     ROOT ALP Y 8
     7 SEP2       26 GROUP        1 Y    SEP  0     **** SEP Y 9
     8 ASP3        3 GROUP        1 Y    ASP  0     **** ASP Y 10
     9 ZIP7       23 GROUP        1 Y    ZIP  0     **** ZIP Y 12
    10 GLP5       17 GROUP        1 Y    GLP  0     **** GLP Y 13
    11 ALL1        9 GROUP        1 Z    ALL  0     ROOT ALL Z 15
    12 SEL2       25 GROUP        1 Z    SEL  0     **** SEL Z 16
    13 ASL3        2 GROUP        1 Z    ASL  0     **** ASL Z 17
    14 ZIL7       22 GROUP        1 Z    ZIL  0     **** ZIL Z 19
    15 GLL5       16 GROUP        1 Z    GLL  0     **** GLL Z 20
@<TRIPOS>SET

