#    Name: 3fuf_BES_2_ligand
#    Modification time : Tue Mar 25 06:29:29 2014

@<TRIPOS>MOLECULE
3fuf_BES_2_ligand
   46    46     1     0     0
SMALL
NO_CHARGES


@<TRIPOS>ATOM
      1 N2          4.2840   -1.5150    1.7390 N.4       1 BES720      0.0000 
      2 C1          4.5450   -2.9500    1.6250 C.3       1 BES720      0.0000 
      3 C6          4.9730   -3.3080    0.2070 C.3       1 BES720      0.0000 
      4 C7          6.1700   -2.5250   -0.3180 C.ar      1 BES720      0.0000 
      5 C8          6.1580   -2.0350   -1.6180 C.ar      1 BES720      0.0000 
      6 C12         7.3200   -2.2810    0.4300 C.ar      1 BES720      0.0000 
      7 C9          7.2560   -1.3110   -2.1550 C.ar      1 BES720      0.0000 
      8 C11         8.4140   -1.5640   -0.1080 C.ar      1 BES720      0.0000 
      9 C10         8.3950   -1.0740   -1.4130 C.ar      1 BES720      0.0000 
     10 C2          3.3300   -3.8050    2.0060 C.3       1 BES720      0.0000 
     11 O2          2.6590   -3.2910    3.1540 O.3       1 BES720      0.0000 
     12 C3          3.7920   -5.2130    2.2650 C.2       1 BES720      0.0000 
     13 O3          4.7250   -5.4770    3.0190 O.2       1 BES720      0.0000 
     14 N1          3.1560   -6.1880    1.6300 N.am      1 BES720      0.0000 
     15 C4          3.5520   -7.5910    1.8150 C.3       1 BES720      0.0000 
     16 C13         2.4650   -8.2980    2.6510 C.3       1 BES720      0.0000 
     17 C14         2.7410   -8.4060    4.1610 C.3       1 BES720      0.0000 
     18 C15         4.1010   -9.0510    4.4290 C.3       1 BES720      0.0000 
     19 C16         1.6770   -9.2750    4.8290 C.3       1 BES720      0.0000 
     20 C5          3.7400   -8.2170    0.4500 C.2       1 BES720      0.0000 
     21 O1          3.5710   -7.5080   -0.5810 O.co2     1 BES720      0.0000 
     22 O4          4.0440   -9.4230    0.3800 O.co2     1 BES720      0.0000 
     23 H           5.3659   -3.2357    2.2904 H         1 BES720      0.0000 
     24 H           4.1155   -3.1506   -0.4757 H         1 BES720      0.0000 
     25 H           5.2076   -4.3894    0.1667 H         1 BES720      0.0000 
     26 H           5.3320   -2.1950   -2.2230 H         1 BES720      0.0000 
     27 H           7.3839   -2.6287    1.4025 H         1 BES720      0.0000 
     28 H           7.1829   -0.9605   -3.1269 H         1 BES720      0.0000 
     29 H           9.2446   -1.4038    0.4884 H         1 BES720      0.0000 
     30 H           9.1823   -0.5695   -1.7917 H         1 BES720      0.0000 
     31 H           2.6669   -3.8274    1.1421 H         1 BES720      0.0000 
     32 H           2.3653   -6.0244    0.9846 H         1 BES720      0.0000 
     33 H           4.4804   -7.6341    2.3580 H         1 BES720      0.0000 
     34 H           2.3160   -9.3182    2.2438 H         1 BES720      0.0000 
     35 H           1.5048   -7.7642    2.5032 H         1 BES720      0.0000 
     36 H           2.7205   -7.4337    4.5996 H         1 BES720      0.0000 
     37 H           4.4782   -1.1741    2.6588 H         1 BES720      0.0000 
     38 H           4.8458   -0.9838    1.1048 H         1 BES720      0.0000 
     39 H           3.3292   -1.2943    1.5402 H         1 BES720      0.0000 
     40 H           4.8486   -8.5215    4.0282 H         1 BES720      0.0000 
     41 H           4.2888   -9.1285    5.4081 H         1 BES720      0.0000 
     42 H           4.1567   -9.9731    4.0460 H         1 BES720      0.0000 
     43 H           1.6654  -10.2019    4.4540 H         1 BES720      0.0000 
     44 H           1.8306   -9.3590    5.8136 H         1 BES720      0.0000 
     45 H           0.7590   -8.8978    4.7067 H         1 BES720      0.0000 
     46 H           2.5478   -2.3138    2.9727 H         1 BES720      0.0000 
@<TRIPOS>BOND
     1    2    1 1    
     2   37    1 1    
     3   38    1 1    
     4   39    1 1    
     5    3    2 1    
     6   10    2 1    
     7   23    2 1    
     8    4    3 1    
     9   24    3 1    
    10   25    3 1    
    11    5    4 ar   
    12    6    4 ar   
    13    7    5 ar   
    14   26    5 1    
    15    8    6 ar   
    16   27    6 1    
    17    9    7 ar   
    18   28    7 1    
    19    9    8 ar   
    20   29    8 1    
    21   30    9 1    
    22   11   10 1    
    23   12   10 1    
    24   31   10 1    
    25   46   11 1    
    26   13   12 2    
    27   14   12 am   
    28   15   14 1    
    29   32   14 1    
    30   16   15 1    
    31   20   15 1    
    32   33   15 1    
    33   17   16 1    
    34   34   16 1    
    35   35   16 1    
    36   18   17 1    
    37   19   17 1    
    38   36   17 1    
    39   40   18 1    
    40   41   18 1    
    41   42   18 1    
    42   43   19 1    
    43   44   19 1    
    44   45   19 1    
    45   21   20 ar   
    46   22   20 ar   
@<TRIPOS>SUBSTRUCTURE
     1 BES720      1 GROUP   
@<TRIPOS>SET

