#    Name: 4elg_52J_5_INTS_M
#    Modification time : Mon Mar 24 18:13:42 2014

@<TRIPOS>MOLECULE
4elg_52J_5_INTS_M
  101     0     9     0     0
SMALL
NO_CHARGES


@<TRIPOS>ATOM
      1 O         -18.3695   -5.1445   35.9160 O.2       1 ALC1        0.0000 
      2 O         -19.2760   -4.8660   36.7460 O.2       7 ALL1        0.0000 
      3 O         -17.4630   -5.4230   35.0860 O.2       4 ALP1        0.0000 
      4 O         -20.4225   -5.1030   35.8580 O.2       1 ALC1        0.0000 
      5 O         -21.5690   -5.3400   34.9700 O.2       4 ALP1        0.0000 
      6 O         -19.1150   -6.1975   35.8190 O.2       1 ALC1        0.0000 
      7 O         -18.9540   -7.5290   34.8920 O.2       4 ALP1        0.0000 
      8 CA        -17.5795   -3.3120   36.8805 C.3       3 GLC5        0.0000 
      9 CA        -18.8220   -4.3040   38.0650 C.3       9 GLL5        0.0000 
     10 CA        -16.3370   -2.3200   35.6960 C.3       6 GLP5        0.0000 
     11 CA        -17.4155   -5.5390   37.5070 C.3       3 GLC5        0.0000 
     12 CA        -16.0090   -6.7740   36.9490 C.3       6 GLP5        0.0000 
     13 CA        -21.6445   -2.6240   37.7795 C.3       3 GLC5        0.0000 
     14 CA        -21.2150   -4.1750   38.7730 C.3       9 GLL5        0.0000 
     15 CA        -22.0740   -1.0730   36.7860 C.3       6 GLP5        0.0000 
     16 CA        -26.0515   -6.7205   43.2115 C.3       3 GLC5        0.0000 
     17 CA        -25.0780   -5.3280   41.9960 C.3       9 GLL5        0.0000 
     18 CA        -27.0250   -8.1130   44.4270 C.3       6 GLP5        0.0000 
     19 CA        -23.7625   -5.6155   43.0625 C.3       3 GLC5        0.0000 
     20 CA        -22.4470   -5.9030   44.1290 C.3       6 GLP5        0.0000 
     21 CA        -27.1720   -5.4110   41.2365 C.3       3 GLC5        0.0000 
     22 CA        -29.2660   -5.4940   40.4770 C.3       6 GLP5        0.0000 
     23 CA        -23.1585   -3.1520   43.9845 C.3       3 GLC5        0.0000 
     24 CA        -24.6450   -1.7180   43.8440 C.3       9 GLL5        0.0000 
     25 CA        -21.6720   -4.5860   44.1250 C.3       6 GLP5        0.0000 
     26 CA        -22.7235   -0.7420   44.4125 C.3       3 GLC5        0.0000 
     27 CA        -20.8020    0.2340   44.9810 C.3       6 GLP5        0.0000 
     28 N         -24.9955    3.0685   42.7995 N.am      2 SEC2        0.0000 
     29 N         -23.6190    3.0390   42.9130 N.am      8 SEL2        0.0000 
     30 N         -26.3720    3.0980   42.6860 N.am      5 SEP2        0.0000 
     31 N         -24.5070    4.0875   43.0005 N.am      2 SEC2        0.0000 
     32 N         -25.3950    5.1360   43.0880 N.am      5 SEP2        0.0000 
     33 CA        -17.8355   -4.8735   40.9670 C.3       3 GLC5        0.0000 
     34 CA        -19.2980   -3.4340   40.2970 C.3       9 GLL5        0.0000 
     35 CA        -16.3730   -6.3130   41.6370 C.3       6 GLP5        0.0000 
     36 CA        -19.4380   -2.0290   41.6130 C.3       3 GLC5        0.0000 
     37 CA        -19.5780   -0.6240   42.9290 C.3       6 GLP5        0.0000 
     38 CA        -17.9520   -1.8525   40.0330 C.3       3 GLC5        0.0000 
     39 CA        -16.6060   -0.2710   39.7690 C.3       6 GLP5        0.0000 
     40 N         -17.0885   -3.0180   41.6515 N.am      2 SEC2        0.0000 
     41 N         -17.9580   -3.2700   40.4870 N.am      8 SEL2        0.0000 
     42 N         -16.2190   -2.7660   42.8160 N.am      5 SEP2        0.0000 
     43 CA        -16.7125   -2.9620   37.6070 C.3       3 GLC5        0.0000 
     44 CA        -17.0880   -3.6040   39.5180 C.3       9 GLL5        0.0000 
     45 CA        -16.5485   -5.1890   38.2335 C.3       3 GLC5        0.0000 
     46 CA        -16.7305   -4.9585   40.5775 C.3       3 GLC5        0.0000 
     47 CA        -16.8470   -1.9375   39.6435 C.3       3 GLC5        0.0000 
     48 O         -15.9485   -3.0930   41.2810 O.2       1 ALC1        0.0000 
     49 O         -15.6780   -3.4200   39.7460 O.2       7 ALL1        0.0000 
     50 O         -16.2190   -2.7660   42.8160 O.2       4 ALP1        0.0000 
     51 O         -14.9985   -3.1695   40.7330 O.2       1 ALC1        0.0000 
     52 O         -14.3190   -2.9190   41.7200 O.2       4 ALP1        0.0000 
     53 CA        -21.0495   -0.1665   41.9500 C.3       3 GLC5        0.0000 
     54 CA        -22.5210    0.2910   40.9710 C.3       9 GLL5        0.0000 
     55 CA        -22.9285    1.4040   39.2215 C.3       3 GLC5        0.0000 
     56 CA        -23.3360    2.5170   37.4720 C.3       6 GLP5        0.0000 
     57 CA        -21.6470   -0.1930   39.0090 C.3       3 GLC5        0.0000 
     58 CA        -20.7730   -0.6770   37.0470 C.3       6 GLP5        0.0000 
     59 CA        -21.8640    0.5950   43.5615 C.3       3 GLC5        0.0000 
     60 CA        -22.9260    0.9560   42.1420 C.3       9 GLL5        0.0000 
     61 CA        -19.7755    3.2460   43.3255 C.3       3 GLC5        0.0000 
     62 CA        -20.6890    4.9800   42.5810 C.3       9 GLL5        0.0000 
     63 CA        -18.8620    1.5120   44.0700 C.3       6 GLP5        0.0000 
     64 CA        -19.0505    5.6290   41.3295 C.3       3 GLC5        0.0000 
     65 CA        -17.4120    6.2780   40.0780 C.3       6 GLP5        0.0000 
     66 CA        -20.0660    3.3025   44.5780 C.3       3 GLC5        0.0000 
     67 CA        -21.2700    5.0930   45.0860 C.3       9 GLL5        0.0000 
     68 CA        -22.2245    3.4835   38.3375 C.3       3 GLC5        0.0000 
     69 CA        -21.1130    4.4500   39.2030 C.3       9 GLL5        0.0000 
     70 CA        -18.8845    5.2635   38.4035 C.3       3 GLC5        0.0000 
     71 CA        -20.8460    5.0500   37.9440 C.3       9 GLL5        0.0000 
     72 CA        -16.9230    5.4770   38.8630 C.3       6 GLP5        0.0000 
     73 CA        -21.3380    3.9270   36.0715 C.3       3 GLC5        0.0000 
     74 CA        -21.8300    2.8040   34.1990 C.3       6 GLP5        0.0000 
     75 CA        -19.3675    7.0970   38.7890 C.3       3 GLC5        0.0000 
     76 CA        -20.9820    6.4450   37.7830 C.3       9 GLL5        0.0000 
     77 CA        -17.7530    7.7490   39.7950 C.3       6 GLP5        0.0000 
     78 CA        -19.3840    7.7850   42.4625 C.3       3 GLC5        0.0000 
     79 CA        -20.2030    7.1940   43.9730 C.3       9 GLL5        0.0000 
     80 CA        -18.5650    8.3760   40.9520 C.3       6 GLP5        0.0000 
     81 CA        -24.8912   -2.5185   40.1250 C.3       3 GLC5        0.0000 
     82 CA        -23.8460   -3.3020   41.5010 C.3       9 GLL5        0.0000 
     83 CA        -26.3280   -1.3720   39.2030 C.3       6 GLP5        0.0000 
     84 CA        -22.6186   -3.6883   42.7308 C.3       3 GLC5        0.0000 
     85 CA        -24.7620   -1.4775   40.2173 C.3       3 GLC5        0.0000 
     86 CA        -22.7160   -1.2500   40.8370 C.3       9 GLL5        0.0000 
     87 CA        -21.0663   -1.2070   41.7486 C.3       3 GLC5        0.0000 
     88 CA        -23.6760   -1.9160   41.6260 C.3       9 GLL5        0.0000 
     89 CA        -19.3612    5.5587   39.9075 C.3       3 GLC5        0.0000 
     90 CA        -21.5080    5.2290   40.2710 C.3       9 GLL5        0.0000 
     91 CA        -20.0365    7.6457   40.2163 C.3       3 GLC5        0.0000 
     92 CA        -21.3730    7.2200   38.8460 C.3       9 GLL5        0.0000 
     93 CA        -22.6103    5.6719   37.5894 C.3       3 GLC5        0.0000 
     94 CA        -24.0770    4.8600   36.8240 C.3       6 GLP5        0.0000 
     95 CA        -23.2840    7.6963   38.8462 C.3       3 GLC5        0.0000 
     96 CA        -25.0600    8.4770   38.2120 C.3       6 GLP5        0.0000 
     97 CA        -20.8047    6.7584   36.4564 C.3       3 GLC5        0.0000 
     98 CA        -20.4660    7.0330   34.5580 C.3       6 GLP5        0.0000 
     99 CA        -23.1971    4.8215   39.7925 C.3       3 GLC5        0.0000 
    100 CA        -21.6430    6.6110   40.1150 C.3       9 GLL5        0.0000 
    101 CA        -24.7490    3.8820   39.0620 C.3       6 GLP5        0.0000 
@<TRIPOS>BOND
@<TRIPOS>SUBSTRUCTURE
     1 ALC1        1 GROUP        1 X    ALC  0     ROOT ALC X 1
     2 SEC2       28 GROUP        1 X    SEC  0     **** SEC X 2
     3 GLC5        8 GROUP        1 X    GLC  0     **** GLC X 6
     4 ALP1        3 GROUP        1 Y    ALP  0     ROOT ALP Y 8
     5 SEP2       30 GROUP        1 Y    SEP  0     **** SEP Y 9
     6 GLP5       10 GROUP        1 Y    GLP  0     **** GLP Y 13
     7 ALL1        2 GROUP        1 Z    ALL  0     ROOT ALL Z 15
     8 SEL2       29 GROUP        1 Z    SEL  0     **** SEL Z 16
     9 GLL5        9 GROUP        1 Z    GLL  0     **** GLL Z 20
@<TRIPOS>SET

