#    Name: 4elg_52J_5_ligand
#    Modification time : Mon Mar 24 18:13:42 2014

@<TRIPOS>MOLECULE
4elg_52J_5_ligand
   69    72     1     0     0
SMALL
NO_CHARGES


@<TRIPOS>ATOM
      1 N01       -19.2760   -4.8660   36.7460 N.pl3     1 52J201      0.0000 
      2 C02       -18.8220   -4.3040   38.0650 C.ar      1 52J201      0.0000 
      3 C03       -19.7650   -3.9720   39.0400 C.ar      1 52J201      0.0000 
      4 C04       -21.2150   -4.1750   38.7730 C.3       1 52J201      0.0000 
      5 C05       -22.0830   -3.3540   39.7880 C.ar      1 52J201      0.0000 
      6 C06       -23.0630   -4.0280   40.5930 C.ar      1 52J201      0.0000 
      7 C07       -23.8460   -3.3020   41.5010 C.ar      1 52J201      0.0000 
      8 O08       -24.7760   -3.9490   42.2640 O.3       1 52J201      0.0000 
      9 C09       -25.0780   -5.3280   41.9960 C.3       1 52J201      0.0000 
     10 C10       -23.6760   -1.9160   41.6260 C.ar      1 52J201      0.0000 
     11 O11       -24.4510   -1.2050   42.5250 O.3       1 52J201      0.0000 
     12 C12       -24.6450   -1.7180   43.8440 C.3       1 52J201      0.0000 
     13 C13       -22.7160   -1.2500   40.8370 C.ar      1 52J201      0.0000 
     14 O30       -23.6190    3.0390   42.9130 O.2       1 52J201      0.0000 
     15 C31       -21.9130   -1.9970   39.9050 C.ar      1 52J201      0.0000 
     16 C32       -19.2980   -3.4340   40.2970 C.ar      1 52J201      0.0000 
     17 N33       -17.9580   -3.2700   40.4870 N.ar      1 52J201      0.0000 
     18 C34       -17.0880   -3.6040   39.5180 C.ar      1 52J201      0.0000 
     19 N35       -15.6780   -3.4200   39.7460 N.pl3     1 52J201      0.0000 
     20 N36       -17.5050   -4.1200   38.3070 N.ar      1 52J201      0.0000 
     21 C14       -22.5210    0.2910   40.9710 C.2       1 52J201      0.0000 
     22 C15       -22.9260    0.9560   42.1420 C.2       1 52J201      0.0000 
     23 C16       -22.8470    2.4440   42.2280 C.2       1 52J201      0.0000 
     24 N17       -21.8500    3.1670   41.4970 N.am      1 52J201      0.0000 
     25 N18       -20.9640    2.5220   40.7150 N.2       1 52J201      0.0000 
     26 C19       -20.9660    2.9780   39.3540 C.2       1 52J201      0.0000 
     27 C20       -21.7870    4.5930   41.5910 C.3       1 52J201      0.0000 
     28 C21       -20.6890    4.9800   42.5810 C.3       1 52J201      0.0000 
     29 C22       -21.0980    5.8720   43.8080 C.3       1 52J201      0.0000 
     30 C23       -21.2700    5.0930   45.0860 C.3       1 52J201      0.0000 
     31 C24       -21.5080    5.2290   40.2710 C.ar      1 52J201      0.0000 
     32 C25       -21.1130    4.4500   39.2030 C.ar      1 52J201      0.0000 
     33 C26       -20.8460    5.0500   37.9440 C.ar      1 52J201      0.0000 
     34 C27       -20.9820    6.4450   37.7830 C.ar      1 52J201      0.0000 
     35 C28       -21.3730    7.2200   38.8460 C.ar      1 52J201      0.0000 
     36 C29       -21.6430    6.6110   40.1150 C.ar      1 52J201      0.0000 
     37 C37       -20.2030    7.1940   43.9730 C.3       1 52J201      0.0000 
     38 H         -20.1787   -4.5735   36.4303 H         1 52J201      0.0000 
     39 H         -18.6390   -5.4874   36.2898 H         1 52J201      0.0000 
     40 H         -21.4856   -5.2237   38.8791 H         1 52J201      0.0000 
     41 H         -21.4749   -3.8416   37.7702 H         1 52J201      0.0000 
     42 H         -23.1776   -5.0361   40.4926 H         1 52J201      0.0000 
     43 H         -21.2242   -1.4896   39.3437 H         1 52J201      0.0000 
     44 H         -19.9871   -3.1930   41.0049 H         1 52J201      0.0000 
     45 H         -15.3730   -3.4902   40.6957 H         1 52J201      0.0000 
     46 H         -15.1214   -3.2373   38.9356 H         1 52J201      0.0000 
     47 H         -22.1005    0.7479   40.1855 H         1 52J201      0.0000 
     48 H         -23.2775    0.4583   42.9493 H         1 52J201      0.0000 
     49 H         -20.8810    2.4011   38.5871 H         1 52J201      0.0000 
     50 H         -22.7208    4.9937   41.9822 H         1 52J201      0.0000 
     51 H         -19.8766    5.5130   42.0357 H         1 52J201      0.0000 
     52 H         -20.2164    4.0544   42.9828 H         1 52J201      0.0000 
     53 H         -22.1354    6.2775   43.5366 H         1 52J201      0.0000 
     54 H         -20.5558    4.4682   37.1575 H         1 52J201      0.0000 
     55 H         -20.7849    6.8629   36.8659 H         1 52J201      0.0000 
     56 H         -21.4796    8.2351   38.7601 H         1 52J201      0.0000 
     57 H         -21.9332    7.2010   40.8956 H         1 52J201      0.0000 
     58 H         -24.2700   -5.9099   42.0886 H         1 52J201      0.0000 
     59 H         -25.7700   -5.6853   42.6232 H         1 52J201      0.0000 
     60 H         -25.4281   -5.4580   41.0684 H         1 52J201      0.0000 
     61 H         -23.7792   -1.8198   44.3340 H         1 52J201      0.0000 
     62 H         -25.2245   -1.1172   44.3946 H         1 52J201      0.0000 
     63 H         -25.0826   -2.6171   43.8322 H         1 52J201      0.0000 
     64 H         -20.4261    4.6283   45.3541 H         1 52J201      0.0000 
     65 H         -21.5342    5.6838   45.8484 H         1 52J201      0.0000 
     66 H         -21.9769    4.3909   45.0007 H         1 52J201      0.0000 
     67 H         -19.2364    6.9741   44.1046 H         1 52J201      0.0000 
     68 H         -20.2622    7.7853   43.1688 H         1 52J201      0.0000 
     69 H         -20.4891    7.7403   44.7602 H         1 52J201      0.0000 
@<TRIPOS>BOND
     1    2    1 1    
     2   38    1 1    
     3   39    1 1    
     4    3    2 ar   
     5   20    2 ar   
     6    4    3 1    
     7   16    3 ar   
     8    5    4 1    
     9   40    4 1    
    10   41    4 1    
    11    6    5 ar   
    12   15    5 ar   
    13    7    6 ar   
    14   42    6 1    
    15    8    7 1    
    16   10    7 ar   
    17    9    8 1    
    18   58    9 1    
    19   59    9 1    
    20   60    9 1    
    21   11   10 1    
    22   13   10 ar   
    23   12   11 1    
    24   61   12 1    
    25   62   12 1    
    26   63   12 1    
    27   15   13 ar   
    28   21   13 1    
    29   23   14 2    
    30   43   15 1    
    31   17   16 ar   
    32   44   16 1    
    33   18   17 ar   
    34   19   18 1    
    35   20   18 ar   
    36   45   19 1    
    37   46   19 1    
    38   22   21 2    
    39   47   21 1    
    40   23   22 1    
    41   48   22 1    
    42   24   23 am   
    43   25   24 1    
    44   27   24 1    
    45   26   25 2    
    46   32   26 1    
    47   49   26 1    
    48   28   27 1    
    49   31   27 1    
    50   50   27 1    
    51   29   28 1    
    52   51   28 1    
    53   52   28 1    
    54   30   29 1    
    55   37   29 1    
    56   53   29 1    
    57   64   30 1    
    58   65   30 1    
    59   66   30 1    
    60   32   31 ar   
    61   36   31 ar   
    62   33   32 ar   
    63   34   33 ar   
    64   54   33 1    
    65   35   34 ar   
    66   55   34 1    
    67   36   35 ar   
    68   56   35 1    
    69   57   36 1    
    70   67   37 1    
    71   68   37 1    
    72   69   37 1    
@<TRIPOS>SUBSTRUCTURE
     1 52J201      1 GROUP   
@<TRIPOS>SET

