#    Name: 1bnq_AL4_1_INTS_M
#    Modification time : Mon Mar 24 19:39:57 2014

@<TRIPOS>MOLECULE
1bnq_AL4_1_INTS_M
   44     0    12     0     0
SMALL
NO_CHARGES


@<TRIPOS>ATOM
      1 CA         -4.6610    8.8910   13.8640 C.3       4 GLC5        0.0000 
      2 CA         -3.3570    7.4280   13.8130 C.3      12 GLL5        0.0000 
      3 CA         -5.9650   10.3540   13.9150 C.3       8 GLP5        0.0000 
      4 CA         -1.9695    6.3585   16.3755 C.3       4 GLC5        0.0000 
      5 CA         -2.1140    7.2940   14.6710 C.3      12 GLL5        0.0000 
      6 CA         -1.8250    5.4230   18.0800 C.3       8 GLP5        0.0000 
      7 CA         -0.4545    6.6620   15.2770 C.3       4 GLC5        0.0000 
      8 CA          1.2050    6.0300   15.8830 C.3       8 GLP5        0.0000 
      9 CA         -3.9315    9.9840   14.5295 C.3       4 GLC5        0.0000 
     10 CA         -1.8980    9.6140   15.1440 C.3      12 GLL5        0.0000 
     11 CA         -3.2340   10.2835   16.5155 C.3       4 GLC5        0.0000 
     12 CA         -4.5700   10.9530   17.8870 C.3       8 GLP5        0.0000 
     13 CA         -1.1275    9.3600   17.2080 C.3       4 GLC5        0.0000 
     14 CA         -0.3570    9.1060   19.2720 C.3       8 GLP5        0.0000 
     15 N          -4.0935    0.5075   18.7650 N.am      2 SEC2        0.0000 
     16 N          -5.3690    0.9060   18.2470 N.am     10 SEL2        0.0000 
     17 N          -2.8180    0.1090   19.2830 N.am      6 SEP2        0.0000 
     18 O          -4.6350   -1.2780   17.1775 O.2       1 ALC1        0.0000 
     19 O          -5.5150   -0.4740   16.3480 O.2       9 ALL1        0.0000 
     20 O          -3.7550   -2.0820   18.0070 O.2       5 ALP1        0.0000 
     21 Zn         -6.1695   -1.0410   15.9095 Zn        3 ZIC7        0.0000 
     22 Zn         -5.5150   -0.4740   16.3480 Zn       11 ZIL7        0.0000 
     23 Zn         -6.8240   -1.6080   15.4710 Zn        7 ZIP7        0.0000 
     24 CA         -3.4060    2.7390   17.1365 C.3       4 GLC5        0.0000 
     25 CA         -4.2770    2.2090   15.2360 C.3      12 GLL5        0.0000 
     26 CA         -2.5350    3.2690   19.0370 C.3       8 GLP5        0.0000 
     27 CA         -2.9565    0.7035   14.8795 C.3       4 GLC5        0.0000 
     28 CA         -1.6360   -0.8020   14.5230 C.3       8 GLP5        0.0000 
     29 CA         -8.1365    3.4890   15.5615 C.3       4 GLC5        0.0000 
     30 CA         -6.3670    3.5540   15.9020 C.3      12 GLL5        0.0000 
     31 CA         -9.9060    3.4240   15.2210 C.3       8 GLP5        0.0000 
     32 Zn         -5.3915    2.2560   14.6540 Zn        3 ZIC7        0.0000 
     33 Zn         -3.9590    6.1200   13.8370 Zn       11 ZIL7        0.0000 
     34 CA         -0.2630    1.0930    9.5950 C.3       4 GLC5        0.0000 
     35 CA         -1.2660    1.8440   10.8680 C.3      12 GLL5        0.0000 
     36 CA          0.7400    0.3420    8.3220 C.3       8 GLP5        0.0000 
     37 CA          0.2677    1.4547   11.5600 C.3       4 GLC5        0.0000 
     38 CA         -1.4990    2.9730   11.8820 C.3      12 GLL5        0.0000 
     39 CA          1.9180    0.5010   11.7450 C.3       8 GLP5        0.0000 
     40 CA         -0.9988    1.3188   13.1450 C.3       4 GLC5        0.0000 
     41 CA         -0.6150    0.2290   14.9150 C.3       8 GLP5        0.0000 
     42 CA         -4.7659    4.1624   17.0052 C.3       4 GLC5        0.0000 
     43 CA         -4.1380    3.3910   14.5620 C.3      12 GLL5        0.0000 
     44 CA         -4.2520    4.9970   18.6820 C.3       8 GLP5        0.0000 
@<TRIPOS>BOND
@<TRIPOS>SUBSTRUCTURE
     1 ALC1       18 GROUP        1 X    ALC  0     ROOT ALC X 1
     2 SEC2       15 GROUP        1 X    SEC  0     **** SEC X 2
     3 ZIC7       21 GROUP        1 X    ZIC  0     **** ZIC X 5
     4 GLC5        1 GROUP        1 X    GLC  0     **** GLC X 6
     5 ALP1       20 GROUP        1 Y    ALP  0     ROOT ALP Y 8
     6 SEP2       17 GROUP        1 Y    SEP  0     **** SEP Y 9
     7 ZIP7       23 GROUP        1 Y    ZIP  0     **** ZIP Y 12
     8 GLP5        3 GROUP        1 Y    GLP  0     **** GLP Y 13
     9 ALL1       19 GROUP        1 Z    ALL  0     ROOT ALL Z 15
    10 SEL2       16 GROUP        1 Z    SEL  0     **** SEL Z 16
    11 ZIL7       22 GROUP        1 Z    ZIL  0     **** ZIL Z 19
    12 GLL5        2 GROUP        1 Z    GLL  0     **** GLL Z 20
@<TRIPOS>SET

