#    Name: 1bnq_AL4_1_ligand
#    Modification time : Mon Mar 24 19:39:57 2014

@<TRIPOS>MOLECULE
1bnq_AL4_1_ligand
   39    40     1     0     0
SMALL
NO_CHARGES


@<TRIPOS>ATOM
      1 C3         -5.4110    2.1300   15.9940 C.2       1 AL4555      0.0000 
      2 C9         -3.4750    5.2100   12.8070 C.3       1 AL4555      0.0000 
      3 C10        -3.0900    3.9100   13.5610 C.3       1 AL4555      0.0000 
      4 C11        -3.3570    7.4280   13.8130 C.3       1 AL4555      0.0000 
      5 C12        -2.1140    7.2940   14.6710 C.3       1 AL4555      0.0000 
      6 C14        -1.8980    9.6140   15.1440 C.3       1 AL4555      0.0000 
      7 C16        -1.4990    2.9730   11.8820 C.3       1 AL4555      0.0000 
      8 O1A        -5.3690    0.9060   18.2470 O.2       1 AL4555      0.0000 
      9 O2A        -7.3410    1.0020   17.0140 O.2       1 AL4555      0.0000 
     10 N21        -5.5150   -0.4740   16.3480 N.pl3     1 AL4555      0.0000 
     11 S1         -5.9400    0.8170   16.9460 S.o2      1 AL4555      0.0000 
     12 C4         -4.2770    2.2090   15.2360 C.2       1 AL4555      0.0000 
     13 C5         -4.1380    3.3910   14.5620 C.2       1 AL4555      0.0000 
     14 C6         -5.2030    4.2360   14.8560 C.2       1 AL4555      0.0000 
     15 S2         -6.3670    3.5540   15.9020 S.3       1 AL4555      0.0000 
     16 S7         -5.3460    5.8670   14.3380 S.o2      1 AL4555      0.0000 
     17 O3B        -6.3440    5.9330   13.3320 O.2       1 AL4555      0.0000 
     18 O4B        -5.7570    6.7250   15.3850 O.2       1 AL4555      0.0000 
     19 N8         -3.9590    6.1200   13.8370 N.pl3     1 AL4555      0.0000 
     20 N15        -2.8090    2.9050   12.5390 N.4       1 AL4555      0.0000 
     21 O13        -1.3150    8.4560   14.5440 O.3       1 AL4555      0.0000 
     22 C17        -1.2660    1.8440   10.8680 C.3       1 AL4555      0.0000 
     23 H          -4.2404    4.9673   12.0970 H         1 AL4555      0.0000 
     24 H          -2.5953    5.5858   12.3235 H         1 AL4555      0.0000 
     25 H          -2.1627    4.1185   14.1056 H         1 AL4555      0.0000 
     26 H          -3.0605    7.7131   12.8193 H         1 AL4555      0.0000 
     27 H          -3.9991    8.1714   14.2507 H         1 AL4555      0.0000 
     28 H          -1.5776    6.3908   14.3475 H         1 AL4555      0.0000 
     29 H          -2.4374    7.1308   15.7088 H         1 AL4555      0.0000 
     30 H          -0.6866    2.9280   12.6313 H         1 AL4555      0.0000 
     31 H          -1.3816    3.9355   11.3498 H         1 AL4555      0.0000 
     32 H          -4.6340   -0.8328   16.6562 H         1 AL4555      0.0000 
     33 H          -3.6102    1.4716   15.1788 H         1 AL4555      0.0000 
     34 H          -2.0496    9.4879   16.1244 H         1 AL4555      0.0000 
     35 H          -1.3155   10.4200   15.0388 H         1 AL4555      0.0000 
     36 H          -2.7836    9.8373   14.7368 H         1 AL4555      0.0000 
     37 H          -0.3683    1.9148   10.4332 H         1 AL4555      0.0000 
     38 H          -1.3129    0.9426   11.2985 H         1 AL4555      0.0000 
     39 H          -1.9477    1.8553   10.1365 H         1 AL4555      0.0000 
@<TRIPOS>BOND
     1   11    1 1    
     2   12    1 2    
     3   15    1 1    
     4    3    2 1    
     5   19    2 1    
     6   23    2 1    
     7   24    2 1    
     8   13    3 1    
     9   20    3 1    
    10   25    3 1    
    11    5    4 1    
    12   19    4 1    
    13   26    4 1    
    14   27    4 1    
    15   21    5 1    
    16   28    5 1    
    17   29    5 1    
    18   21    6 1    
    19   34    6 1    
    20   35    6 1    
    21   36    6 1    
    22   20    7 1    
    23   22    7 1    
    24   30    7 1    
    25   31    7 1    
    26   11    8 2    
    27   11    9 2    
    28   11   10 1    
    29   32   10 1    
    30   13   12 1    
    31   33   12 1    
    32   14   13 2    
    33   15   14 1    
    34   16   14 1    
    35   17   16 2    
    36   18   16 2    
    37   19   16 1    
    38   37   22 1    
    39   38   22 1    
    40   39   22 1    
@<TRIPOS>SUBSTRUCTURE
     1 AL4555      1 GROUP   
@<TRIPOS>SET

