#    Name: 3b9o_FMN_1_INTS_M
#    Modification time : Mon Mar 24 19:11:16 2014

@<TRIPOS>MOLECULE
3b9o_FMN_1_INTS_M
   59     0     9     0     0
SMALL
NO_CHARGES


@<TRIPOS>ATOM
      1 O         -23.3990   32.6635   24.7980 O.2       1 ALC1        0.0000 
      2 O         -23.7020   33.1140   23.5050 O.2       7 ALL1        0.0000 
      3 O         -23.0960   32.2130   26.0910 O.2       4 ALP1        0.0000 
      4 N         -20.9840   33.1600   24.4890 N.am      2 SEC2        0.0000 
      5 N         -21.5390   33.4460   22.8810 N.am      8 SEL2        0.0000 
      6 N         -20.4290   32.8740   26.0970 N.am      5 SEP2        0.0000 
      7 CA        -20.0890   35.8320   16.5305 C.3       3 GLC5        0.0000 
      8 CA        -21.2740   34.9710   15.4690 C.3       9 GLL5        0.0000 
      9 CA        -18.9040   36.6930   17.5920 C.3       6 GLP5        0.0000 
     10 CA        -19.7690   33.8570   14.4300 C.3       3 GLC5        0.0000 
     11 CA        -18.2640   32.7430   13.3910 C.3       6 GLP5        0.0000 
     12 CA        -24.8715   35.6315   13.5570 C.3       3 GLC5        0.0000 
     13 CA        -24.0980   34.8410   14.9350 C.3       9 GLL5        0.0000 
     14 CA        -25.6450   36.4220   12.1790 C.3       6 GLP5        0.0000 
     15 CA        -25.8525   35.9675   17.0120 C.3       3 GLC5        0.0000 
     16 CA        -24.4890   34.3110   17.3650 C.3       9 GLL5        0.0000 
     17 CA        -27.2160   37.6240   16.6590 C.3       6 GLP5        0.0000 
     18 CA        -25.9960   36.1445   21.3780 C.3       3 GLC5        0.0000 
     19 CA        -27.0340   35.0520   19.8020 C.3       9 GLL5        0.0000 
     20 CA        -24.9580   37.2370   22.9540 C.3       6 GLP5        0.0000 
     21 CA        -27.1250   36.3380   18.2305 C.3       3 GLC5        0.0000 
     22 O         -27.3300   36.8865   20.5960 O.2       1 ALC1        0.0000 
     23 O         -26.0750   35.9610   20.3450 O.2       7 ALL1        0.0000 
     24 O         -28.5850   37.8120   20.8470 O.2       4 ALP1        0.0000 
     25 CA        -27.4035   35.6400   22.7420 C.3       3 GLC5        0.0000 
     26 CA        -28.2020   34.9530   20.7970 C.3       9 GLL5        0.0000 
     27 CA        -26.6050   36.3270   24.6870 C.3       6 GLP5        0.0000 
     28 CA        -29.0865   34.2830   22.7470 C.3       3 GLC5        0.0000 
     29 CA        -29.9710   33.6130   24.6970 C.3       6 GLP5        0.0000 
     30 N         -28.8660   34.5690   23.0665 N.am      2 SEC2        0.0000 
     31 N         -27.9070   34.1180   21.9380 N.am      8 SEL2        0.0000 
     32 N         -29.8250   35.0200   24.1950 N.am      5 SEP2        0.0000 
     33 CA        -29.7495   32.5480   20.7855 C.3       3 GLC5        0.0000 
     34 CA        -29.5520   34.6320   20.1180 C.3       9 GLL5        0.0000 
     35 CA        -29.9470   30.4640   21.4530 C.3       6 GLP5        0.0000 
     36 O         -29.6120   32.4820   20.9605 O.2       1 ALC1        0.0000 
     37 O         -30.2090   33.5190   20.7320 O.2       7 ALL1        0.0000 
     38 O         -29.0150   31.4450   21.1890 O.2       4 ALP1        0.0000 
     39 CA        -28.3410   35.9930   17.6355 C.3       3 GLC5        0.0000 
     40 CA        -29.4660   34.3620   18.6120 C.3       9 GLL5        0.0000 
     41 N         -29.8465   37.1805   18.3410 N.am      2 SEC2        0.0000 
     42 N         -29.6620   35.6320   18.0030 N.am      8 SEL2        0.0000 
     43 N         -30.0310   38.7290   18.6790 N.am      5 SEP2        0.0000 
     44 N         -30.3900   38.0010   17.6350 N.am      2 SEC2        0.0000 
     45 N         -30.7490   37.2730   16.5910 N.am      8 SEL2        0.0000 
     46 N         -30.5435   37.2030   14.9365 N.am      2 SEC2        0.0000 
     47 N         -30.3380   37.1330   13.2820 N.am      5 SEP2        0.0000 
     48 N         -31.6410   37.5685   15.8600 N.am      2 SEC2        0.0000 
     49 N         -32.5330   37.8640   15.1290 N.am      5 SEP2        0.0000 
     50 N         -28.5560   36.2600   14.9685 N.am      2 SEC2        0.0000 
     51 N         -29.3160   35.4350   15.5360 N.am      8 SEL2        0.0000 
     52 N         -27.7960   37.0850   14.4010 N.am      5 SEP2        0.0000 
     53 N         -29.8270   36.2840   14.4090 N.am      2 SEC2        0.0000 
     54 CA        -22.5168   36.0865   18.5210 C.3       3 GLC5        0.0000 
     55 CA        -22.6560   34.1420   18.9610 C.3       9 GLL5        0.0000 
     56 CA        -22.8260   37.8850   18.6040 C.3       6 GLP5        0.0000 
     57 CA        -22.8655   36.2585   17.5375 C.3       3 GLC5        0.0000 
     58 CA        -22.2250   34.6600   16.6050 C.3       9 GLL5        0.0000 
     59 CA        -23.5445   36.0392   18.3122 C.3       3 GLC5        0.0000 
@<TRIPOS>BOND
@<TRIPOS>SUBSTRUCTURE
     1 ALC1        1 GROUP        1 X    ALC  0     ROOT ALC X 1
     2 SEC2        4 GROUP        1 X    SEC  0     **** SEC X 2
     3 GLC5        7 GROUP        1 X    GLC  0     **** GLC X 6
     4 ALP1        3 GROUP        1 Y    ALP  0     ROOT ALP Y 8
     5 SEP2        6 GROUP        1 Y    SEP  0     **** SEP Y 9
     6 GLP5        9 GROUP        1 Y    GLP  0     **** GLP Y 13
     7 ALL1        2 GROUP        1 Z    ALL  0     ROOT ALL Z 15
     8 SEL2        5 GROUP        1 Z    SEL  0     **** SEL Z 16
     9 GLL5        8 GROUP        1 Z    GLL  0     **** GLL Z 20
@<TRIPOS>SET

