#    Name: 3b9o_FMN_1_ligand
#    Modification time : Mon Mar 24 19:11:16 2014

@<TRIPOS>MOLECULE
3b9o_FMN_1_ligand
   50    52     1     0     0
SMALL
NO_CHARGES


@<TRIPOS>ATOM
      1 N1        -25.4010   33.2890   21.9010 N.2       1 FMN441      0.0000 
      2 C2        -25.0360   33.0630   23.1840 C.2       1 FMN441      0.0000 
      3 O2        -25.9470   32.8160   24.0280 O.2       1 FMN441      0.0000 
      4 N3        -23.7020   33.1140   23.5050 N.am      1 FMN441      0.0000 
      5 C4        -22.7460   33.3950   22.5630 C.2       1 FMN441      0.0000 
      6 O4        -21.5390   33.4460   22.8810 O.2       1 FMN441      0.0000 
      7 C4A       -23.1220   33.6390   21.2330 C.2       1 FMN441      0.0000 
      8 N5        -22.2230   33.9310   20.2450 N.2       1 FMN441      0.0000 
      9 C5A       -22.6560   34.1420   18.9610 C.ar      1 FMN441      0.0000 
     10 C6        -21.7590   34.4340   17.9150 C.ar      1 FMN441      0.0000 
     11 C7        -22.2250   34.6600   16.6050 C.ar      1 FMN441      0.0000 
     12 C7M       -21.2740   34.9710   15.4690 C.3       1 FMN441      0.0000 
     13 C8        -23.5850   34.6040   16.3370 C.ar      1 FMN441      0.0000 
     14 C8M       -24.0980   34.8410   14.9350 C.3       1 FMN441      0.0000 
     15 C9        -24.4890   34.3110   17.3650 C.ar      1 FMN441      0.0000 
     16 C9A       -24.0370   34.0760   18.6760 C.ar      1 FMN441      0.0000 
     17 N10       -24.9180   33.7920   19.6700 N.pl3     1 FMN441      0.0000 
     18 C10       -24.4860   33.5680   20.9280 C.2       1 FMN441      0.0000 
     19 C1'       -26.3730   33.7170   19.4180 C.3       1 FMN441      0.0000 
     20 C2'       -27.0340   35.0520   19.8020 C.3       1 FMN441      0.0000 
     21 O2'       -26.0750   35.9610   20.3450 O.3       1 FMN441      0.0000 
     22 C3'       -28.2020   34.9530   20.7970 C.3       1 FMN441      0.0000 
     23 O3'       -27.9070   34.1180   21.9380 O.3       1 FMN441      0.0000 
     24 C4'       -29.5520   34.6320   20.1180 C.3       1 FMN441      0.0000 
     25 O4'       -30.2090   33.5190   20.7320 O.3       1 FMN441      0.0000 
     26 C5'       -29.4660   34.3620   18.6120 C.3       1 FMN441      0.0000 
     27 O5'       -29.6620   35.6320   18.0030 O.3       1 FMN441      0.0000 
     28 P         -30.3580   35.8250   16.5680 P.3       1 FMN441      0.0000 
     29 O1P       -31.5070   34.8300   16.5610 O.co2     1 FMN441      0.0000 
     30 O2P       -30.7490   37.2730   16.5910 O.co2     1 FMN441      0.0000 
     31 O3P       -29.3160   35.4350   15.5360 O.co2     1 FMN441      0.0000 
     32 H         -23.4086   32.9340   24.4924 H         1 FMN441      0.0000 
     33 H         -20.7504   34.4829   18.1102 H         1 FMN441      0.0000 
     34 H         -25.4974   34.2663   17.1619 H         1 FMN441      0.0000 
     35 H         -26.8269   32.9267   20.0129 H         1 FMN441      0.0000 
     36 H         -26.5724   33.5267   18.3651 H         1 FMN441      0.0000 
     37 H         -27.4493   35.4938   18.8721 H         1 FMN441      0.0000 
     38 H         -28.3310   36.0266   21.1905 H         1 FMN441      0.0000 
     39 H         -30.1963   35.5319   20.2374 H         1 FMN441      0.0000 
     40 H         -30.2400   33.6584   18.3559 H         1 FMN441      0.0000 
     41 H         -28.4929   33.9508   18.4033 H         1 FMN441      0.0000 
     42 H         -20.7461   35.8022   15.6436 H         1 FMN441      0.0000 
     43 H         -20.6167   34.2318   15.3220 H         1 FMN441      0.0000 
     44 H         -21.7592   35.1079   14.6054 H         1 FMN441      0.0000 
     45 H         -23.8520   35.7499   14.5982 H         1 FMN441      0.0000 
     46 H         -23.7257   34.1774   14.2862 H         1 FMN441      0.0000 
     47 H         -25.0944   34.7704   14.8872 H         1 FMN441      0.0000 
     48 H         -26.5923   36.7927   20.5469 H         1 FMN441      0.0000 
     49 H         -26.9430   33.8722   21.8363 H         1 FMN441      0.0000 
     50 H         -29.5242   33.1178   21.3403 H         1 FMN441      0.0000 
@<TRIPOS>BOND
     1    2    1 1    
     2   18    1 2    
     3    3    2 2    
     4    4    2 am   
     5    5    4 am   
     6   32    4 1    
     7    6    5 2    
     8    7    5 1    
     9    8    7 2    
    10   18    7 1    
    11    9    8 1    
    12   10    9 ar   
    13   16    9 ar   
    14   11   10 ar   
    15   33   10 1    
    16   12   11 1    
    17   13   11 ar   
    18   42   12 1    
    19   43   12 1    
    20   44   12 1    
    21   14   13 1    
    22   15   13 ar   
    23   45   14 1    
    24   46   14 1    
    25   47   14 1    
    26   16   15 ar   
    27   34   15 1    
    28   17   16 1    
    29   18   17 1    
    30   19   17 1    
    31   20   19 1    
    32   35   19 1    
    33   36   19 1    
    34   21   20 1    
    35   22   20 1    
    36   37   20 1    
    37   48   21 1    
    38   23   22 1    
    39   24   22 1    
    40   38   22 1    
    41   49   23 1    
    42   25   24 1    
    43   26   24 1    
    44   39   24 1    
    45   50   25 1    
    46   27   26 1    
    47   40   26 1    
    48   41   26 1    
    49   28   27 1    
    50   29   28 ar   
    51   30   28 ar   
    52   31   28 ar   
@<TRIPOS>SUBSTRUCTURE
     1 FMN441      1 GROUP   
@<TRIPOS>SET

