#    Name: 3p76_P76_2_INTS_M
#    Modification time : Tue Mar 25 06:01:08 2014

@<TRIPOS>MOLECULE
3p76_P76_2_INTS_M
   88     0    12     0     0
SMALL
NO_CHARGES


@<TRIPOS>ATOM
      1 O          -6.2230   21.8315   -5.0890 O.2       1 ALC1        0.0000 
      2 O          -6.3340   20.9290   -3.8250 O.2       9 ALL1        0.0000 
      3 O          -6.1120   22.7340   -6.3530 O.2       5 ALP1        0.0000 
      4 Zn         -4.5690   24.4370   -3.8040 Zn        3 ZIC7        0.0000 
      5 Zn         -4.9710   23.5140   -4.0160 Zn       11 ZIL7        0.0000 
      6 Zn         -4.1670   25.3600   -3.5920 Zn        7 ZIP7        0.0000 
      7 N          -5.5415   23.1240   -5.1845 N.am      2 SEC2        0.0000 
      8 N          -4.9710   23.5140   -4.0160 N.am     10 SEL2        0.0000 
      9 N          -6.1120   22.7340   -6.3530 N.am      6 SEP2        0.0000 
     10 Zn         -4.6525   24.9320   -2.6140 Zn        3 ZIC7        0.0000 
     11 Zn         -5.1380   24.5040   -1.6360 Zn       11 ZIL7        0.0000 
     12 O          -5.9700   24.8615   -0.8480 O.2       1 ALC1        0.0000 
     13 O          -5.1380   24.5040   -1.6360 O.2       9 ALL1        0.0000 
     14 O          -6.8020   25.2190   -0.0600 O.2       5 ALP1        0.0000 
     15 O          -6.7655   23.9715   -1.6850 O.2       1 ALC1        0.0000 
     16 O          -8.3930   23.4390   -1.7340 O.2       5 ALP1        0.0000 
     17 CA         -8.6655   20.1225   -8.4070 C.3       4 GLC5        0.0000 
     18 CA         -9.3190   19.9930   -6.4180 C.3      12 GLL5        0.0000 
     19 CA         -8.0120   20.2520  -10.3960 C.3       8 GLP5        0.0000 
     20 CA         -8.3640   17.2040   -7.1210 C.3       4 GLC5        0.0000 
     21 CA         -9.5060   17.7230   -5.5370 C.3      12 GLL5        0.0000 
     22 CA         -7.2220   16.6850   -8.7050 C.3       8 GLP5        0.0000 
     23 CA         -8.6430   18.1965   -2.0775 C.3       4 GLC5        0.0000 
     24 CA         -8.7660   18.1420   -4.2670 C.3      12 GLL5        0.0000 
     25 CA         -8.5200   18.2510    0.1120 C.3       8 GLP5        0.0000 
     26 CA        -10.9770   15.3655   -8.3300 C.3       4 GLC5        0.0000 
     27 CA        -11.8010   17.1880   -7.4950 C.3      12 GLL5        0.0000 
     28 CA        -10.1530   13.5430   -9.1650 C.3       8 GLP5        0.0000 
     29 CA        -12.4920   14.9155   -8.7315 C.3       4 GLC5        0.0000 
     30 CA        -12.3450   16.7190   -8.7170 C.3      12 GLL5        0.0000 
     31 CA        -12.6390   13.1120   -8.7460 C.3       8 GLP5        0.0000 
     32 CA        -14.2200   15.8555   -8.4000 C.3       4 GLC5        0.0000 
     33 CA        -16.0950   14.9920   -8.0830 C.3       8 GLP5        0.0000 
     34 CA        -10.0925   19.8600  -10.4735 C.3       4 GLC5        0.0000 
     35 CA        -11.1660   18.4940   -9.9340 C.3      12 GLL5        0.0000 
     36 CA         -9.0190   21.2260  -11.0130 C.3       8 GLP5        0.0000 
     37 CA         -9.9545   18.0390  -11.4835 C.3       4 GLC5        0.0000 
     38 CA         -8.7430   17.5840  -13.0330 C.3       8 GLP5        0.0000 
     39 CA        -10.7550   20.9875   -7.9620 C.3       4 GLC5        0.0000 
     40 CA        -10.6570   18.9400   -8.7270 C.3      12 GLL5        0.0000 
     41 CA        -10.8530   23.0350   -7.1970 C.3       8 GLP5        0.0000 
     42 CA         -9.3345   19.5960   -9.5615 C.3       4 GLC5        0.0000 
     43 CA        -10.7670   16.8620  -13.3255 C.3       4 GLC5        0.0000 
     44 CA        -12.7910   16.1400  -13.6180 C.3      12 GLL5        0.0000 
     45 CA        -11.0905   14.4195  -12.3405 C.3       4 GLC5        0.0000 
     46 CA        -12.0180   15.0120  -14.0100 C.3      12 GLL5        0.0000 
     47 CA        -10.1630   13.8270  -10.6710 C.3       8 GLP5        0.0000 
     48 CA        -10.0155   15.1230  -13.7910 C.3       4 GLC5        0.0000 
     49 CA         -8.0130   15.2340  -13.5720 C.3       8 GLP5        0.0000 
     50 CA        -13.7465   18.7055  -13.7355 C.3       4 GLC5        0.0000 
     51 CA        -13.6920   16.7520  -14.5030 C.3      12 GLL5        0.0000 
     52 CA        -13.8010   20.6590  -12.9680 C.3       8 GLP5        0.0000 
     53 CA         -1.6870   20.1580   -3.4330 C.3       4 GLC5        0.0000 
     54 CA         -3.8040   20.6620   -3.8300 C.3      12 GLL5        0.0000 
     55 CA          0.4300   19.6540   -3.0360 C.3       8 GLP5        0.0000 
     56 CA         -4.1975   22.3780   -6.6885 C.3       4 GLC5        0.0000 
     57 CA         -3.6170   21.0070   -5.3020 C.3      12 GLL5        0.0000 
     58 CA         -4.7780   23.7490   -8.0750 C.3       8 GLP5        0.0000 
     59 CA         -2.4755   20.8770   -6.6705 C.3       4 GLC5        0.0000 
     60 CA         -1.3340   20.7470   -8.0390 C.3       8 GLP5        0.0000 
     61 CA         -2.8580   22.8145   -5.5245 C.3       4 GLC5        0.0000 
     62 CA         -2.0990   24.6220   -5.7470 C.3       8 GLP5        0.0000 
     63 N          -1.5180   20.2500   -2.4570 N.am      2 SEC2        0.0000 
     64 N          -2.6750   21.1780   -3.0930 N.am     10 SEL2        0.0000 
     65 N          -0.3610   19.3220   -1.8210 N.am      6 SEP2        0.0000 
     66 O          -2.3365   22.5915   -2.8035 O.2       1 ALC1        0.0000 
     67 O          -2.6750   21.1780   -3.0930 O.2       9 ALL1        0.0000 
     68 O          -1.9980   24.0050   -2.5140 O.2       5 ALP1        0.0000 
     69 CA        -10.2749   21.2929   -6.5857 C.3       4 GLC5        0.0000 
     70 CA         -8.8200   20.5060   -5.1040 C.3      12 GLL5        0.0000 
     71 CA         -8.9845   16.2327   -4.5265 C.3       4 GLC5        0.0000 
     72 CA         -8.8330   14.5330   -4.1510 C.3       8 GLP5        0.0000 
     73 CA         -9.0073   17.6582   -8.4055 C.3       4 GLC5        0.0000 
     74 CA        -10.9280   18.3230   -7.4850 C.3      12 GLL5        0.0000 
     75 CA        -12.6632   19.2593   -8.3255 C.3       4 GLC5        0.0000 
     76 CA        -13.9620   20.7630   -9.1610 C.3       8 GLP5        0.0000 
     77 CA        -12.7432   18.2299   -5.8349 C.3       4 GLC5        0.0000 
     78 CA        -14.2730   18.5720   -4.5040 C.3       8 GLP5        0.0000 
     79 CA        -13.0690   18.9093   -9.2405 C.3       4 GLC5        0.0000 
     80 CA        -12.4367   19.7400   -9.2457 C.3       4 GLC5        0.0000 
     81 CA        -13.1657   18.7315  -12.3565 C.3       4 GLC5        0.0000 
     82 CA        -12.4520   16.9970  -11.1910 C.3      12 GLL5        0.0000 
     83 CA        -10.6367   17.1940  -12.3890 C.3       4 GLC5        0.0000 
     84 CA        -12.6090   16.6110  -12.2990 C.3      12 GLL5        0.0000 
     85 CA        -11.2911   15.3649  -11.0495 C.3       4 GLC5        0.0000 
     86 CA        -12.4591   17.5056  -16.2236 C.3       4 GLC5        0.0000 
     87 CA        -13.8190   16.2170  -15.8140 C.3      12 GLL5        0.0000 
     88 CA        -11.3530   18.8090  -17.1890 C.3       8 GLP5        0.0000 
@<TRIPOS>BOND
@<TRIPOS>SUBSTRUCTURE
     1 ALC1        1 GROUP        1 X    ALC  0     ROOT ALC X 1
     2 SEC2        7 GROUP        1 X    SEC  0     **** SEC X 2
     3 ZIC7        4 GROUP        1 X    ZIC  0     **** ZIC X 5
     4 GLC5       17 GROUP        1 X    GLC  0     **** GLC X 6
     5 ALP1        3 GROUP        1 Y    ALP  0     ROOT ALP Y 8
     6 SEP2        9 GROUP        1 Y    SEP  0     **** SEP Y 9
     7 ZIP7        6 GROUP        1 Y    ZIP  0     **** ZIP Y 12
     8 GLP5       19 GROUP        1 Y    GLP  0     **** GLP Y 13
     9 ALL1        2 GROUP        1 Z    ALL  0     ROOT ALL Z 15
    10 SEL2        8 GROUP        1 Z    SEL  0     **** SEL Z 16
    11 ZIL7        5 GROUP        1 Z    ZIL  0     **** ZIL Z 19
    12 GLL5       18 GROUP        1 Z    GLL  0     **** GLL Z 20
@<TRIPOS>SET

