#    Name: 3p76_P76_2_ligand
#    Modification time : Tue Mar 25 06:01:08 2014

@<TRIPOS>MOLECULE
3p76_P76_2_ligand
   58    60     1     0     0
SMALL
NO_CHARGES


@<TRIPOS>ATOM
      1 N1         -6.3340   20.9290   -3.8250 N.am      1 P76273      0.0000 
      2 C2         -5.0740   21.2430   -3.1830 C.3       1 P76273      0.0000 
      3 C3         -5.0700   22.7470   -3.0480 C.2       1 P76273      0.0000 
      4 O4         -4.9710   23.5140   -4.0160 O.2       1 P76273      0.0000 
      5 N5         -5.1690   23.1210   -1.7410 N.am      1 P76273      0.0000 
      6 O6         -5.1380   24.5040   -1.6360 O.3       1 P76273      0.0000 
      7 C7         -6.8880   19.6340   -3.7030 C.2       1 P76273      0.0000 
      8 O8         -6.3350   18.7090   -3.0520 O.2       1 P76273      0.0000 
      9 N9         -8.1050   19.4590   -4.3600 N.am      1 P76273      0.0000 
     10 C10        -8.8200   20.5060   -5.1040 C.3       1 P76273      0.0000 
     11 C11        -9.3190   19.9930   -6.4180 C.3       1 P76273      0.0000 
     12 C12       -10.3240   18.8520   -6.1880 C.3       1 P76273      0.0000 
     13 C13        -9.5060   17.7230   -5.5370 C.3       1 P76273      0.0000 
     14 C14        -8.7660   18.1420   -4.2670 C.3       1 P76273      0.0000 
     15 C15       -10.9280   18.3230   -7.4850 C.ar      1 P76273      0.0000 
     16 C16       -11.8010   17.1880   -7.4950 C.ar      1 P76273      0.0000 
     17 C17       -12.3450   16.7190   -8.7170 C.ar      1 P76273      0.0000 
     18 C18       -12.0070   17.3920   -9.9230 C.ar      1 P76273      0.0000 
     19 C19       -11.1660   18.4940   -9.9340 C.ar      1 P76273      0.0000 
     20 C20       -10.6570   18.9400   -8.7270 C.ar      1 P76273      0.0000 
     21 C21       -12.4520   16.9970  -11.1910 C.1       1 P76273      0.0000 
     22 C22       -12.6090   16.6110  -12.2990 C.1       1 P76273      0.0000 
     23 C23       -12.7910   16.1400  -13.6180 C.ar      1 P76273      0.0000 
     24 C24       -12.0180   15.0120  -14.0100 C.ar      1 P76273      0.0000 
     25 C25       -12.1550   14.4770  -15.3090 C.ar      1 P76273      0.0000 
     26 C26       -13.0580   15.0880  -16.2130 C.ar      1 P76273      0.0000 
     27 C27       -13.8190   16.2170  -15.8140 C.ar      1 P76273      0.0000 
     28 C28       -13.6920   16.7520  -14.5030 C.ar      1 P76273      0.0000 
     29 C29        -3.8040   20.6620   -3.8300 C.3       1 P76273      0.0000 
     30 C30        -3.6170   21.0070   -5.3020 C.3       1 P76273      0.0000 
     31 O31        -2.6750   21.1780   -3.0930 O.3       1 P76273      0.0000 
     32 H          -6.8080   21.6503   -4.3598 H         1 P76273      0.0000 
     33 H          -5.1231   20.8525   -2.1318 H         1 P76273      0.0000 
     34 H          -5.2496   22.5206   -0.9873 H         1 P76273      0.0000 
     35 H          -8.1545   21.3640   -5.2830 H         1 P76273      0.0000 
     36 H          -9.6737   20.8728   -4.5143 H         1 P76273      0.0000 
     37 H          -8.4918   19.6121   -7.0125 H         1 P76273      0.0000 
     38 H          -9.8167   20.7880   -6.9684 H         1 P76273      0.0000 
     39 H         -11.0699   19.1598   -5.5141 H         1 P76273      0.0000 
     40 H          -8.7759   17.3479   -6.2717 H         1 P76273      0.0000 
     41 H         -10.1843   16.8881   -5.2994 H         1 P76273      0.0000 
     42 H          -9.4924   18.1386   -3.4292 H         1 P76273      0.0000 
     43 H          -8.0197   17.3570   -4.0295 H         1 P76273      0.0000 
     44 H         -12.0276   16.7213   -6.6191 H         1 P76273      0.0000 
     45 H         -12.9632   15.9195   -8.7329 H         1 P76273      0.0000 
     46 H         -10.9301   18.9614  -10.8065 H         1 P76273      0.0000 
     47 H         -10.0312   19.7860   -8.7212 H         1 P76273      0.0000 
     48 H         -11.3651   14.5926  -13.3478 H         1 P76273      0.0000 
     49 H         -11.6156   13.6669  -15.5930 H         1 P76273      0.0000 
     50 H         -13.1628   14.7143  -17.1585 H         1 P76273      0.0000 
     51 H         -14.4669   16.6520  -16.4764 H         1 P76273      0.0000 
     52 H         -14.2399   17.5523  -14.2238 H         1 P76273      0.0000 
     53 H          -3.8366   19.5825   -3.7239 H         1 P76273      0.0000 
     54 H          -3.5622   21.9948   -5.4479 H         1 P76273      0.0000 
     55 H          -2.7781   20.6089   -5.6731 H         1 P76273      0.0000 
     56 H          -4.3740   20.6696   -5.8616 H         1 P76273      0.0000 
     57 H          -6.0850   24.7712   -1.4575 H         1 P76273      0.0000 
     58 H          -2.7917   22.1711   -3.1029 H         1 P76273      0.0000 
@<TRIPOS>BOND
     1    2    1 1    
     2    7    1 am   
     3   32    1 1    
     4    3    2 1    
     5   29    2 1    
     6   33    2 1    
     7    4    3 2    
     8    5    3 am   
     9    6    5 1    
    10   34    5 1    
    11   57    6 1    
    12    8    7 2    
    13    9    7 am   
    14   10    9 1    
    15   14    9 1    
    16   11   10 1    
    17   35   10 1    
    18   36   10 1    
    19   12   11 1    
    20   37   11 1    
    21   38   11 1    
    22   13   12 1    
    23   15   12 1    
    24   39   12 1    
    25   14   13 1    
    26   40   13 1    
    27   41   13 1    
    28   42   14 1    
    29   43   14 1    
    30   16   15 ar   
    31   20   15 ar   
    32   17   16 ar   
    33   44   16 1    
    34   18   17 ar   
    35   45   17 1    
    36   19   18 ar   
    37   21   18 1    
    38   20   19 ar   
    39   46   19 1    
    40   47   20 1    
    41   22   21 3    
    42   23   22 1    
    43   24   23 ar   
    44   28   23 ar   
    45   25   24 ar   
    46   48   24 1    
    47   26   25 ar   
    48   49   25 1    
    49   27   26 ar   
    50   50   26 1    
    51   28   27 ar   
    52   51   27 1    
    53   52   28 1    
    54   30   29 1    
    55   31   29 1    
    56   53   29 1    
    57   54   30 1    
    58   55   30 1    
    59   56   30 1    
    60   58   31 1    
@<TRIPOS>SUBSTRUCTURE
     1 P76273      1 GROUP   
@<TRIPOS>SET

