#    Name: 3elw_SAM_1_INTS_M
#    Modification time : Tue Mar 25 02:07:18 2014

@<TRIPOS>MOLECULE
3elw_SAM_1_INTS_M
   56     0     9     0     0
SMALL
NO_CHARGES


@<TRIPOS>ATOM
      1 O         -22.4365    4.0155   -8.3125 O.2       1 ALC1        0.0000 
      2 O         -22.9710    3.6520   -6.9840 O.2       7 ALL1        0.0000 
      3 O         -21.9020    4.3790   -9.6410 O.2       4 ALP1        0.0000 
      4 CA        -21.9820    3.7150   -6.0515 C.3       3 GLC5        0.0000 
      5 CA        -23.4040    2.2480   -6.6960 C.3       9 GLL5        0.0000 
      6 CA        -20.5600    5.1820   -5.4070 C.3       6 GLP5        0.0000 
      7 N         -21.5275    0.0455   -4.9020 N.am      2 SEC2        0.0000 
      8 N         -22.7260    0.4490   -5.2380 N.am      8 SEL2        0.0000 
      9 N         -20.3290   -0.3580   -4.5660 N.am      5 SEP2        0.0000 
     10 N         -22.7135    0.8530   -3.7230 N.am      2 SEC2        0.0000 
     11 N         -22.7010    1.2570   -2.2080 N.am      5 SEP2        0.0000 
     12 CA        -24.3075    3.8015   -9.1995 C.3       3 GLC5        0.0000 
     13 CA        -24.7260    1.8200   -8.7740 C.3       9 GLL5        0.0000 
     14 CA        -23.8890    5.7830   -9.6250 C.3       6 GLP5        0.0000 
     15 CA        -28.7825    2.5425   -9.1545 C.3       3 GLC5        0.0000 
     16 CA        -27.8240    0.9320  -10.0370 C.3       9 GLL5        0.0000 
     17 CA        -29.7410    4.1530   -8.2720 C.3       6 GLP5        0.0000 
     18 O         -31.0190   -2.2550  -11.5230 O.2       1 ALC1        0.0000 
     19 O         -30.4310   -1.4390  -10.5820 O.2       7 ALL1        0.0000 
     20 O         -31.6070   -3.0710  -12.4640 O.2       4 ALP1        0.0000 
     21 CA        -29.9065    2.5430   -9.3865 C.3       3 GLC5        0.0000 
     22 CA        -30.0720    0.9330  -10.5010 C.3       9 GLL5        0.0000 
     23 CA        -33.7810    1.0170  -12.0585 C.3       3 GLC5        0.0000 
     24 CA        -32.8920    2.6220  -12.0840 C.3       9 GLL5        0.0000 
     25 CA        -34.6700   -0.5880  -12.0330 C.3       6 GLP5        0.0000 
     26 CA        -34.6150    1.5955  -11.2830 C.3       3 GLC5        0.0000 
     27 CA        -34.0740    3.3370  -11.9110 C.3       9 GLL5        0.0000 
     28 CA        -35.1560   -0.1460  -10.6550 C.3       6 GLP5        0.0000 
     29 CA        -36.0130    3.5595  -10.8905 C.3       3 GLC5        0.0000 
     30 CA        -37.9520    3.7820   -9.8700 C.3       6 GLP5        0.0000 
     31 CA        -33.9610    5.2310  -11.2350 C.3       3 GLC5        0.0000 
     32 CA        -33.8480    7.1250  -10.5590 C.3       6 GLP5        0.0000 
     33 O         -36.2195    4.1700  -12.7630 O.2       1 ALC1        0.0000 
     34 O         -34.7790    3.7610  -12.9550 O.2       7 ALL1        0.0000 
     35 O         -37.6600    4.5790  -12.5710 O.2       4 ALP1        0.0000 
     36 N         -35.5275    4.6835  -10.2425 N.am      2 SEC2        0.0000 
     37 N         -34.5210    3.6130  -10.6360 N.am      8 SEL2        0.0000 
     38 N         -36.5340    5.7540   -9.8490 N.am      5 SEP2        0.0000 
     39 CA        -31.7750    3.6705   -8.9030 C.3       3 GLC5        0.0000 
     40 CA        -33.8090    3.1880   -9.5340 C.3       9 GLL5        0.0000 
     41 CA        -33.3545    2.4055   -7.8570 C.3       3 GLC5        0.0000 
     42 CA        -32.9000    1.6230   -6.1800 C.3       6 GLP5        0.0000 
     43 CA        -34.4825    1.5210  -10.0945 C.3       3 GLC5        0.0000 
     44 CA        -35.8805    3.4850   -9.7020 C.3       3 GLC5        0.0000 
     45 CA        -34.0575    4.9175   -8.8290 C.3       3 GLC5        0.0000 
     46 CA        -34.3060    6.6470   -8.1240 C.3       6 GLP5        0.0000 
     47 N         -33.3070    1.2695   -8.7135 N.am      2 SEC2        0.0000 
     48 N         -32.6430    2.4850   -9.7150 N.am      8 SEL2        0.0000 
     49 N         -33.9710    0.0540   -7.7120 N.am      5 SEP2        0.0000 
     50 CA        -30.9645    3.1820   -9.6165 C.3       3 GLC5        0.0000 
     51 CA        -32.1880    2.2110  -10.9610 C.3       9 GLL5        0.0000 
     52 CA        -33.6720    1.0325  -10.8080 C.3       3 GLC5        0.0000 
     53 CA        -27.8558   -0.1723   -8.0630 C.3       3 GLC5        0.0000 
     54 CA        -27.6940   -0.5570   -5.9280 C.3       6 GLP5        0.0000 
     55 CA        -31.7203    4.1941  -11.4751 C.3       3 GLC5        0.0000 
     56 CA        -30.6050    5.7930  -11.4710 C.3       6 GLP5        0.0000 
@<TRIPOS>BOND
@<TRIPOS>SUBSTRUCTURE
     1 ALC1        1 GROUP        1 X    ALC  0     ROOT ALC X 1
     2 SEC2        7 GROUP        1 X    SEC  0     **** SEC X 2
     3 GLC5        4 GROUP        1 X    GLC  0     **** GLC X 6
     4 ALP1        3 GROUP        1 Y    ALP  0     ROOT ALP Y 8
     5 SEP2        9 GROUP        1 Y    SEP  0     **** SEP Y 9
     6 GLP5        6 GROUP        1 Y    GLP  0     **** GLP Y 13
     7 ALL1        2 GROUP        1 Z    ALL  0     ROOT ALL Z 15
     8 SEL2        8 GROUP        1 Z    SEL  0     **** SEL Z 16
     9 GLL5        5 GROUP        1 Z    GLL  0     **** GLL Z 20
@<TRIPOS>SET

