#    Name: 3elw_SAM_1_ligand
#    Modification time : Tue Mar 25 02:07:18 2014

@<TRIPOS>MOLECULE
3elw_SAM_1_ligand
   50    52     1     0     0
SMALL
NO_CHARGES


@<TRIPOS>ATOM
      1 N         -22.9710    3.6520   -6.9840 N.4       1 SAM4633     0.0000 
      2 CA        -23.4040    2.2480   -6.6960 C.3       1 SAM4633     0.0000 
      3 C         -22.4520    1.5540   -5.7370 C.2       1 SAM4633     0.0000 
      4 O         -21.3870    2.0980   -5.4410 O.co2     1 SAM4633     0.0000 
      5 OXT       -22.7260    0.4490   -5.2380 O.co2     1 SAM4633     0.0000 
      6 CB        -23.4790    1.4470   -7.9860 C.3       1 SAM4633     0.0000 
      7 CG        -24.7260    1.8200   -8.7740 C.3       1 SAM4633     0.0000 
      8 SD        -25.0750    0.6740  -10.1140 S.3       1 SAM4633     0.0000 
      9 CE        -23.8640    1.2050  -11.3560 C.3       1 SAM4633     0.0000 
     10 C5'       -26.5890    1.3840  -10.8010 C.3       1 SAM4633     0.0000 
     11 C4'       -27.8240    0.9320  -10.0370 C.3       1 SAM4633     0.0000 
     12 O4'       -28.9190    1.7450  -10.4100 O.3       1 SAM4633     0.0000 
     13 C3'       -28.2110   -0.5070  -10.3590 C.3       1 SAM4633     0.0000 
     14 O3'       -28.3260   -1.2430   -9.1660 O.3       1 SAM4633     0.0000 
     15 C2'       -29.5750   -0.4120  -11.0080 C.3       1 SAM4633     0.0000 
     16 O2'       -30.4310   -1.4390  -10.5820 O.3       1 SAM4633     0.0000 
     17 C1'       -30.0720    0.9330  -10.5010 C.3       1 SAM4633     0.0000 
     18 N9        -31.0820    1.5380  -11.3960 N.pl3     1 SAM4633     0.0000 
     19 C8        -31.0960    1.5500  -12.7700 C.2       1 SAM4633     0.0000 
     20 N7        -32.2090    2.2080  -13.1760 N.2       1 SAM4633     0.0000 
     21 C5        -32.8920    2.6220  -12.0840 C.ar      1 SAM4633     0.0000 
     22 C6        -34.0740    3.3370  -11.9110 C.ar      1 SAM4633     0.0000 
     23 N6        -34.7790    3.7610  -12.9550 N.pl3     1 SAM4633     0.0000 
     24 N1        -34.5210    3.6130  -10.6360 N.ar      1 SAM4633     0.0000 
     25 C2        -33.8090    3.1880   -9.5340 C.ar      1 SAM4633     0.0000 
     26 N3        -32.6430    2.4850   -9.7150 N.ar      1 SAM4633     0.0000 
     27 C4        -32.1880    2.2110  -10.9610 C.ar      1 SAM4633     0.0000 
     28 H         -24.3920    2.2591   -6.2504 H         1 SAM4633     0.0000 
     29 H         -23.5063    0.3842   -7.7502 H         1 SAM4633     0.0000 
     30 H         -22.5964    1.6517   -8.5901 H         1 SAM4633     0.0000 
     31 H         -24.6416    2.7618   -9.2865 H         1 SAM4633     0.0000 
     32 H         -25.6283    1.7800   -8.1899 H         1 SAM4633     0.0000 
     33 H         -26.5629    1.0434  -11.8155 H         1 SAM4633     0.0000 
     34 H         -26.4019    2.4358  -10.7314 H         1 SAM4633     0.0000 
     35 H         -27.6311    1.0040   -8.9826 H         1 SAM4633     0.0000 
     36 H         -27.5256   -0.9018  -11.0482 H         1 SAM4633     0.0000 
     37 H         -29.4477   -0.3403  -12.0534 H         1 SAM4633     0.0000 
     38 H         -30.4947    0.7697   -9.5174 H         1 SAM4633     0.0000 
     39 H         -30.4282    1.1574  -13.3342 H         1 SAM4633     0.0000 
     40 H         -34.4201    3.5182  -13.8562 H         1 SAM4633     0.0000 
     41 H         -35.6047    4.2846  -12.7450 H         1 SAM4633     0.0000 
     42 H         -34.1502    3.3969   -8.5862 H         1 SAM4633     0.0000 
     43 H         -22.3632    3.6980   -7.7767 H         1 SAM4633     0.0000 
     44 H         -23.7500    4.2487   -7.1768 H         1 SAM4633     0.0000 
     45 H         -22.4777    4.0541   -6.2127 H         1 SAM4633     0.0000 
     46 H         -22.9305    0.9621  -11.0921 H         1 SAM4633     0.0000 
     47 H         -24.0360    0.7835  -12.2464 H         1 SAM4633     0.0000 
     48 H         -23.8817    2.1955  -11.4923 H         1 SAM4633     0.0000 
     49 H         -29.2669   -1.5818   -9.1607 H         1 SAM4633     0.0000 
     50 H         -30.6968   -1.9179  -11.4186 H         1 SAM4633     0.0000 
@<TRIPOS>BOND
     1    2    1 1    
     2   43    1 1    
     3   44    1 1    
     4   45    1 1    
     5    3    2 1    
     6    6    2 1    
     7   28    2 1    
     8    4    3 ar   
     9    5    3 ar   
    10    7    6 1    
    11   29    6 1    
    12   30    6 1    
    13    8    7 1    
    14   31    7 1    
    15   32    7 1    
    16    9    8 1    
    17   10    8 1    
    18   46    9 1    
    19   47    9 1    
    20   48    9 1    
    21   11   10 1    
    22   33   10 1    
    23   34   10 1    
    24   12   11 1    
    25   13   11 1    
    26   35   11 1    
    27   17   12 1    
    28   14   13 1    
    29   15   13 1    
    30   36   13 1    
    31   49   14 1    
    32   16   15 1    
    33   17   15 1    
    34   37   15 1    
    35   50   16 1    
    36   18   17 1    
    37   38   17 1    
    38   19   18 1    
    39   27   18 1    
    40   20   19 2    
    41   39   19 1    
    42   21   20 1    
    43   22   21 ar   
    44   27   21 ar   
    45   23   22 1    
    46   24   22 ar   
    47   40   23 1    
    48   41   23 1    
    49   25   24 ar   
    50   26   25 ar   
    51   42   25 1    
    52   27   26 ar   
@<TRIPOS>SUBSTRUCTURE
     1 SAM4633     1 GROUP   
@<TRIPOS>SET

