#    Name: 1LKE_1_CAVITY_N1_ALL.mol2
#    Modification time : Mon Mar 10 14:25:38 2014

@<TRIPOS>MOLECULE
1LKE_1_CAVITY_N1_ALL.mol2
  117     0     5     0     0
SMALL
NO_CHARGES


@<TRIPOS>ATOM
      1 CA          4.8894  -27.9740   34.3104 C.3       4 GLY6        0.0000 
      2 N           5.4183  -31.0632   35.5050 N.2       2 ALA2        0.0000 
      3 N           3.9589  -28.4447   35.3886 N.2       2 ALA2        0.0000 
      4 N           3.2291  -27.1355   35.3304 N.2       2 ALA2        0.0000 
      5 N           3.0283  -28.9154   36.4668 N.2       2 ALA2        0.0000 
      6 N           2.2986  -27.6062   36.4086 N.2       2 ALA2        0.0000 
      7 CZ          6.7428  -26.9427   34.2734 C.ar      3 PHE5        0.0000 
      8 OG          6.5419  -28.7226   35.4098 O.2       1 SER1        0.0000 
      9 CA          5.8122  -27.4134   35.3516 C.3       4 GLY6        0.0000 
     10 CA          5.0825  -26.1041   35.2934 C.3       4 GLY6        0.0000 
     11 CA          4.3528  -24.7949   35.2352 C.3       4 GLY6        0.0000 
     12 OG          5.6114  -29.1933   36.4880 O.2       1 SER1        0.0000 
     13 DU          4.8817  -27.8841   36.4298 H         5 CUB7        0.0000 
     14 N           4.1520  -26.5748   36.3716 N.2       2 ALA2        0.0000 
     15 OG          4.6809  -29.6641   37.5662 O.2       1 SER1        0.0000 
     16 CZ          3.9512  -28.3548   37.5080 C.ar      3 PHE5        0.0000 
     17 N           3.2214  -27.0456   37.4498 N.2       2 ALA2        0.0000 
     18 CZ          4.4800  -31.4440   38.7026 C.ar      3 PHE5        0.0000 
     19 CZ          3.0206  -28.8255   38.5862 C.ar      3 PHE5        0.0000 
     20 CZ          2.2909  -27.5163   38.5280 C.ar      3 PHE5        0.0000 
     21 CZ          8.3953  -27.6913   35.3728 C.ar      3 PHE5        0.0000 
     22 CZ          7.6656  -26.3820   35.3146 C.ar      3 PHE5        0.0000 
     23 CA          6.9359  -25.0728   35.2564 C.3       4 GLY6        0.0000 
     24 N           6.2062  -23.7635   35.1982 N.2       2 ALA2        0.0000 
     25 OG          7.4648  -28.1620   36.4510 O.2       1 SER1        0.0000 
     26 DU          6.7351  -26.8528   36.3928 H         5 CUB7        0.0000 
     27 DU          6.0053  -25.5435   36.3346 H         5 CUB7        0.0000 
     28 N           5.2756  -24.2343   36.2764 N.2       2 ALA2        0.0000 
     29 OG          6.5342  -28.6327   37.5292 O.2       1 SER1        0.0000 
     30 DU          5.8045  -27.3235   37.4710 H         5 CUB7        0.0000 
     31 CA          5.0748  -26.0142   37.4128 C.3       4 GLY6        0.0000 
     32 O           4.3451  -24.7050   37.3546 O.2       2 ALA2        0.0000 
     33 CZ          5.6037  -29.1034   38.6074 C.ar      3 PHE5        0.0000 
     34 CZ          4.8740  -27.7942   38.5492 C.ar      3 PHE5        0.0000 
     35 CZ          4.1443  -26.4849   38.4910 C.ar      3 PHE5        0.0000 
     36 CZ          5.4029  -30.8834   39.7438 C.ar      3 PHE5        0.0000 
     37 CZ         10.6503  -23.1000   33.0630 C.ar      3 PHE5        0.0000 
     38 CZ          9.7198  -23.5707   34.1412 C.ar      3 PHE5        0.0000 
     39 N           8.9901  -22.2615   34.0830 N.2       2 ALA2        0.0000 
     40 CZ         10.2487  -26.6599   35.3358 C.ar      3 PHE5        0.0000 
     41 CZ          9.5190  -25.3507   35.2776 C.ar      3 PHE5        0.0000 
     42 CZ          8.7892  -24.0415   35.2194 C.ar      3 PHE5        0.0000 
     43 CA          8.0595  -22.7322   35.1612 C.3       4 GLY6        0.0000 
     44 CZ          9.3181  -27.1307   36.4140 C.ar      3 PHE5        0.0000 
     45 DU          8.5884  -25.8214   36.3558 H         5 CUB7        0.0000 
     46 CA          7.8587  -24.5122   36.2976 C.3       4 GLY6        0.0000 
     47 CA          7.1290  -23.2029   36.2394 C.3       4 GLY6        0.0000 
     48 CZ          8.3876  -27.6014   37.4922 C.ar      3 PHE5        0.0000 
     49 DU          7.6579  -26.2921   37.4340 H         5 CUB7        0.0000 
     50 DU          6.9282  -24.9829   37.3758 H         5 CUB7        0.0000 
     51 CA          6.1984  -23.6736   37.3176 C.3       4 GLY6        0.0000 
     52 OG          8.1868  -29.3813   38.6286 O.2       1 SER1        0.0000 
     53 OG          7.4571  -28.0721   38.5704 O.2       1 SER1        0.0000 
     54 DU          6.7273  -26.7628   38.5122 H         5 CUB7        0.0000 
     55 DU          5.9976  -25.4536   38.4540 H         5 CUB7        0.0000 
     56 N           5.2679  -24.1443   38.3958 N.2       2 ALA2        0.0000 
     57 CA          7.2562  -29.8520   39.7068 C.3       4 GLY6        0.0000 
     58 CZ          6.5265  -28.5428   39.6486 C.ar      3 PHE5        0.0000 
     59 CZ          5.7968  -27.2336   39.5904 C.ar      3 PHE5        0.0000 
     60 CZ          5.0671  -25.9243   39.5322 C.ar      3 PHE5        0.0000 
     61 O           4.3374  -24.6151   39.4740 O.2       2 ALA2        0.0000 
     62 CA         12.3029  -23.8486   34.1624 C.3       4 GLY6        0.0000 
     63 CA         11.5732  -22.5394   34.1042 C.3       4 GLY6        0.0000 
     64 CA         10.8434  -21.2301   34.0460 C.3       4 GLY6        0.0000 
     65 CZ         12.1020  -25.6286   35.2988 C.ar      3 PHE5        0.0000 
     66 CZ         11.3723  -24.3194   35.2406 C.ar      3 PHE5        0.0000 
     67 O          10.6426  -23.0101   35.1824 O.2       2 ALA2        0.0000 
     68 CZ         11.9012  -27.4086   36.4352 C.ar      3 PHE5        0.0000 
     69 DU         11.1715  -26.0993   36.3770 H         5 CUB7        0.0000 
     70 CZ         10.4418  -24.7901   36.3188 C.ar      3 PHE5        0.0000 
     71 O           9.7121  -23.4808   36.2606 O.2       2 ALA2        0.0000 
     72 CZ         10.9707  -27.8793   37.5134 C.ar      3 PHE5        0.0000 
     73 N          10.2410  -26.5700   37.4552 N.2       2 ALA2        0.0000 
     74 DU          9.5113  -25.2608   37.3970 H         5 CUB7        0.0000 
     75 O           8.7815  -23.9515   37.3388 O.2       2 ALA2        0.0000 
     76 CA          8.0518  -22.6423   37.2806 C.3       4 GLY6        0.0000 
     77 N           9.3104  -27.0407   38.5334 N.2       2 ALA2        0.0000 
     78 CZ          8.5807  -25.7315   38.4752 C.ar      3 PHE5        0.0000 
     79 CZ          7.8510  -24.4223   38.4170 C.ar      3 PHE5        0.0000 
     80 CZ          7.1213  -23.1130   38.3588 C.ar      3 PHE5        0.0000 
     81 CA          9.1096  -28.8207   39.6698 C.3       4 GLY6        0.0000 
     82 CZ          8.3799  -27.5115   39.6116 C.ar      3 PHE5        0.0000 
     83 CZ          7.6502  -26.2022   39.5534 C.ar      3 PHE5        0.0000 
     84 CZ          6.9205  -24.8930   39.4952 C.ar      3 PHE5        0.0000 
     85 CZ          6.1907  -23.5837   39.4370 C.ar      3 PHE5        0.0000 
     86 CA          7.4493  -27.9822   40.6898 C.3       4 GLY6        0.0000 
     87 CZ          6.7196  -26.6729   40.6316 C.ar      3 PHE5        0.0000 
     88 CZ          5.9899  -25.3637   40.5734 C.ar      3 PHE5        0.0000 
     89 CA         12.4960  -21.9788   35.1454 C.3       4 GLY6        0.0000 
     90 O          13.0249  -25.0680   36.3400 O.2       2 ALA2        0.0000 
     91 CA         12.2952  -23.7587   36.2818 C.3       4 GLY6        0.0000 
     92 O          11.5654  -22.4495   36.2236 O.2       2 ALA2        0.0000 
     93 N          12.8241  -26.8479   37.4764 N.2       2 ALA2        0.0000 
     94 N          12.0943  -25.5387   37.4182 N.2       2 ALA2        0.0000 
     95 DU         11.3646  -24.2294   37.3600 H         5 CUB7        0.0000 
     96 O          10.6349  -22.9202   37.3018 O.2       2 ALA2        0.0000 
     97 N          11.1638  -26.0094   38.4964 N.2       2 ALA2        0.0000 
     98 CZ         10.4341  -24.7002   38.4382 C.ar      3 PHE5        0.0000 
     99 O           9.7044  -23.3909   38.3800 O.2       2 ALA2        0.0000 
    100 O           8.9746  -22.0817   38.3218 O.2       2 ALA2        0.0000 
    101 CZ         10.2333  -26.4801   39.5746 C.ar      3 PHE5        0.0000 
    102 CZ          9.5035  -25.1709   39.5164 C.ar      3 PHE5        0.0000 
    103 CZ          8.7738  -23.8616   39.4582 C.ar      3 PHE5        0.0000 
    104 CZ          7.8433  -24.3323   40.5364 C.ar      3 PHE5        0.0000 
    105 CA         14.1485  -22.7274   36.2448 C.3       4 GLY6        0.0000 
    106 OG         13.4188  -21.4181   36.1866 O.2       1 SER1        0.0000 
    107 O          13.9477  -24.5074   37.3812 O.2       2 ALA2        0.0000 
    108 O          13.2180  -23.1981   37.3230 O.2       2 ALA2        0.0000 
    109 OG         12.4883  -21.8889   37.2648 O.2       1 SER1        0.0000 
    110 N          13.0172  -24.9781   38.4594 N.2       2 ALA2        0.0000 
    111 O          12.2874  -23.6688   38.4012 O.2       2 ALA2        0.0000 
    112 O          11.5577  -22.3596   38.3430 O.2       2 ALA2        0.0000 
    113 CZ         12.0866  -25.4488   39.5376 C.ar      3 PHE5        0.0000 
    114 CZ         11.3569  -24.1395   39.4794 C.ar      3 PHE5        0.0000 
    115 CZ         10.6272  -22.8303   39.4212 C.ar      3 PHE5        0.0000 
    116 O          14.1408  -22.6375   38.3642 O.2       2 ALA2        0.0000 
    117 O          12.4806  -21.7989   39.3842 O.2       2 ALA2        0.0000 
@<TRIPOS>BOND
@<TRIPOS>SUBSTRUCTURE
     1 SER1        8 GROUP   
     2 ALA2        2 GROUP   
     3 PHE5        7 GROUP   
     4 GLY6        1 GROUP   
     5 CUB7       13 GROUP   
@<TRIPOS>SET

