#    Name: 1lke_DOG_1_INTS_M
#    Modification time : Mon Apr  7 14:05:58 2014

@<TRIPOS>MOLECULE
1lke_DOG_1_INTS_M
   72     0     6     0     0
SMALL
NO_CHARGES


@<TRIPOS>ATOM
      1 N          14.6700  -20.1295   37.5130 N.am      1 SEC2        0.0000 
      2 N          15.2650  -21.2770   37.4530 N.am      5 SEL2        0.0000 
      3 N          14.0750  -18.9820   37.5730 N.am      3 SEP2        0.0000 
      4 CA         14.0230  -24.1990   39.9710 C.3       2 GLC5        0.0000 
      5 CA         13.9160  -24.3950   38.0480 C.3       6 GLL5        0.0000 
      6 CA         14.1300  -24.0030   41.8940 C.3       4 GLP5        0.0000 
      7 CA         12.6820  -28.1205   36.0795 C.3       2 GLC5        0.0000 
      8 CA         12.1300  -26.1830   36.3780 C.3       6 GLL5        0.0000 
      9 CA         13.2340  -30.0580   35.7810 C.3       4 GLP5        0.0000 
     10 CA         11.4915  -26.2535   34.3510 C.3       2 GLC5        0.0000 
     11 CA         10.8530  -26.3240   32.3240 C.3       4 GLP5        0.0000 
     12 CA          9.4045  -21.8840   39.3460 C.3       2 GLC5        0.0000 
     13 CA         10.5420  -23.2570   38.1900 C.3       6 GLL5        0.0000 
     14 CA          8.2670  -20.5110   40.5020 C.3       4 GLP5        0.0000 
     15 CA         10.5240  -23.6415   40.0140 C.3       2 GLC5        0.0000 
     16 CA         10.5060  -24.0260   41.8380 C.3       4 GLP5        0.0000 
     17 CA          9.6160  -24.8370   34.2855 C.3       2 GLC5        0.0000 
     18 CA          9.4700  -24.2150   36.1290 C.3       6 GLL5        0.0000 
     19 CA          9.7620  -25.4590   32.4420 C.3       4 GLP5        0.0000 
     20 N           9.4505  -21.6075   36.0600 N.am      1 SEC2        0.0000 
     21 N           9.6080  -22.8950   35.5440 N.am      5 SEL2        0.0000 
     22 N           9.2930  -20.3200   36.5760 N.am      3 SEP2        0.0000 
     23 CA         10.4050  -24.9125   39.8785 C.3       2 GLC5        0.0000 
     24 CA         10.3040  -25.7990   37.9190 C.3       6 GLL5        0.0000 
     25 CA         11.3095  -28.5615   36.4920 C.3       2 GLC5        0.0000 
     26 CA         10.8390  -26.8230   36.9020 C.3       6 GLL5        0.0000 
     27 CA         11.7800  -30.3000   36.0820 C.3       4 GLP5        0.0000 
     28 N          12.0035  -27.0910   39.4375 N.am      1 SEC2        0.0000 
     29 N          11.2120  -25.9320   39.0410 N.am      5 SEL2        0.0000 
     30 N          12.7950  -28.2500   39.8340 N.am      3 SEP2        0.0000 
     31 CA          9.2685  -25.5470   40.2690 C.3       2 GLC5        0.0000 
     32 CA          8.8450  -26.0090   38.3570 C.3       6 GLL5        0.0000 
     33 CA          9.6920  -25.0850   42.1810 C.3       4 GLP5        0.0000 
     34 CA          9.3320  -29.2365   38.2405 C.3       2 GLC5        0.0000 
     35 CA          8.6220  -27.4280   38.8860 C.3       6 GLL5        0.0000 
     36 CA         10.0420  -31.0450   37.5950 C.3       4 GLP5        0.0000 
     37 CA          9.4225  -26.8825   40.7280 C.3       2 GLC5        0.0000 
     38 CA         10.2230  -26.3370   42.5700 C.3       4 GLP5        0.0000 
     39 CA          7.6815  -24.6135   34.5325 C.3       2 GLC5        0.0000 
     40 CA          8.0680  -24.2710   36.6520 C.3       6 GLL5        0.0000 
     41 CA          7.2950  -24.9560   32.4130 C.3       4 GLP5        0.0000 
     42 CA          6.7450  -23.1455   39.9890 C.3       2 GLC5        0.0000 
     43 CA          6.0900  -24.7760   38.9900 C.3       6 GLL5        0.0000 
     44 CA          7.4000  -21.5150   40.9880 C.3       4 GLP5        0.0000 
     45 CA          5.2035  -25.7805   40.6120 C.3       2 GLC5        0.0000 
     46 CA          4.3170  -26.7850   42.2340 C.3       4 GLP5        0.0000 
     47 CA          5.2180  -27.0200   40.3150 C.3       2 GLC5        0.0000 
     48 CA          6.1190  -27.2550   38.3960 C.3       6 GLL5        0.0000 
     49 CA          6.2385  -27.7060   40.9820 C.3       2 GLC5        0.0000 
     50 CA          7.2120  -27.6550   39.4110 C.3       6 GLL5        0.0000 
     51 CA          5.2650  -27.7570   42.5530 C.3       4 GLP5        0.0000 
     52 CA          7.8230  -29.4745   40.3995 C.3       2 GLC5        0.0000 
     53 CA          8.4340  -31.2940   41.3880 C.3       4 GLP5        0.0000 
     54 CA          7.5915  -29.5835   36.9305 C.3       2 GLC5        0.0000 
     55 CA          6.0880  -28.3180   37.2770 C.3       6 GLL5        0.0000 
     56 CA          9.0950  -30.8490   36.5840 C.3       4 GLP5        0.0000 
     57 CA          6.2920  -25.7680   34.0305 C.3       2 GLC5        0.0000 
     58 CA          5.2890  -26.5800   35.6480 C.3       6 GLL5        0.0000 
     59 CA          3.6550  -25.3150   34.8330 C.3       2 GLC5        0.0000 
     60 CA          2.0210  -24.0500   34.0180 C.3       4 GLP5        0.0000 
     61 CA          3.5540  -24.6990   37.2690 C.3       2 GLC5        0.0000 
     62 CA          5.2750  -25.5600   36.7670 C.3       6 GLL5        0.0000 
     63 CA          1.8330  -23.8380   37.7710 C.3       4 GLP5        0.0000 
     64 CA         14.2881  -24.0981   35.6660 C.3       2 GLC5        0.0000 
     65 CA         13.0620  -23.8540   36.9790 C.3       6 GLL5        0.0000 
     66 CA         14.9850  -24.3790   33.9030 C.3       4 GLP5        0.0000 
     67 CA         13.5065  -24.8953   35.1608 C.3       2 GLC5        0.0000 
     68 CA         11.9260  -24.6400   36.4590 C.3       6 GLL5        0.0000 
     69 CA          7.8100  -22.4530   36.2373 C.3       2 GLC5        0.0000 
     70 CA          6.8510  -20.6630   36.0840 C.3       4 GLP5        0.0000 
     71 CA          4.3660  -27.5055   34.0312 C.3       2 GLC5        0.0000 
     72 CA          3.5510  -27.7400   32.1440 C.3       4 GLP5        0.0000 
@<TRIPOS>BOND
@<TRIPOS>SUBSTRUCTURE
     1 SEC2        1 GROUP        1 X    SEC  0     ROOT SEC X 2
     2 GLC5        4 GROUP        1 X    GLC  0     **** GLC X 6
     3 SEP2        3 GROUP        1 Y    SEP  0     ROOT SEP Y 9
     4 GLP5        6 GROUP        1 Y    GLP  0     **** GLP Y 13
     5 SEL2        2 GROUP        1 Z    SEL  0     ROOT SEL Z 16
     6 GLL5        5 GROUP        1 Z    GLL  0     **** GLL Z 20
@<TRIPOS>SET

