#    Name: 1lke_DOG_1_ligand
#    Modification time : Mon Apr  7 14:05:58 2014

@<TRIPOS>MOLECULE
1lke_DOG_1_ligand
   62    66     1     0     0
SMALL
NO_CHARGES


@<TRIPOS>ATOM
      1 O23        15.2650  -21.2770   37.4530 O.2       1 DOG500      0.0000 
      2 C23        14.6030  -22.2720   37.4610 C.2       1 DOG500      0.0000 
      3 C22        13.4710  -22.6250   36.6410 C.2       1 DOG500      0.0000 
      4 O21        14.8390  -23.3060   38.2920 O.3       1 DOG500      0.0000 
      5 C21        13.9160  -24.3950   38.0480 C.3       1 DOG500      0.0000 
      6 C20        13.0620  -23.8540   36.9790 C.2       1 DOG500      0.0000 
      7 C17        11.9260  -24.6400   36.4590 C.3       1 DOG500      0.0000 
      8 C16        12.1300  -26.1830   36.3780 C.3       1 DOG500      0.0000 
      9 C13        10.5510  -24.4330   37.2170 C.3       1 DOG500      0.0000 
     10 C18        10.5420  -23.2570   38.1900 C.3       1 DOG500      0.0000 
     11 C12         9.4700  -24.2150   36.1290 C.3       1 DOG500      0.0000 
     12 O12         9.6080  -22.8950   35.5440 O.3       1 DOG500      0.0000 
     13 C14        10.3040  -25.7990   37.9190 C.3       1 DOG500      0.0000 
     14 C15        10.8390  -26.8230   36.9020 C.3       1 DOG500      0.0000 
     15 O14        11.2120  -25.9320   39.0410 O.3       1 DOG500      0.0000 
     16 C8          8.8450  -26.0090   38.3570 C.3       1 DOG500      0.0000 
     17 C7          8.6220  -27.4280   38.8860 C.3       1 DOG500      0.0000 
     18 C9          7.7830  -25.6750   37.2840 C.3       1 DOG500      0.0000 
     19 C11         8.0680  -24.2710   36.6520 C.3       1 DOG500      0.0000 
     20 C10         6.3470  -25.8090   37.8600 C.3       1 DOG500      0.0000 
     21 C19         6.0900  -24.7760   38.9900 C.3       1 DOG500      0.0000 
     22 C5          6.1190  -27.2550   38.3960 C.3       1 DOG500      0.0000 
     23 C6          7.2120  -27.6550   39.4110 C.3       1 DOG500      0.0000 
     24 C4          6.0880  -28.3180   37.2770 C.3       1 DOG500      0.0000 
     25 C3          5.0730  -27.9620   36.1890 C.3       1 DOG500      0.0000 
     26 O32         3.7660  -28.0980   36.7460 O.3       1 DOG500      0.0000 
     27 C2          5.2890  -26.5800   35.6480 C.3       1 DOG500      0.0000 
     28 C1          5.2750  -25.5600   36.7670 C.3       1 DOG500      0.0000 
     29 H          13.1151  -22.0370   35.9807 H         1 DOG500      0.0000 
     30 H          13.3283  -24.6040   38.9186 H         1 DOG500      0.0000 
     31 H          14.4322  -25.2669   37.7012 H         1 DOG500      0.0000 
     32 H          11.6982  -24.3273   35.4013 H         1 DOG500      0.0000 
     33 H          12.9518  -26.4572   37.0012 H         1 DOG500      0.0000 
     34 H          12.2862  -26.4590   35.3590 H         1 DOG500      0.0000 
     35 H           9.5916  -24.9640   35.3642 H         1 DOG500      0.0000 
     36 H          11.0636  -27.7315   37.3974 H         1 DOG500      0.0000 
     37 H          10.1450  -26.9327   36.1098 H         1 DOG500      0.0000 
     38 H           8.6558  -25.3252   39.2176 H         1 DOG500      0.0000 
     39 H           9.3436  -27.6242   39.6913 H         1 DOG500      0.0000 
     40 H           8.8267  -28.1444   38.0781 H         1 DOG500      0.0000 
     41 H           7.8910  -26.4191   36.4807 H         1 DOG500      0.0000 
     42 H           7.3534  -24.1144   35.8500 H         1 DOG500      0.0000 
     43 H           7.9161  -23.5210   37.4220 H         1 DOG500      0.0000 
     44 H           5.1644  -27.2835   38.9145 H         1 DOG500      0.0000 
     45 H           7.0658  -27.0723   40.3288 H         1 DOG500      0.0000 
     46 H           7.0826  -28.7146   39.6636 H         1 DOG500      0.0000 
     47 H           5.8266  -29.2819   37.7143 H         1 DOG500      0.0000 
     48 H           7.0816  -28.3924   36.8345 H         1 DOG500      0.0000 
     49 H           5.2085  -28.6815   35.3783 H         1 DOG500      0.0000 
     50 H           4.5007  -26.3369   34.9314 H         1 DOG500      0.0000 
     51 H           6.2506  -26.5322   35.1313 H         1 DOG500      0.0000 
     52 H           5.4363  -24.5529   36.3512 H         1 DOG500      0.0000 
     53 H           4.2857  -25.5560   37.2512 H         1 DOG500      0.0000 
     54 H          11.2312  -23.3628   38.9068 H         1 DOG500      0.0000 
     55 H          10.7308  -22.3908   37.7274 H         1 DOG500      0.0000 
     56 H           9.6574  -23.1590   38.6460 H         1 DOG500      0.0000 
     57 H           6.7284  -24.8915   39.7510 H         1 DOG500      0.0000 
     58 H           6.1899  -23.8360   38.6637 H         1 DOG500      0.0000 
     59 H           5.1672  -24.8591   39.3663 H         1 DOG500      0.0000 
     60 H           9.1869  -22.9674   34.6399 H         1 DOG500      0.0000 
     61 H          11.9121  -25.2319   38.9010 H         1 DOG500      0.0000 
     62 H           3.2354  -27.3505   36.3464 H         1 DOG500      0.0000 
@<TRIPOS>BOND
     1    2    1 2    
     2    3    2 1    
     3    4    2 1    
     4    6    3 2    
     5   29    3 1    
     6    5    4 1    
     7    6    5 1    
     8   30    5 1    
     9   31    5 1    
    10    7    6 1    
    11    8    7 1    
    12    9    7 1    
    13   32    7 1    
    14   14    8 1    
    15   33    8 1    
    16   34    8 1    
    17   10    9 1    
    18   11    9 1    
    19   13    9 1    
    20   54   10 1    
    21   55   10 1    
    22   56   10 1    
    23   12   11 1    
    24   19   11 1    
    25   35   11 1    
    26   60   12 1    
    27   14   13 1    
    28   15   13 1    
    29   16   13 1    
    30   36   14 1    
    31   37   14 1    
    32   61   15 1    
    33   17   16 1    
    34   18   16 1    
    35   38   16 1    
    36   23   17 1    
    37   39   17 1    
    38   40   17 1    
    39   19   18 1    
    40   20   18 1    
    41   41   18 1    
    42   42   19 1    
    43   43   19 1    
    44   21   20 1    
    45   22   20 1    
    46   28   20 1    
    47   57   21 1    
    48   58   21 1    
    49   59   21 1    
    50   23   22 1    
    51   24   22 1    
    52   44   22 1    
    53   45   23 1    
    54   46   23 1    
    55   25   24 1    
    56   47   24 1    
    57   48   24 1    
    58   26   25 1    
    59   27   25 1    
    60   49   25 1    
    61   62   26 1    
    62   28   27 1    
    63   50   27 1    
    64   51   27 1    
    65   52   28 1    
    66   53   28 1    
@<TRIPOS>SUBSTRUCTURE
     1 DOG500      1 GROUP   
@<TRIPOS>SET

