#    Name: 4prg_072_4_INTS_M
#    Modification time : Tue Mar 25 13:41:32 2014

@<TRIPOS>MOLECULE
4prg_072_4_INTS_M
  131     0     9     0     0
SMALL
NO_CHARGES


@<TRIPOS>ATOM
      1 CA         80.1730   67.1945   41.1950 C.3       3 GLC5        0.0000 
      2 CA         81.7390   66.8800   42.3050 C.3       9 GLL5        0.0000 
      3 CA         78.6070   67.5090   40.0850 C.3       6 GLP5        0.0000 
      4 CA         80.1415   66.9835   43.3520 C.3       3 GLC5        0.0000 
      5 CA         78.5440   67.0870   44.3990 C.3       6 GLP5        0.0000 
      6 CA         81.8970   66.6370   44.4425 C.3       3 GLC5        0.0000 
      7 CA         82.0550   66.3940   46.5800 C.3       6 GLP5        0.0000 
      8 CA         82.7675   65.4395   44.2485 C.3       3 GLC5        0.0000 
      9 CA         82.1370   65.1140   42.1410 C.3       9 GLL5        0.0000 
     10 CA         83.3980   65.7650   46.3560 C.3       6 GLP5        0.0000 
     11 N          84.6590   62.5575   42.0395 N.am      1 SEC2        0.0000 
     12 N          84.1620   63.7400   42.7520 N.am      7 SEL2        0.0000 
     13 N          85.1560   61.3750   41.3270 N.am      4 SEP2        0.0000 
     14 CA         83.7105   63.8260   40.1495 C.3       3 GLC5        0.0000 
     15 CA         81.7070   64.6220   40.6750 C.3       9 GLL5        0.0000 
     16 CA         85.7140   63.0300   39.6240 C.3       6 GLP5        0.0000 
     17 CA         80.1570   66.0655   40.3800 C.3       3 GLC5        0.0000 
     18 CA         80.0680   63.6610   40.9960 C.3       3 GLC5        0.0000 
     19 CA         78.4290   62.7000   41.3170 C.3       6 GLP5        0.0000 
     20 CA         85.8200   70.4480   44.3055 C.3       3 GLC5        0.0000 
     21 CA         84.1280   69.9340   43.2900 C.3       9 GLL5        0.0000 
     22 CA         87.5120   70.9620   45.3210 C.3       6 GLP5        0.0000 
     23 CA         81.9385   71.6440   41.4635 C.3       3 GLC5        0.0000 
     24 CA         83.3730   71.0150   42.3580 C.3       9 GLL5        0.0000 
     25 CA         80.5040   72.2730   40.5690 C.3       6 GLP5        0.0000 
     26 CA         84.7885   70.9185   40.9390 C.3       3 GLC5        0.0000 
     27 CA         84.1060   72.3830   41.9000 C.3       9 GLL5        0.0000 
     28 CA         85.4710   69.4540   39.9780 C.3       6 GLP5        0.0000 
     29 CA         88.8100   75.1745   43.6855 C.3       3 GLC5        0.0000 
     30 CA         87.0010   74.5870   42.5940 C.3       9 GLL5        0.0000 
     31 CA         90.6190   75.7620   44.7770 C.3       6 GLP5        0.0000 
     32 CA         87.8885   73.1820   43.8210 C.3       3 GLC5        0.0000 
     33 CA         88.7760   71.7770   45.0480 C.3       6 GLP5        0.0000 
     34 CA         88.0950   73.9725   41.2345 C.3       3 GLC5        0.0000 
     35 CA         89.1890   73.3580   39.8750 C.3       6 GLP5        0.0000 
     36 CA         86.5470   75.0060   44.3035 C.3       3 GLC5        0.0000 
     37 CA         86.0930   75.4250   46.0130 C.3       6 GLP5        0.0000 
     38 CA         85.7345   67.7640   41.3685 C.3       3 GLC5        0.0000 
     39 CA         85.9980   66.0740   42.7590 C.3       9 GLL5        0.0000 
     40 CA         85.8560   64.5520   41.1915 C.3       3 GLC5        0.0000 
     41 CA         84.6980   65.9195   44.5575 C.3       3 GLC5        0.0000 
     42 CA         87.2515   68.8675   44.5625 C.3       3 GLC5        0.0000 
     43 CA         86.9910   66.7730   43.8040 C.3       9 GLL5        0.0000 
     44 CA         87.8950   68.9215   45.8250 C.3       3 GLC5        0.0000 
     45 CA         88.2780   66.8810   46.3290 C.3       9 GLL5        0.0000 
     46 CA         92.8815   70.0615   45.9960 C.3       3 GLC5        0.0000 
     47 CA         91.7290   68.7700   47.1780 C.3       9 GLL5        0.0000 
     48 CA         94.0340   71.3530   44.8140 C.3       6 GLP5        0.0000 
     49 NZ         94.7860   69.1095   49.3695 N.4       2 LYC4        0.0000 
     50 NZ         94.0780   67.9480   49.2340 N.4       8 LYL4        0.0000 
     51 NZ         96.0680   70.9600   48.5220 N.4       5 LYP4        0.0000 
     52 N          94.7860   69.1095   49.3695 N.am      1 SEC2        0.0000 
     53 N          94.0780   67.9480   49.2340 N.am      7 SEL2        0.0000 
     54 N          95.4940   70.2710   49.5050 N.am      4 SEP2        0.0000 
     55 NZ         95.2695   68.9880   48.3815 N.4       2 LYC4        0.0000 
     56 NZ         95.0450   67.7050   47.2580 N.4       8 LYL4        0.0000 
     57 N          95.3600   69.2390   47.2595 N.am      1 SEC2        0.0000 
     58 N          95.0450   67.7050   47.2580 N.am      7 SEL2        0.0000 
     59 N          95.6750   70.7730   47.2610 N.am      4 SEP2        0.0000 
     60 N          95.2695   68.9880   48.3815 N.am      1 SEC2        0.0000 
     61 CA         84.1250   64.7730   37.5315 C.3       3 GLC5        0.0000 
     62 CA         82.6100   66.1720   36.8970 C.3       9 GLL5        0.0000 
     63 CA         85.6400   63.3740   38.1660 C.3       6 GLP5        0.0000 
     64 CA         83.8320   65.6510   35.1695 C.3       3 GLC5        0.0000 
     65 CA         85.0540   65.1300   33.4420 C.3       6 GLP5        0.0000 
     66 CA         81.5935   67.4205   34.8450 C.3       3 GLC5        0.0000 
     67 CA         82.7500   68.6320   35.7780 C.3       9 GLL5        0.0000 
     68 CA         80.4370   66.2090   33.9120 C.3       6 GLP5        0.0000 
     69 CA         80.0570   67.9820   39.0015 C.3       3 GLC5        0.0000 
     70 CA         81.5070   68.4550   37.9180 C.3       9 GLL5        0.0000 
     71 CA         83.0910   70.7960   34.0265 C.3       3 GLC5        0.0000 
     72 CA         82.4260   70.0550   35.7140 C.3       9 GLL5        0.0000 
     73 CA         83.7560   71.5370   32.3390 C.3       6 GLP5        0.0000 
     74 CA         79.2130   69.5540   38.3175 C.3       3 GLC5        0.0000 
     75 CA         81.1060   69.8450   37.8200 C.3       9 GLL5        0.0000 
     76 CA         77.3200   69.2630   38.8150 C.3       6 GLP5        0.0000 
     77 CA         80.4760   65.3970   35.6975 C.3       3 GLC5        0.0000 
     78 CA         80.5150   64.5850   37.4830 C.3       9 GLL5        0.0000 
     79 CA         78.7130   65.6995   37.9395 C.3       3 GLC5        0.0000 
     80 CA         76.9110   66.8140   38.3960 C.3       6 GLP5        0.0000 
     81 CA         80.4135   64.3175   34.8990 C.3       3 GLC5        0.0000 
     82 CA         80.3900   62.4260   35.8860 C.3       9 GLL5        0.0000 
     83 CA         77.6095   61.3345   37.1490 C.3       3 GLC5        0.0000 
     84 CA         79.5360   60.7500   38.0900 C.3       9 GLL5        0.0000 
     85 CA         75.6830   61.9190   36.2080 C.3       6 GLP5        0.0000 
     86 CA         78.6900   60.8240   34.3730 C.3       3 GLC5        0.0000 
     87 CA         80.0210   61.0480   35.6450 C.3       9 GLL5        0.0000 
     88 CA         77.3590   60.6000   33.1010 C.3       6 GLP5        0.0000 
     89 CA         77.9370   60.0420   35.4800 C.3       3 GLC5        0.0000 
     90 CA         79.5900   60.2020   36.7380 C.3       9 GLL5        0.0000 
     91 CA         76.2840   59.8820   34.2220 C.3       6 GLP5        0.0000 
     92 CA         84.4820   68.6912   41.5565 C.3       3 GLC5        0.0000 
     93 CA         83.4910   67.3280   42.6040 C.3       9 GLL5        0.0000 
     94 CA         83.4455   66.8468   44.7455 C.3       3 GLC5        0.0000 
     95 CA         84.3337   69.6103   45.5390 C.3       3 GLC5        0.0000 
     96 CA         83.4950   68.5290   43.6660 C.3       9 GLL5        0.0000 
     97 CA         84.8560   69.9890   47.6000 C.3       6 GLP5        0.0000 
     98 CA         84.6107   69.9642   41.4010 C.3       3 GLC5        0.0000 
     99 CA         83.5427   71.6122   44.5190 C.3       3 GLC5        0.0000 
    100 CA         83.3350   72.7500   46.2140 C.3       6 GLP5        0.0000 
    101 CA         83.8077   72.8705   44.3090 C.3       3 GLC5        0.0000 
    102 CA         84.4550   73.5990   42.9080 C.3       9 GLL5        0.0000 
    103 CA         82.4612   73.2835   42.0985 C.3       3 GLC5        0.0000 
    104 CA         80.6420   73.5760   41.7930 C.3       6 GLP5        0.0000 
    105 CA         85.5205   74.8060   44.3588 C.3       3 GLC5        0.0000 
    106 CA         86.7925   76.5810   42.3978 C.3       3 GLC5        0.0000 
    107 CA         85.4410   74.7750   42.5010 C.3       9 GLL5        0.0000 
    108 CA         87.3640   78.4810   42.2480 C.3       6 GLP5        0.0000 
    109 CA         88.1973   66.6677   42.0233 C.3       3 GLC5        0.0000 
    110 CA         89.9000   66.9120   40.7650 C.3       6 GLP5        0.0000 
    111 CA         86.5067   65.2630   46.3755 C.3       3 GLC5        0.0000 
    112 CA         87.5790   66.1070   45.0890 C.3       9 GLL5        0.0000 
    113 CA         85.0850   64.0320   47.0420 C.3       6 GLP5        0.0000 
    114 CA         86.5678   67.3985   46.9070 C.3       3 GLC5        0.0000 
    115 CA         85.2070   68.3030   48.1050 C.3       6 GLP5        0.0000 
    116 CA         90.4830   69.5877   48.9468 C.3       3 GLC5        0.0000 
    117 CA         89.9420   70.5340   50.8700 C.3       6 GLP5        0.0000 
    118 CA         90.2905   70.3282   46.6848 C.3       3 GLC5        0.0000 
    119 CA         89.5570   72.0150   46.3460 C.3       6 GLP5        0.0000 
    120 CA         92.6444   65.6211   48.3184 C.3       3 GLC5        0.0000 
    121 CA         92.6880   67.6460   47.3040 C.3       9 GLL5        0.0000 
    122 CA         93.1880   64.3300   49.5720 C.3       6 GLP5        0.0000 
    123 CA         81.4390   66.5895   35.3972 C.3       3 GLC5        0.0000 
    124 CA         84.2795   68.4735   37.3955 C.3       3 GLC5        0.0000 
    125 CA         82.2720   67.7680   36.8680 C.3       9 GLL5        0.0000 
    126 CA         86.0480   68.7470   38.4680 C.3       6 GLP5        0.0000 
    127 CA         80.9147   71.2555   38.9143 C.3       3 GLC5        0.0000 
    128 CA         79.0973   62.0645   39.7632 C.3       3 GLC5        0.0000 
    129 CA         79.9950   62.1080   38.3290 C.3       9 GLL5        0.0000 
    130 CA         81.6058   61.5335   34.4793 C.3       3 GLC5        0.0000 
    131 CA         83.0060   61.3300   33.1930 C.3       6 GLP5        0.0000 
@<TRIPOS>BOND
@<TRIPOS>SUBSTRUCTURE
     1 SEC2       11 GROUP        1 X    SEC  0     ROOT SEC X 2
     2 LYC4       49 GROUP        1 X    LYC  0     **** LYC X 4
     3 GLC5        1 GROUP        1 X    GLC  0     **** GLC X 6
     4 SEP2       13 GROUP        1 Y    SEP  0     ROOT SEP Y 9
     5 LYP4       51 GROUP        1 Y    LYP  0     **** LYP Y 11
     6 GLP5        3 GROUP        1 Y    GLP  0     **** GLP Y 13
     7 SEL2       12 GROUP        1 Z    SEL  0     ROOT SEL Z 16
     8 LYL4       50 GROUP        1 Z    LYL  0     **** LYL Z 18
     9 GLL5        2 GROUP        1 Z    GLL  0     **** GLL Z 20
@<TRIPOS>SET

