#    Name: 4prg_072_4_ligand
#    Modification time : Tue Mar 25 13:41:32 2014

@<TRIPOS>MOLECULE
4prg_072_4_ligand
   89    92     1     0     0
SMALL
NO_CHARGES


@<TRIPOS>ATOM
      1 S1B        81.7390   66.8800   42.3050 S.3       1 0724        0.0000 
      2 C1A        83.6750   64.9040   42.6090 C.2       1 0724        0.0000 
      3 C1B        82.1370   65.1140   42.1410 C.3       1 0724        0.0000 
      4 O1A        84.1620   63.7400   42.7520 O.2       1 0724        0.0000 
      5 C1C        81.7070   64.6220   40.6750 C.3       1 0724        0.0000 
      6 C1D        82.4300   65.0870   39.2740 C.2       1 0724        0.0000 
      7 O1D        83.6250   65.3730   39.4520 O.2       1 0724        0.0000 
      8 C2A        83.4910   67.3280   42.6040 C.3       1 0724        0.0000 
      9 C2B        83.4950   68.5290   43.6660 C.3       1 0724        0.0000 
     10 C2C        84.1280   69.9340   43.2900 C.3       1 0724        0.0000 
     11 C2D        83.3730   71.0150   42.3580 C.3       1 0724        0.0000 
     12 C2E        84.1060   72.3830   41.9000 C.3       1 0724        0.0000 
     13 C2F        84.4550   73.5990   42.9080 C.3       1 0724        0.0000 
     14 C2G        85.4410   74.7750   42.5010 C.3       1 0724        0.0000 
     15 C2H        87.0010   74.5870   42.5940 C.3       1 0724        0.0000 
     16 N3A        84.3970   66.1000   42.7900 N.am      1 0724        0.0000 
     17 C3B        85.9980   66.0740   42.7590 C.3       1 0724        0.0000 
     18 C3C        86.9910   66.7730   43.8040 C.3       1 0724        0.0000 
     19 C3D        87.5790   66.1070   45.0890 C.3       1 0724        0.0000 
     20 C3E        88.2780   66.8810   46.3290 C.3       1 0724        0.0000 
     21 C3F        89.8340   67.1620   46.5840 C.ar      1 0724        0.0000 
     22 C3G        90.8070   66.0530   46.7030 C.ar      1 0724        0.0000 
     23 C3H        90.3190   68.5130   46.8690 C.ar      1 0724        0.0000 
     24 C3I        92.2200   66.3040   46.9480 C.ar      1 0724        0.0000 
     25 C3J        91.7290   68.7700   47.1780 C.ar      1 0724        0.0000 
     26 C3K        92.6880   67.6460   47.3040 C.ar      1 0724        0.0000 
     27 C3L        94.0060   67.8000   47.9670 C.2       1 0724        0.0000 
     28 O3M        94.0780   67.9480   49.2340 O.co2     1 0724        0.0000 
     29 O3N        95.0450   67.7050   47.2580 O.co2     1 0724        0.0000 
     30 N4A        81.9150   65.1830   37.9210 N.am      1 0724        0.0000 
     31 C4B        82.6100   66.1720   36.8970 C.3       1 0724        0.0000 
     32 C4C        82.2720   67.7680   36.8680 C.ar      1 0724        0.0000 
     33 C4E        82.7500   68.6320   35.7780 C.ar      1 0724        0.0000 
     34 C4D        81.5070   68.4550   37.9180 C.ar      1 0724        0.0000 
     35 C4G        82.4260   70.0550   35.7140 C.ar      1 0724        0.0000 
     36 C4F        81.1060   69.8450   37.8200 C.ar      1 0724        0.0000 
     37 C4H        81.5450   70.6310   36.6990 C.ar      1 0724        0.0000 
     38 C5B        80.5150   64.5850   37.4830 C.3       1 0724        0.0000 
     39 C5C        80.3820   62.9950   37.2330 C.ar      1 0724        0.0000 
     40 C5D        79.9950   62.1080   38.3290 C.ar      1 0724        0.0000 
     41 C5E        80.3900   62.4260   35.8860 C.ar      1 0724        0.0000 
     42 C5F        79.5360   60.7500   38.0900 C.ar      1 0724        0.0000 
     43 C5G        80.0210   61.0480   35.6450 C.ar      1 0724        0.0000 
     44 C5H        79.5900   60.2020   36.7380 C.ar      1 0724        0.0000 
     45 H          81.4771   64.6835   42.8842 H         1 0724        0.0000 
     46 H          80.6010   64.8495   40.5489 H         1 0724        0.0000 
     47 H          81.7255   63.4860   40.6766 H         1 0724        0.0000 
     48 H          83.7075   67.8087   41.5961 H         1 0724        0.0000 
     49 H          84.0063   68.1560   44.5888 H         1 0724        0.0000 
     50 H          82.4344   68.7009   43.9785 H         1 0724        0.0000 
     51 H          85.1352   69.7427   42.8152 H         1 0724        0.0000 
     52 H          84.3911   70.4628   44.2532 H         1 0724        0.0000 
     53 H          82.4251   71.3019   42.8765 H         1 0724        0.0000 
     54 H          83.0433   70.4864   41.4298 H         1 0724        0.0000 
     55 H          83.4942   72.8190   41.0544 H         1 0724        0.0000 
     56 H          85.0721   72.0865   41.3917 H         1 0724        0.0000 
     57 H          84.8431   73.1342   43.8564 H         1 0724        0.0000 
     58 H          83.4749   74.0591   43.2143 H         1 0724        0.0000 
     59 H          85.1638   75.6738   43.1149 H         1 0724        0.0000 
     60 H          85.1909   75.0740   41.4477 H         1 0724        0.0000 
     61 H          86.3120   66.4385   41.7144 H         1 0724        0.0000 
     62 H          86.3072   64.9677   42.7027 H         1 0724        0.0000 
     63 H          86.4818   67.7513   44.1223 H         1 0724        0.0000 
     64 H          87.8720   67.1744   43.1871 H         1 0724        0.0000 
     65 H          88.3331   65.3077   44.7570 H         1 0724        0.0000 
     66 H          86.7572   65.4541   45.5540 H         1 0724        0.0000 
     67 H          87.8735   66.3728   47.2878 H         1 0724        0.0000 
     68 H          87.7413   67.9043   46.4063 H         1 0724        0.0000 
     69 H          90.4719   65.1009   46.6103 H         1 0724        0.0000 
     70 H          89.6665   69.2892   46.8527 H         1 0724        0.0000 
     71 H          92.8862   65.5496   46.8730 H         1 0724        0.0000 
     72 H          92.0546   69.7108   47.3065 H         1 0724        0.0000 
     73 H          82.4245   65.7885   35.8565 H         1 0724        0.0000 
     74 H          83.7237   66.0848   37.0245 H         1 0724        0.0000 
     75 H          83.3263   68.2203   35.0448 H         1 0724        0.0000 
     76 H          81.2487   67.9197   38.7556 H         1 0724        0.0000 
     77 H          82.8198   70.6226   34.9833 H         1 0724        0.0000 
     78 H          80.5245   70.2516   38.5343 H         1 0724        0.0000 
     79 H          81.2361   71.5899   36.5998 H         1 0724        0.0000 
     80 H          80.1938   65.0928   36.5480 H         1 0724        0.0000 
     81 H          79.7600   64.8615   38.2504 H         1 0724        0.0000 
     82 H          80.0500   62.4552   39.2858 H         1 0724        0.0000 
     83 H          80.6625   63.0185   35.1042 H         1 0724        0.0000 
     84 H          79.1849   60.1921   38.8449 H         1 0724        0.0000 
     85 H          80.0643   60.6722   34.7057 H         1 0724        0.0000 
     86 H          79.3299   59.2476   36.5734 H         1 0724        0.0000 
     87 H          87.4919   75.4105   42.3098 H         1 0724        0.0000 
     88 H          87.2949   74.3777   43.5266 H         1 0724        0.0000 
     89 H          87.3204   73.8396   42.0114 H         1 0724        0.0000 
@<TRIPOS>BOND
     1    3    1 1    
     2    8    1 1    
     3    3    2 1    
     4    4    2 2    
     5   16    2 am   
     6    5    3 1    
     7   45    3 1    
     8    6    5 1    
     9   46    5 1    
    10   47    5 1    
    11    7    6 2    
    12   30    6 am   
    13    9    8 1    
    14   16    8 1    
    15   48    8 1    
    16   10    9 1    
    17   49    9 1    
    18   50    9 1    
    19   11   10 1    
    20   51   10 1    
    21   52   10 1    
    22   12   11 1    
    23   53   11 1    
    24   54   11 1    
    25   13   12 1    
    26   55   12 1    
    27   56   12 1    
    28   14   13 1    
    29   57   13 1    
    30   58   13 1    
    31   15   14 1    
    32   59   14 1    
    33   60   14 1    
    34   87   15 1    
    35   88   15 1    
    36   89   15 1    
    37   17   16 1    
    38   18   17 1    
    39   61   17 1    
    40   62   17 1    
    41   19   18 1    
    42   63   18 1    
    43   64   18 1    
    44   20   19 1    
    45   65   19 1    
    46   66   19 1    
    47   21   20 1    
    48   67   20 1    
    49   68   20 1    
    50   22   21 ar   
    51   23   21 ar   
    52   24   22 ar   
    53   69   22 1    
    54   25   23 ar   
    55   70   23 1    
    56   26   24 ar   
    57   71   24 1    
    58   26   25 ar   
    59   72   25 1    
    60   27   26 1    
    61   28   27 ar   
    62   29   27 ar   
    63   31   30 1    
    64   38   30 1    
    65   32   31 1    
    66   73   31 1    
    67   74   31 1    
    68   33   32 ar   
    69   34   32 ar   
    70   35   33 ar   
    71   75   33 1    
    72   36   34 ar   
    73   76   34 1    
    74   37   35 ar   
    75   77   35 1    
    76   37   36 ar   
    77   78   36 1    
    78   79   37 1    
    79   39   38 1    
    80   80   38 1    
    81   81   38 1    
    82   40   39 ar   
    83   41   39 ar   
    84   42   40 ar   
    85   82   40 1    
    86   43   41 ar   
    87   83   41 1    
    88   44   42 ar   
    89   84   42 1    
    90   44   43 ar   
    91   85   43 1    
    92   86   44 1    
@<TRIPOS>SUBSTRUCTURE
     1 0724        1 GROUP   
@<TRIPOS>SET

