#    Name: 1ri4_SAM_1_INTS_M
#    Modification time : Tue Mar 25 00:43:47 2014

@<TRIPOS>MOLECULE
1ri4_SAM_1_INTS_M
   59     0    12     0     0
SMALL
NO_CHARGES


@<TRIPOS>ATOM
      1 O          14.1560   29.1420   92.0290 O.2       1 ALC1        0.0000 
      2 O          13.4450   30.5230   92.1840 O.2       9 ALL1        0.0000 
      3 O          14.8670   27.7610   91.8740 O.2       5 ALP1        0.0000 
      4 O          13.3535   30.8435   90.6670 O.2       1 ALC1        0.0000 
      5 O          13.2620   31.1640   89.1500 O.2       5 ALP1        0.0000 
      6 NZ         11.9010   34.2000   92.6515 N.4       3 LYC4        0.0000 
      7 NZ         12.3860   32.9290   92.2620 N.4      11 LYL4        0.0000 
      8 NZ         11.4160   35.4710   93.0410 N.4       7 LYP4        0.0000 
      9 N          11.9010   34.2000   92.6515 N.am      2 SEC2        0.0000 
     10 N          12.3860   32.9290   92.2620 N.am     10 SEL2        0.0000 
     11 N          11.4160   35.4710   93.0410 N.am      6 SEP2        0.0000 
     12 NZ         12.6170   34.6005   93.4290 N.4       3 LYC4        0.0000 
     13 NZ         13.8180   33.7300   93.8170 N.4      11 LYL4        0.0000 
     14 CA         16.1180   33.1910   88.8590 C.3       4 GLC5        0.0000 
     15 CA         17.5800   32.8620   89.9450 C.3      12 GLL5        0.0000 
     16 CA         14.6560   33.5200   87.7730 C.3       8 GLP5        0.0000 
     17 CA         18.6465   29.8255   87.6325 C.3       4 GLC5        0.0000 
     18 CA         17.8960   30.0610   89.5570 C.3      12 GLL5        0.0000 
     19 CA         19.3970   29.5900   85.7080 C.3       8 GLP5        0.0000 
     20 CA         16.5055   27.1445   90.4920 C.3       4 GLC5        0.0000 
     21 CA         18.0620   28.6620   90.1690 C.3      12 GLL5        0.0000 
     22 CA         14.9490   25.6270   90.8150 C.3       8 GLP5        0.0000 
     23 O          18.3385   27.0680   92.5310 O.2       1 ALC1        0.0000 
     24 O          19.1100   28.2640   92.3050 O.2       9 ALL1        0.0000 
     25 O          17.5670   25.8720   92.7570 O.2       5 ALP1        0.0000 
     26 CA         20.7225   25.0120   90.1365 C.3       4 GLC5        0.0000 
     27 CA         19.9060   27.0120   90.3970 C.3      12 GLL5        0.0000 
     28 CA         21.5390   23.0120   89.8760 C.3       8 GLP5        0.0000 
     29 O          19.9535   25.4070   92.1615 O.2       1 ALC1        0.0000 
     30 O          20.4730   26.0120   91.2380 O.2       9 ALL1        0.0000 
     31 O          19.4340   24.8020   93.0850 O.2       5 ALP1        0.0000 
     32 O          19.0200   25.9420   91.9975 O.2       1 ALC1        0.0000 
     33 CA         16.8085   26.0930   90.1935 C.3       4 GLC5        0.0000 
     34 CA         18.6680   26.5590   89.5720 C.3      12 GLL5        0.0000 
     35 CA         17.0780   27.4135   88.4665 C.3       4 GLC5        0.0000 
     36 CA         15.4880   28.2680   87.3610 C.3       8 GLP5        0.0000 
     37 CA         19.9315   22.0115   88.4770 C.3       4 GLC5        0.0000 
     38 CA         18.8200   22.4500   86.9320 C.3      12 GLL5        0.0000 
     39 CA         21.0430   21.5730   90.0220 C.3       8 GLP5        0.0000 
     40 CA         17.6415   21.7730   85.2190 C.3       4 GLC5        0.0000 
     41 CA         16.4630   21.0960   83.5060 C.3       8 GLP5        0.0000 
     42 O          19.0400   20.3800   85.6770 O.2       1 ALC1        0.0000 
     43 O          19.3610   21.8070   85.8650 O.2       9 ALL1        0.0000 
     44 O          18.7190   18.9530   85.4890 O.2       5 ALP1        0.0000 
     45 N          17.2635   20.2465   87.7090 N.am      2 SEC2        0.0000 
     46 N          17.9050   21.7720   87.7380 N.am     10 SEL2        0.0000 
     47 N          16.6220   18.7210   87.6800 N.am      6 SEP2        0.0000 
     48 N          16.2570   21.2605   87.9445 N.am      2 SEC2        0.0000 
     49 N          14.6090   20.7490   88.1510 N.am      6 SEP2        0.0000 
     50 CA         16.1650   24.0310   89.8135 C.3       4 GLC5        0.0000 
     51 CA         17.3810   22.4350   88.8120 C.3      12 GLL5        0.0000 
     52 CA         17.3255   22.4630   90.8870 C.3       4 GLC5        0.0000 
     53 CA         17.2700   22.4910   92.9620 C.3       8 GLP5        0.0000 
     54 CA         19.2120   22.0040   89.4170 C.3       4 GLC5        0.0000 
     55 CA         15.8320   20.9000   88.4670 C.3       4 GLC5        0.0000 
     56 CA         14.2830   19.3650   88.1220 C.3       8 GLP5        0.0000 
     57 CA         16.7335   28.8148   88.6120 C.3       4 GLC5        0.0000 
     58 CA         20.1923   23.5450   88.8478 C.3       4 GLC5        0.0000 
     59 CA         18.5410   24.3440   88.3860 C.3      12 GLL5        0.0000 
@<TRIPOS>BOND
@<TRIPOS>SUBSTRUCTURE
     1 ALC1        1 GROUP        1 X    ALC  0     ROOT ALC X 1
     2 SEC2        9 GROUP        1 X    SEC  0     **** SEC X 2
     3 LYC4        6 GROUP        1 X    LYC  0     **** LYC X 4
     4 GLC5       14 GROUP        1 X    GLC  0     **** GLC X 6
     5 ALP1        3 GROUP        1 Y    ALP  0     ROOT ALP Y 8
     6 SEP2       11 GROUP        1 Y    SEP  0     **** SEP Y 9
     7 LYP4        8 GROUP        1 Y    LYP  0     **** LYP Y 11
     8 GLP5       16 GROUP        1 Y    GLP  0     **** GLP Y 13
     9 ALL1        2 GROUP        1 Z    ALL  0     ROOT ALL Z 15
    10 SEL2       10 GROUP        1 Z    SEL  0     **** SEL Z 16
    11 LYL4        7 GROUP        1 Z    LYL  0     **** LYL Z 18
    12 GLL5       15 GROUP        1 Z    GLL  0     **** GLL Z 20
@<TRIPOS>SET

