#    Name: 1ri4_SAM_1_ligand
#    Modification time : Tue Mar 25 00:43:48 2014

@<TRIPOS>MOLECULE
1ri4_SAM_1_ligand
   50    52     1     0     0
SMALL
NO_CHARGES


@<TRIPOS>ATOM
      1 N          13.4450   30.5230   92.1840 N.4       1 SAM299      0.0000 
      2 CA         14.0980   31.5040   93.1020 C.3       1 SAM299      0.0000 
      3 C          13.3520   32.8130   93.0410 C.2       1 SAM299      0.0000 
      4 O          12.3860   32.9290   92.2620 O.co2     1 SAM299      0.0000 
      5 OXT        13.8180   33.7300   93.8170 O.co2     1 SAM299      0.0000 
      6 CB         15.5760   31.8230   92.6700 C.3       1 SAM299      0.0000 
      7 CG         16.0820   30.9950   91.4960 C.3       1 SAM299      0.0000 
      8 SD         17.7560   31.2860   90.8180 S.3       1 SAM299      0.0000 
      9 CE         17.5800   32.8620   89.9450 C.3       1 SAM299      0.0000 
     10 C5'        17.8960   30.0610   89.5570 C.3       1 SAM299      0.0000 
     11 C4'        18.0620   28.6620   90.1690 C.3       1 SAM299      0.0000 
     12 O4'        18.0640   27.7110   89.0860 O.3       1 SAM299      0.0000 
     13 C3'        19.4360   28.4040   90.8590 C.3       1 SAM299      0.0000 
     14 O3'        19.1100   28.2640   92.3050 O.3       1 SAM299      0.0000 
     15 C2'        19.9060   27.0120   90.3970 C.3       1 SAM299      0.0000 
     16 O2'        20.4730   26.0120   91.2380 O.3       1 SAM299      0.0000 
     17 C1'        18.6680   26.5590   89.5720 C.3       1 SAM299      0.0000 
     18 N9         19.0320   25.6310   88.5030 N.pl3     1 SAM299      0.0000 
     19 C8         19.9030   25.8040   87.4300 C.2       1 SAM299      0.0000 
     20 N7         20.0080   24.7400   86.6600 N.2       1 SAM299      0.0000 
     21 C5         19.1500   23.8120   87.2530 C.ar      1 SAM299      0.0000 
     22 C6         18.8200   22.4500   86.9320 C.ar      1 SAM299      0.0000 
     23 N6         19.3610   21.8070   85.8650 N.pl3     1 SAM299      0.0000 
     24 N1         17.9050   21.7720   87.7380 N.ar      1 SAM299      0.0000 
     25 C2         17.3810   22.4350   88.8120 C.ar      1 SAM299      0.0000 
     26 N3         17.6340   23.7090   89.2050 N.ar      1 SAM299      0.0000 
     27 C4         18.5410   24.3440   88.3860 C.ar      1 SAM299      0.0000 
     28 H          14.1142   31.1536   94.1019 H         1 SAM299      0.0000 
     29 H          16.2236   31.6606   93.5447 H         1 SAM299      0.0000 
     30 H          15.6286   32.8931   92.4190 H         1 SAM299      0.0000 
     31 H          15.4563   31.1039   90.5884 H         1 SAM299      0.0000 
     32 H          16.1208   29.9101   91.7167 H         1 SAM299      0.0000 
     33 H          18.7502   30.3700   88.9974 H         1 SAM299      0.0000 
     34 H          16.9902   30.1634   89.0026 H         1 SAM299      0.0000 
     35 H          17.2899   28.4506   90.8506 H         1 SAM299      0.0000 
     36 H          20.0954   29.1249   90.6554 H         1 SAM299      0.0000 
     37 H          20.6454   27.2684   89.5324 H         1 SAM299      0.0000 
     38 H          18.0089   26.0530   90.2898 H         1 SAM299      0.0000 
     39 H          20.3834   26.6671   87.2915 H         1 SAM299      0.0000 
     40 H          18.7906   21.1048   85.4388 H         1 SAM299      0.0000 
     41 H          20.2820   22.0925   85.5998 H         1 SAM299      0.0000 
     42 H          16.6756   21.8697   89.4241 H         1 SAM299      0.0000 
     43 H          13.9085   29.6369   92.1968 H         1 SAM299      0.0000 
     44 H          12.4909   30.3584   92.4343 H         1 SAM299      0.0000 
     45 H          13.4485   30.8420   91.2362 H         1 SAM299      0.0000 
     46 H          18.4371   33.1464   89.5154 H         1 SAM299      0.0000 
     47 H          16.8922   32.8107   89.2209 H         1 SAM299      0.0000 
     48 H          17.3024   33.5990   90.5613 H         1 SAM299      0.0000 
     49 H          18.6155   27.3977   92.3760 H         1 SAM299      0.0000 
     50 H          19.9819   26.0944   92.1052 H         1 SAM299      0.0000 
@<TRIPOS>BOND
     1    2    1 1    
     2   43    1 1    
     3   44    1 1    
     4   45    1 1    
     5    3    2 1    
     6    6    2 1    
     7   28    2 1    
     8    4    3 ar   
     9    5    3 ar   
    10    7    6 1    
    11   29    6 1    
    12   30    6 1    
    13    8    7 1    
    14   31    7 1    
    15   32    7 1    
    16    9    8 1    
    17   10    8 1    
    18   46    9 1    
    19   47    9 1    
    20   48    9 1    
    21   11   10 1    
    22   33   10 1    
    23   34   10 1    
    24   12   11 1    
    25   13   11 1    
    26   35   11 1    
    27   17   12 1    
    28   14   13 1    
    29   15   13 1    
    30   36   13 1    
    31   49   14 1    
    32   16   15 1    
    33   17   15 1    
    34   37   15 1    
    35   50   16 1    
    36   18   17 1    
    37   38   17 1    
    38   19   18 1    
    39   27   18 1    
    40   20   19 2    
    41   39   19 1    
    42   21   20 1    
    43   22   21 ar   
    44   27   21 ar   
    45   23   22 1    
    46   24   22 ar   
    47   40   23 1    
    48   41   23 1    
    49   25   24 ar   
    50   26   25 ar   
    51   42   25 1    
    52   27   26 ar   
@<TRIPOS>SUBSTRUCTURE
     1 SAM299      1 GROUP   
@<TRIPOS>SET

