#    Name: 1wy7_SAH_1_INTS_M
#    Modification time : Tue Mar 25 09:27:57 2014

@<TRIPOS>MOLECULE
1wy7_SAH_1_INTS_M
   66     0     9     0     0
SMALL
NO_CHARGES


@<TRIPOS>ATOM
      1 O          41.5570   -0.5715   44.0550 O.2       1 ALC1        0.0000 
      2 O          40.4990   -1.6810   43.3890 O.2       7 ALL1        0.0000 
      3 O          42.6150    0.5380   44.7210 O.2       4 ALP1        0.0000 
      4 CA         40.8295   -1.7405   41.8615 C.3       3 GLC5        0.0000 
      5 CA         39.1630   -1.7030   42.7600 C.3       9 GLL5        0.0000 
      6 CA         42.4960   -1.7780   40.9630 C.3       6 GLP5        0.0000 
      7 CA         38.8200   -0.6490   40.9375 C.3       3 GLC5        0.0000 
      8 CA         38.4770    0.4050   39.1150 C.3       6 GLP5        0.0000 
      9 CA         38.8890   -2.7905   45.2560 C.3       3 GLC5        0.0000 
     10 CA         38.4180   -2.9290   43.3120 C.3       9 GLL5        0.0000 
     11 CA         39.3600   -2.6520   47.2000 C.3       6 GLP5        0.0000 
     12 CA         39.9995   -6.8865   42.9300 C.3       3 GLC5        0.0000 
     13 CA         38.1490   -5.7400   42.6230 C.3       9 GLL5        0.0000 
     14 CA         41.8500   -8.0330   43.2370 C.3       6 GLP5        0.0000 
     15 N          39.4275    1.9035   43.8880 N.am      2 SEC2        0.0000 
     16 N          39.2770    0.6020   43.3560 N.am      8 SEL2        0.0000 
     17 N          39.5780    3.2050   44.4200 N.am      5 SEP2        0.0000 
     18 CA         40.1580   -5.6920   45.3860 C.3       3 GLC5        0.0000 
     19 CA         38.3450   -6.8370   45.5470 C.3       9 GLL5        0.0000 
     20 CA         41.9710   -4.5470   45.2250 C.3       6 GLP5        0.0000 
     21 O          38.4460   -5.3890   47.4125 O.2       1 ALC1        0.0000 
     22 O          39.1990   -5.8460   46.1530 O.2       7 ALL1        0.0000 
     23 O          37.6930   -4.9320   48.6720 O.2       4 ALP1        0.0000 
     24 CA         38.7370   -9.8730   46.4480 C.3       3 GLC5        0.0000 
     25 CA         37.9810   -7.9070   46.5890 C.3       9 GLL5        0.0000 
     26 CA         39.4930  -11.8390   46.3070 C.3       6 GLP5        0.0000 
     27 N          40.1480   -8.2095   47.9470 N.am      2 SEC2        0.0000 
     28 N          38.7610   -8.1060   47.7460 N.am      8 SEL2        0.0000 
     29 N          41.5350   -8.3130   48.1480 N.am      5 SEP2        0.0000 
     30 O          38.2270   -6.5190   48.2090 O.2       1 ALC1        0.0000 
     31 O          38.7610   -8.1060   47.7460 O.2       7 ALL1        0.0000 
     32 O          38.5410   -7.3685   48.8230 O.2       1 ALC1        0.0000 
     33 O          38.3210   -6.6310   49.9000 O.2       4 ALP1        0.0000 
     34 CA         35.3095   -6.0075   46.7600 C.3       3 GLC5        0.0000 
     35 CA         36.4930   -7.6180   46.8520 C.3       9 GLL5        0.0000 
     36 CA         34.1260   -4.3970   46.6680 C.3       6 GLP5        0.0000 
     37 CA         32.1580  -10.2495   50.8910 C.3       3 GLC5        0.0000 
     38 CA         33.0480  -10.3950   48.8510 C.3       9 GLL5        0.0000 
     39 CA         31.2680  -10.1040   52.9310 C.3       6 GLP5        0.0000 
     40 CA         30.9560   -9.8165   48.6710 C.3       3 GLC5        0.0000 
     41 CA         28.8640   -9.2380   48.4910 C.3       6 GLP5        0.0000 
     42 O          31.8360  -12.1285   49.9395 O.2       1 ALC1        0.0000 
     43 O          32.4350  -11.5990   48.8760 O.2       7 ALL1        0.0000 
     44 O          31.2370  -12.6580   51.0030 O.2       4 ALP1        0.0000 
     45 N          31.3595   -9.1410   50.4485 N.am      2 SEC2        0.0000 
     46 N          32.5930   -9.4150   49.7010 N.am      8 SEL2        0.0000 
     47 N          30.1260   -8.8670   51.1960 N.am      5 SEP2        0.0000 
     48 CA         34.3205   -6.4655   50.4865 C.3       3 GLC5        0.0000 
     49 CA         33.2030   -8.2070   49.6670 C.3       9 GLL5        0.0000 
     50 CA         35.4380   -4.7240   51.3060 C.3       6 GLP5        0.0000 
     51 CA         34.4330   -8.8825   50.8250 C.3       3 GLC5        0.0000 
     52 CA         35.6630   -9.5580   51.9830 C.3       6 GLP5        0.0000 
     53 CA         32.2355   -9.1555   51.2990 C.3       3 GLC5        0.0000 
     54 CA         31.2310   -8.0425   49.3800 C.3       3 GLC5        0.0000 
     55 CA         29.2590   -7.8780   49.0930 C.3       6 GLP5        0.0000 
     56 N          35.0440   -7.4520   50.3505 N.am      2 SEC2        0.0000 
     57 N          34.2400   -7.8240   48.8860 N.am      8 SEL2        0.0000 
     58 N          35.8480   -7.0800   51.8150 N.am      5 SEP2        0.0000 
     59 CA         40.2728   -4.0183   44.0373 C.3       3 GLC5        0.0000 
     60 CA         35.5285   -5.1327   45.5950 C.3       3 GLC5        0.0000 
     61 CA         36.8080   -5.6670   43.7910 C.3       9 GLL5        0.0000 
     62 CA         39.8950   -7.9960   45.9060 C.3       3 GLC5        0.0000 
     63 CA         41.6270   -8.6200   45.7440 C.3       6 GLP5        0.0000 
     64 CA         35.3840   -9.7060   49.5464 C.3       3 GLC5        0.0000 
     65 CA         34.1380  -10.1230   47.9800 C.3       9 GLL5        0.0000 
     66 CA         36.6380   -9.8640   50.8600 C.3       6 GLP5        0.0000 
@<TRIPOS>BOND
@<TRIPOS>SUBSTRUCTURE
     1 ALC1        1 GROUP        1 X    ALC  0     ROOT ALC X 1
     2 SEC2       15 GROUP        1 X    SEC  0     **** SEC X 2
     3 GLC5        4 GROUP        1 X    GLC  0     **** GLC X 6
     4 ALP1        3 GROUP        1 Y    ALP  0     ROOT ALP Y 8
     5 SEP2       17 GROUP        1 Y    SEP  0     **** SEP Y 9
     6 GLP5        6 GROUP        1 Y    GLP  0     **** GLP Y 13
     7 ALL1        2 GROUP        1 Z    ALL  0     ROOT ALL Z 15
     8 SEL2       16 GROUP        1 Z    SEL  0     **** SEL Z 16
     9 GLL5        5 GROUP        1 Z    GLL  0     **** GLL Z 20
@<TRIPOS>SET

