#    Name: 1wy7_SAH_1_ligand
#    Modification time : Tue Mar 25 09:27:57 2014

@<TRIPOS>MOLECULE
1wy7_SAH_1_ligand
   46    48     1     0     0
SMALL
NO_CHARGES


@<TRIPOS>ATOM
      1 N          40.4990   -1.6810   43.3890 N.4       1 SAH1001     0.0000 
      2 CA         39.1630   -1.7030   42.7600 C.3       1 SAH1001     0.0000 
      3 CB         38.4180   -2.9290   43.3120 C.3       1 SAH1001     0.0000 
      4 CG         38.7310   -4.0500   42.3870 C.3       1 SAH1001     0.0000 
      5 SD         38.1490   -5.7400   42.6230 S.3       1 SAH1001     0.0000 
      6 C          38.5220   -0.3720   43.0490 C.2       1 SAH1001     0.0000 
      7 O          39.2770    0.6020   43.3560 O.co2     1 SAH1001     0.0000 
      8 OXT        37.2490   -0.3730   42.9600 O.co2     1 SAH1001     0.0000 
      9 C5'        36.8080   -5.6670   43.7910 C.3       1 SAH1001     0.0000 
     10 C4'        37.0540   -6.0700   45.2530 C.3       1 SAH1001     0.0000 
     11 O4'        36.0370   -7.0190   45.6620 O.3       1 SAH1001     0.0000 
     12 C3'        38.3450   -6.8370   45.5470 C.3       1 SAH1001     0.0000 
     13 O3'        39.1990   -5.8460   46.1530 O.3       1 SAH1001     0.0000 
     14 C2'        37.9810   -7.9070   46.5890 C.3       1 SAH1001     0.0000 
     15 O2'        38.7610   -8.1060   47.7460 O.3       1 SAH1001     0.0000 
     16 C1'        36.4930   -7.6180   46.8520 C.3       1 SAH1001     0.0000 
     17 N9         35.6850   -8.7990   47.1190 N.pl3     1 SAH1001     0.0000 
     18 C8         35.7150  -10.0600   46.5500 C.2       1 SAH1001     0.0000 
     19 N7         34.8150  -10.8810   47.0300 N.2       1 SAH1001     0.0000 
     20 C5         34.1380  -10.1230   47.9800 C.ar      1 SAH1001     0.0000 
     21 C6         33.0480  -10.3950   48.8510 C.ar      1 SAH1001     0.0000 
     22 N6         32.4350  -11.5990   48.8760 N.pl3     1 SAH1001     0.0000 
     23 N1         32.5930   -9.4150   49.7010 N.ar      1 SAH1001     0.0000 
     24 C2         33.2030   -8.2070   49.6670 C.ar      1 SAH1001     0.0000 
     25 N3         34.2400   -7.8240   48.8860 N.ar      1 SAH1001     0.0000 
     26 C4         34.6670   -8.8370   48.0500 C.ar      1 SAH1001     0.0000 
     27 H          39.2901   -1.8229   41.6959 H         1 SAH1001     0.0000 
     28 H          37.3657   -2.7206   43.3169 H         1 SAH1001     0.0000 
     29 H          38.7797   -3.1372   44.3002 H         1 SAH1001     0.0000 
     30 H          39.8445   -4.2199   42.2664 H         1 SAH1001     0.0000 
     31 H          38.3891   -3.8500   41.3257 H         1 SAH1001     0.0000 
     32 H          36.0334   -6.2945   43.3128 H         1 SAH1001     0.0000 
     33 H          36.4635   -4.6201   43.7020 H         1 SAH1001     0.0000 
     34 H          37.0111   -5.2127   45.8903 H         1 SAH1001     0.0000 
     35 H          38.7151   -7.2506   44.6923 H         1 SAH1001     0.0000 
     36 H          37.9286   -8.8741   45.9689 H         1 SAH1001     0.0000 
     37 H          36.4388   -6.9137   47.6644 H         1 SAH1001     0.0000 
     38 H          36.3818  -10.2869   45.8359 H         1 SAH1001     0.0000 
     39 H          32.0558  -11.8815   49.7571 H         1 SAH1001     0.0000 
     40 H          32.4150  -12.1006   48.0111 H         1 SAH1001     0.0000 
     41 H          32.8108   -7.4497   50.3529 H         1 SAH1001     0.0000 
     42 H          41.0212   -2.5080   43.1808 H         1 SAH1001     0.0000 
     43 H          41.0442   -0.9034   43.0757 H         1 SAH1001     0.0000 
     44 H          40.4395   -1.6150   44.3850 H         1 SAH1001     0.0000 
     45 H          38.7045   -5.5413   46.9670 H         1 SAH1001     0.0000 
     46 H          38.4119   -7.4450   48.4102 H         1 SAH1001     0.0000 
@<TRIPOS>BOND
     1    2    1 1    
     2   42    1 1    
     3   43    1 1    
     4   44    1 1    
     5    3    2 1    
     6    6    2 1    
     7   27    2 1    
     8    4    3 1    
     9   28    3 1    
    10   29    3 1    
    11    5    4 1    
    12   30    4 1    
    13   31    4 1    
    14    9    5 1    
    15    7    6 ar   
    16    8    6 ar   
    17   10    9 1    
    18   32    9 1    
    19   33    9 1    
    20   11   10 1    
    21   12   10 1    
    22   34   10 1    
    23   16   11 1    
    24   13   12 1    
    25   14   12 1    
    26   35   12 1    
    27   45   13 1    
    28   15   14 1    
    29   16   14 1    
    30   36   14 1    
    31   46   15 1    
    32   17   16 1    
    33   37   16 1    
    34   18   17 1    
    35   26   17 1    
    36   19   18 2    
    37   38   18 1    
    38   20   19 1    
    39   21   20 ar   
    40   26   20 ar   
    41   22   21 1    
    42   23   21 ar   
    43   39   22 1    
    44   40   22 1    
    45   24   23 ar   
    46   25   24 ar   
    47   41   24 1    
    48   26   25 ar   
@<TRIPOS>SUBSTRUCTURE
     1 SAH1001     1 GROUP   
@<TRIPOS>SET

