#    Name: 3hfb_ML4_1_INTS_M
#    Modification time : Tue Mar 25 14:14:37 2014

@<TRIPOS>MOLECULE
3hfb_ML4_1_INTS_M
   69     0    12     0     0
SMALL
NO_CHARGES


@<TRIPOS>ATOM
      1 N          16.4110    7.4135   18.3435 N.am      2 SEC2        0.0000 
      2 N          16.0630    5.9860   19.2230 N.am     10 SEL2        0.0000 
      3 N          16.7590    8.8410   17.4640 N.am      6 SEP2        0.0000 
      4 N          15.8385    6.9390   20.3240 N.am      2 SEC2        0.0000 
      5 N          15.6140    7.8920   21.4250 N.am      6 SEP2        0.0000 
      6 NZ         15.3935    6.8075   16.5615 N.4       3 LYC4        0.0000 
      7 NZ         15.6400    5.4490   17.1480 N.4      11 LYL4        0.0000 
      8 NZ         15.7450    9.1280   16.6560 N.4       7 LYP4        0.0000 
      9 N          15.3935    6.8075   16.5615 N.am      2 SEC2        0.0000 
     10 N          15.6400    5.4490   17.1480 N.am     10 SEL2        0.0000 
     11 N          15.1470    8.1660   15.9750 N.am      6 SEP2        0.0000 
     12 N          15.6920    4.7040   16.1010 N.am      2 SEC2        0.0000 
     13 N          15.7440    3.9590   15.0540 N.am      6 SEP2        0.0000 
     14 CA         16.7125    4.2110   18.7970 C.3       4 GLC5        0.0000 
     15 CA         14.4830    4.2540   18.8360 C.3      12 GLL5        0.0000 
     16 CA         18.9420    4.1680   18.7580 C.3       8 GLP5        0.0000 
     17 O          14.0195    5.1225   20.8795 O.2       1 ALC1        0.0000 
     18 O          14.6730    3.9930   20.2560 O.2       9 ALL1        0.0000 
     19 O          13.3660    6.2520   21.5030 O.2       5 ALP1        0.0000 
     20 CA         13.3940    6.7345   18.9595 C.3       4 GLC5        0.0000 
     21 CA         13.0670    4.7470   18.5610 C.3      12 GLL5        0.0000 
     22 CA         13.7210    8.7220   19.3580 C.3       8 GLP5        0.0000 
     23 CA         13.4250    1.4505   17.3220 C.3       4 GLC5        0.0000 
     24 CA         11.8420    2.6290   17.9430 C.3      12 GLL5        0.0000 
     25 CA         15.0080    0.2720   16.7010 C.3       8 GLP5        0.0000 
     26 CA         11.0415   -0.3750   17.6835 C.3       4 GLC5        0.0000 
     27 CA         10.8710    1.6600   18.2030 C.3      12 GLL5        0.0000 
     28 CA         11.2120   -2.4100   17.1640 C.3       8 GLP5        0.0000 
     29 CA         10.1735    5.4425   20.4640 C.3       4 GLC5        0.0000 
     30 CA         11.2330    3.7700   19.9810 C.3      12 GLL5        0.0000 
     31 CA          9.1140    7.1150   20.9470 C.3       8 GLP5        0.0000 
     32 CA          9.4480    4.6790   19.3935 C.3       4 GLC5        0.0000 
     33 CA          7.6630    5.5880   18.8060 C.3       8 GLP5        0.0000 
     34 CA          9.5610   -1.8315   18.0845 C.3       4 GLC5        0.0000 
     35 CA          7.9100   -1.2530   19.0050 C.3      12 GLL5        0.0000 
     36 CA          8.3510    0.8375   22.6615 C.3       4 GLC5        0.0000 
     37 CA          8.2840    0.7780   20.7890 C.3      12 GLL5        0.0000 
     38 CA          8.4180    0.8970   24.5340 C.3       8 GLP5        0.0000 
     39 CA          7.5840   -3.3660   21.2485 C.3       4 GLC5        0.0000 
     40 CA          5.8650   -2.4200   21.8260 C.3      12 GLL5        0.0000 
     41 CA          9.3030   -4.3120   20.6710 C.3       8 GLP5        0.0000 
     42 CA          5.9895   -8.0300   21.2665 C.3       4 GLC5        0.0000 
     43 CA          5.1990   -6.1710   21.7430 C.3      12 GLL5        0.0000 
     44 CA          6.7800   -9.8890   20.7900 C.3       8 GLP5        0.0000 
     45 CA          0.4220   -2.0920   21.1015 C.3       4 GLC5        0.0000 
     46 CA          1.5760   -0.7780   22.0300 C.3      12 GLL5        0.0000 
     47 CA         -0.7320   -3.4060   20.1730 C.3       8 GLP5        0.0000 
     48 CA         12.3023    4.0545   16.5292 C.3       4 GLC5        0.0000 
     49 CA         12.0220    3.6870   18.8300 C.3      12 GLL5        0.0000 
     50 CA         12.0600    3.8920   14.3630 C.3       8 GLP5        0.0000 
     51 CA         10.7701    4.8615   17.7676 C.3       4 GLC5        0.0000 
     52 CA          9.3470    6.3000   17.2160 C.3       8 GLP5        0.0000 
     53 CA         11.1017    2.7153   16.2185 C.3       4 GLC5        0.0000 
     54 CA         10.8470    3.2860   14.3640 C.3       8 GLP5        0.0000 
     55 CA          9.0457    3.4209   18.6040 C.3       4 GLC5        0.0000 
     56 CA          7.7250    4.5860   17.7010 C.3       8 GLP5        0.0000 
     57 CA          1.9641   -4.9355   21.2849 C.3       4 GLC5        0.0000 
     58 CA          3.8690   -6.2550   22.1600 C.3      12 GLL5        0.0000 
     59 CA          0.2750   -4.5020   20.2760 C.3       8 GLP5        0.0000 
     60 CA          3.7100   -6.8990   20.5105 C.3       4 GLC5        0.0000 
     61 CA          3.1370   -5.1110   22.4740 C.3      12 GLL5        0.0000 
     62 CA          3.0690   -7.8710   18.9910 C.3       8 GLP5        0.0000 
     63 CA          7.3635   -6.1338   20.7937 C.3       4 GLC5        0.0000 
     64 CA          9.2050   -6.7120   19.8980 C.3       8 GLP5        0.0000 
     65 CA          6.8315   -6.2658   22.5553 C.3       4 GLC5        0.0000 
     66 CA          5.8450   -4.9400   21.6360 C.3      12 GLL5        0.0000 
     67 CA          8.1410   -6.9760   23.4210 C.3       8 GLP5        0.0000 
     68 CA          1.4540   -3.3902   21.2482 C.3       4 GLC5        0.0000 
     69 CA          2.9570   -2.6340   22.7240 C.3      12 GLL5        0.0000 
@<TRIPOS>BOND
@<TRIPOS>SUBSTRUCTURE
     1 ALC1       17 GROUP        1 X    ALC  0     ROOT ALC X 1
     2 SEC2        1 GROUP        1 X    SEC  0     **** SEC X 2
     3 LYC4        6 GROUP        1 X    LYC  0     **** LYC X 4
     4 GLC5       14 GROUP        1 X    GLC  0     **** GLC X 6
     5 ALP1       19 GROUP        1 Y    ALP  0     ROOT ALP Y 8
     6 SEP2        3 GROUP        1 Y    SEP  0     **** SEP Y 9
     7 LYP4        8 GROUP        1 Y    LYP  0     **** LYP Y 11
     8 GLP5       16 GROUP        1 Y    GLP  0     **** GLP Y 13
     9 ALL1       18 GROUP        1 Z    ALL  0     ROOT ALL Z 15
    10 SEL2        2 GROUP        1 Z    SEL  0     **** SEL Z 16
    11 LYL4        7 GROUP        1 Z    LYL  0     **** LYL Z 18
    12 GLL5       15 GROUP        1 Z    GLL  0     **** GLL Z 20
@<TRIPOS>SET

