#    Name: 3hfb_ML4_1_ligand
#    Modification time : Tue Mar 25 14:14:37 2014

@<TRIPOS>MOLECULE
3hfb_ML4_1_ligand
   59    62     1     0     0
SMALL
NO_CHARGES


@<TRIPOS>ATOM
      1 O3         16.0630    5.9860   19.2230 O.co2     1 ML4401      0.0000 
      2 C2         15.4590    5.2980   18.3710 C.2       1 ML4401      0.0000 
      3 O1         15.6400    5.4490   17.1480 O.co2     1 ML4401      0.0000 
      4 C4         14.4830    4.2540   18.8360 C.3       1 ML4401      0.0000 
      5 N5         14.6730    3.9930   20.2560 N.4       1 ML4401      0.0000 
      6 C6         13.0670    4.7470   18.5610 C.3       1 ML4401      0.0000 
      7 C7         12.0220    3.6870   18.8300 C.ar      1 ML4401      0.0000 
      8 C12        11.8420    2.6290   17.9430 C.ar      1 ML4401      0.0000 
      9 C11        10.8710    1.6600   18.2030 C.ar      1 ML4401      0.0000 
     10 C10        10.0710    1.7510   19.3470 C.ar      1 ML4401      0.0000 
     11 C9         10.2620    2.8060   20.2390 C.ar      1 ML4401      0.0000 
     12 C8         11.2330    3.7700   19.9810 C.ar      1 ML4401      0.0000 
     13 C13         9.0410    0.7130   19.6260 C.ar      1 ML4401      0.0000 
     14 N18         8.8310   -0.3130   18.7630 N.ar      1 ML4401      0.0000 
     15 C17         7.9100   -1.2530   19.0050 C.ar      1 ML4401      0.0000 
     16 C16         7.1540   -1.1840   20.1670 C.ar      1 ML4401      0.0000 
     17 N15         7.3640   -0.1650   21.0310 N.ar      1 ML4401      0.0000 
     18 C14         8.2840    0.7780   20.7890 C.ar      1 ML4401      0.0000 
     19 N19         6.2210   -2.1260   20.4420 N.pl3     1 ML4401      0.0000 
     20 C20         5.8650   -2.4200   21.8260 C.3       1 ML4401      0.0000 
     21 C21         5.1650   -3.7610   21.9390 C.ar      1 ML4401      0.0000 
     22 C26         3.7380   -3.8550   22.3810 C.ar      1 ML4401      0.0000 
     23 C25         3.1370   -5.1110   22.4740 C.ar      1 ML4401      0.0000 
     24 C24         3.8690   -6.2550   22.1600 C.ar      1 ML4401      0.0000 
     25 C23         5.1990   -6.1710   21.7430 C.ar      1 ML4401      0.0000 
     26 C22         5.8450   -4.9400   21.6360 C.ar      1 ML4401      0.0000 
     27 C27         2.9570   -2.6340   22.7240 C.ar      1 ML4401      0.0000 
     28 C32         2.3090   -1.9230   21.7170 C.ar      1 ML4401      0.0000 
     29 C31         1.5760   -0.7780   22.0300 C.ar      1 ML4401      0.0000 
     30 C30         1.4790   -0.3290   23.3470 C.ar      1 ML4401      0.0000 
     31 C29         2.1110   -1.0070   24.3920 C.ar      1 ML4401      0.0000 
     32 C28         2.8560   -2.1560   24.1350 C.ar      1 ML4401      0.0000 
     33 C33         3.5380   -2.8860   25.2730 C.3       1 ML4401      0.0000 
     34 H          14.6425    3.3540   18.2598 H         1 ML4401      0.0000 
     35 H          12.9990    5.0682   17.5132 H         1 ML4401      0.0000 
     36 H          12.8668    5.6242   19.1905 H         1 ML4401      0.0000 
     37 H          12.4215    2.5599   17.0986 H         1 ML4401      0.0000 
     38 H          10.7423    0.8752   17.5512 H         1 ML4401      0.0000 
     39 H           9.6852    2.8710   21.0870 H         1 ML4401      0.0000 
     40 H          11.3724    4.5485   20.6395 H         1 ML4401      0.0000 
     41 H           7.7457   -2.0329   18.3466 H         1 ML4401      0.0000 
     42 H           8.4466    1.5574   21.4486 H         1 ML4401      0.0000 
     43 H           5.7385   -2.6578   19.7113 H         1 ML4401      0.0000 
     44 H           5.1967   -1.6453   22.2282 H         1 ML4401      0.0000 
     45 H           6.7618   -2.4427   22.4614 H         1 ML4401      0.0000 
     46 H           2.1591   -5.1915   22.7727 H         1 ML4401      0.0000 
     47 H           3.4194   -7.1843   22.2370 H         1 ML4401      0.0000 
     48 H           5.7134   -7.0380   21.5095 H         1 ML4401      0.0000 
     49 H           6.8272   -4.9015   21.3323 H         1 ML4401      0.0000 
     50 H           2.3702   -2.2413   20.7417 H         1 ML4401      0.0000 
     51 H           1.0992   -0.2563   21.2770 H         1 ML4401      0.0000 
     52 H           0.9284    0.5228   23.5549 H         1 ML4401      0.0000 
     53 H           2.0251   -0.6552   25.3549 H         1 ML4401      0.0000 
     54 H          14.0333    3.3036   20.5958 H         1 ML4401      0.0000 
     55 H          15.5951    3.6593   20.4522 H         1 ML4401      0.0000 
     56 H          14.5360    4.8165   20.8065 H         1 ML4401      0.0000 
     57 H           4.5292   -2.9271   25.1469 H         1 ML4401      0.0000 
     58 H           3.3727   -2.4398   26.1525 H         1 ML4401      0.0000 
     59 H           3.2139   -3.8283   25.3569 H         1 ML4401      0.0000 
@<TRIPOS>BOND
     1    2    1 ar   
     2    3    2 ar   
     3    4    2 1    
     4    5    4 1    
     5    6    4 1    
     6   34    4 1    
     7   54    5 1    
     8   55    5 1    
     9   56    5 1    
    10    7    6 1    
    11   35    6 1    
    12   36    6 1    
    13    8    7 ar   
    14   12    7 ar   
    15    9    8 ar   
    16   37    8 1    
    17   10    9 ar   
    18   38    9 1    
    19   11   10 ar   
    20   13   10 1    
    21   12   11 ar   
    22   39   11 1    
    23   40   12 1    
    24   14   13 ar   
    25   18   13 ar   
    26   15   14 ar   
    27   16   15 ar   
    28   41   15 1    
    29   17   16 ar   
    30   19   16 1    
    31   18   17 ar   
    32   42   18 1    
    33   20   19 1    
    34   43   19 1    
    35   21   20 1    
    36   44   20 1    
    37   45   20 1    
    38   22   21 ar   
    39   26   21 ar   
    40   23   22 ar   
    41   27   22 1    
    42   24   23 ar   
    43   46   23 1    
    44   25   24 ar   
    45   47   24 1    
    46   26   25 ar   
    47   48   25 1    
    48   49   26 1    
    49   28   27 ar   
    50   32   27 ar   
    51   29   28 ar   
    52   50   28 1    
    53   30   29 ar   
    54   51   29 1    
    55   31   30 ar   
    56   52   30 1    
    57   32   31 ar   
    58   53   31 1    
    59   33   32 1    
    60   57   33 1    
    61   58   33 1    
    62   59   33 1    
@<TRIPOS>SUBSTRUCTURE
     1 ML4401      1 GROUP   
@<TRIPOS>SET

