#    Name: 1zfj_IMP_1_INTS_M
#    Modification time : Mon Apr  7 16:59:28 2014

@<TRIPOS>MOLECULE
1zfj_IMP_1_INTS_M
   47     0     9     0     0
SMALL
NO_CHARGES


@<TRIPOS>ATOM
      1 N          95.3980   67.0360   16.1060 N.am      2 SEC2        0.0000 
      2 N          96.5670   66.9580   16.7640 N.am      8 SEL2        0.0000 
      3 N          94.2290   67.1140   15.4480 N.am      5 SEP2        0.0000 
      4 N          97.6600   67.8010   16.0455 N.am      2 SEC2        0.0000 
      5 N          98.7530   68.6440   15.3270 N.am      5 SEP2        0.0000 
      6 N          99.2545   68.5755   17.8380 N.am      2 SEC2        0.0000 
      7 N          97.8310   68.6430   18.1070 N.am      8 SEL2        0.0000 
      8 N         100.6780   68.5080   17.5690 N.am      5 SEP2        0.0000 
      9 N          98.2920   68.6435   16.7170 N.am      2 SEC2        0.0000 
     10 N          94.3110   67.1150   18.4380 N.am      2 SEC2        0.0000 
     11 N          95.6300   67.8480   18.9260 N.am      8 SEL2        0.0000 
     12 N          92.9920   66.3820   17.9500 N.am      5 SEP2        0.0000 
     13 N          95.1835   68.3005   20.3675 N.am      2 SEC2        0.0000 
     14 N          94.7370   68.7530   21.8090 N.am      5 SEP2        0.0000 
     15 CA        100.8830   64.2730   19.0395 C.3       3 GLC5        0.0000 
     16 CA         99.1280   63.6150   19.8960 C.3       9 GLL5        0.0000 
     17 CA        102.6380   64.9310   18.1830 C.3       6 GLP5        0.0000 
     18 CA         99.5625   63.4470   17.9925 C.3       3 GLC5        0.0000 
     19 CA         99.9970   63.2790   16.0890 C.3       6 GLP5        0.0000 
     20 O         100.0970   64.6435   21.7535 O.2       1 ALC1        0.0000 
     21 O         100.2830   64.1650   20.5660 O.2       7 ALL1        0.0000 
     22 O          99.9110   65.1220   22.9410 O.2       4 ALP1        0.0000 
     23 O          99.6850   63.5420   22.3590 O.2       1 ALC1        0.0000 
     24 O          99.4590   61.9620   21.7770 O.2       7 ALL1        0.0000 
     25 N          97.3280   58.9425   16.2495 N.am      2 SEC2        0.0000 
     26 N          96.9600   59.8110   17.1950 N.am      8 SEL2        0.0000 
     27 N          97.6960   58.0740   15.3040 N.am      5 SEP2        0.0000 
     28 CA         95.9825   59.5535   16.2290 C.3       3 GLC5        0.0000 
     29 CA         95.9030   59.4890   18.0920 C.3       9 GLL5        0.0000 
     30 CA         96.0620   59.6180   14.3660 C.3       6 GLP5        0.0000 
     31 N          95.4000   56.9110   16.4505 N.am      2 SEC2        0.0000 
     32 N          94.5200   57.8680   16.8520 N.am      8 SEL2        0.0000 
     33 N          96.2800   55.9540   16.0490 N.am      5 SEP2        0.0000 
     34 O          92.4820   58.0010   18.7015 O.2       1 ALC1        0.0000 
     35 O          93.9590   58.5210   18.9940 O.2       7 ALL1        0.0000 
     36 O          91.0050   57.4810   18.4090 O.2       4 ALP1        0.0000 
     37 CA         93.9690   61.0115   19.4230 C.3       3 GLC5        0.0000 
     38 CA         96.0160   60.1500   19.2590 C.3       9 GLL5        0.0000 
     39 CA         91.9220   61.8730   19.5870 C.3       6 GLP5        0.0000 
     40 CA         95.3808   64.8965   19.9203 C.3       3 GLC5        0.0000 
     41 CA         97.7250   64.1880   20.3140 C.3       9 GLL5        0.0000 
     42 CA         93.4460   65.1480   19.9940 C.3       6 GLP5        0.0000 
     43 CA         97.0058   66.1070   21.2058 C.3       3 GLC5        0.0000 
     44 CA         96.9060   65.1020   19.3790 C.3       9 GLL5        0.0000 
     45 CA         96.6960   67.5690   22.5650 C.3       6 GLP5        0.0000 
     46 CA         95.4583   61.0092   17.4333 C.3       3 GLC5        0.0000 
     47 CA         94.9570   62.1990   16.1910 C.3       6 GLP5        0.0000 
@<TRIPOS>BOND
@<TRIPOS>SUBSTRUCTURE
     1 ALC1       20 GROUP        1 X    ALC  0     ROOT ALC X 1
     2 SEC2        1 GROUP        1 X    SEC  0     **** SEC X 2
     3 GLC5       15 GROUP        1 X    GLC  0     **** GLC X 6
     4 ALP1       22 GROUP        1 Y    ALP  0     ROOT ALP Y 8
     5 SEP2        3 GROUP        1 Y    SEP  0     **** SEP Y 9
     6 GLP5       17 GROUP        1 Y    GLP  0     **** GLP Y 13
     7 ALL1       21 GROUP        1 Z    ALL  0     ROOT ALL Z 15
     8 SEL2        2 GROUP        1 Z    SEL  0     **** SEL Z 16
     9 GLL5       16 GROUP        1 Z    GLL  0     **** GLL Z 20
@<TRIPOS>SET

