#    Name: 1zfj_IMP_1_ligand
#    Modification time : Mon Apr  7 16:59:28 2014

@<TRIPOS>MOLECULE
1zfj_IMP_1_ligand
   34    36     1     0     0
SMALL
NO_CHARGES


@<TRIPOS>ATOM
      1 P          96.8550   67.4840   18.1450 P.3       1 IMP500      0.0000 
      2 O1P        96.5670   66.9580   16.7640 O.co2     1 IMP500      0.0000 
      3 O2P        97.8310   68.6430   18.1070 O.co2     1 IMP500      0.0000 
      4 O3P        95.6300   67.8480   18.9260 O.co2     1 IMP500      0.0000 
      5 O5'        97.5760   66.3480   19.0980 O.3       1 IMP500      0.0000 
      6 C5'        96.9060   65.1020   19.3790 C.3       1 IMP500      0.0000 
      7 C4'        97.7250   64.1880   20.3140 C.3       1 IMP500      0.0000 
      8 O4'        96.8490   63.0560   20.5100 O.3       1 IMP500      0.0000 
      9 C3'        99.1280   63.6150   19.8960 C.3       1 IMP500      0.0000 
     10 O3'       100.2830   64.1650   20.5660 O.3       1 IMP500      0.0000 
     11 C2'        99.0630   62.1380   20.4010 C.3       1 IMP500      0.0000 
     12 O2'        99.4590   61.9620   21.7770 O.3       1 IMP500      0.0000 
     13 C1'        97.5680   61.8200   20.3910 C.3       1 IMP500      0.0000 
     14 N9         97.1720   60.9520   19.1870 N.pl3     1 IMP500      0.0000 
     15 C8         97.7690   60.7620   17.9340 C.2       1 IMP500      0.0000 
     16 N7         96.9600   59.8110   17.1950 N.2       1 IMP500      0.0000 
     17 C5         95.9030   59.4890   18.0920 C.2       1 IMP500      0.0000 
     18 C6         94.7740   58.5480   17.8510 C.2       1 IMP500      0.0000 
     19 O6         94.5200   57.8680   16.8520 O.2       1 IMP500      0.0000 
     20 N1         93.9590   58.5210   18.9940 N.am      1 IMP500      0.0000 
     21 C2         94.1550   59.2560   20.1900 C.2       1 IMP500      0.0000 
     22 N3         95.1820   60.0670   20.3130 N.2       1 IMP500      0.0000 
     23 C4         96.0160   60.1500   19.2590 C.2       1 IMP500      0.0000 
     24 H          96.7093   64.5336   18.4525 H         1 IMP500      0.0000 
     25 H          95.9264   65.2721   19.8602 H         1 IMP500      0.0000 
     26 H          97.8283   64.6880   21.2794 H         1 IMP500      0.0000 
     27 H          99.1995   63.5751   18.8564 H         1 IMP500      0.0000 
     28 H          99.5385   61.5094   19.7281 H         1 IMP500      0.0000 
     29 H          97.3884   61.2075   21.3063 H         1 IMP500      0.0000 
     30 H          98.5457   61.1609   17.6068 H         1 IMP500      0.0000 
     31 H          93.1017   57.8823   18.9642 H         1 IMP500      0.0000 
     32 H          93.4558   59.1208   20.9489 H         1 IMP500      0.0000 
     33 H          99.9154   64.8504   21.1946 H         1 IMP500      0.0000 
     34 H         100.0275   62.7577   21.9864 H         1 IMP500      0.0000 
@<TRIPOS>BOND
     1    2    1 ar   
     2    3    1 ar   
     3    4    1 ar   
     4    5    1 1    
     5    6    5 1    
     6    7    6 1    
     7   24    6 1    
     8   25    6 1    
     9    8    7 1    
    10    9    7 1    
    11   26    7 1    
    12   13    8 1    
    13   10    9 1    
    14   11    9 1    
    15   27    9 1    
    16   33   10 1    
    17   12   11 1    
    18   13   11 1    
    19   28   11 1    
    20   34   12 1    
    21   14   13 1    
    22   29   13 1    
    23   15   14 1    
    24   23   14 1    
    25   16   15 2    
    26   30   15 1    
    27   17   16 1    
    28   18   17 1    
    29   23   17 2    
    30   19   18 2    
    31   20   18 am   
    32   21   20 1    
    33   31   20 1    
    34   22   21 2    
    35   32   21 1    
    36   23   22 1    
@<TRIPOS>SUBSTRUCTURE
     1 IMP500      1 GROUP   
@<TRIPOS>SET

