#    Name: 3mx2_TTP_2_INTS_M
#    Modification time : Tue Mar 25 00:09:14 2014

@<TRIPOS>MOLECULE
3mx2_TTP_2_INTS_M
   56     0    12     0     0
SMALL
NO_CHARGES


@<TRIPOS>ATOM
      1 NZ        -17.8075  -28.3860  -13.5680 N.4       3 LYC4        0.0000 
      2 NZ        -16.2120  -28.5610  -14.5830 N.4      11 LYL4        0.0000 
      3 NZ        -19.4030  -28.2110  -12.5530 N.4       7 LYP4        0.0000 
      4 NZ        -16.0250  -29.8590  -13.7680 N.4       3 LYC4        0.0000 
      5 NZ        -15.8380  -31.1570  -12.9530 N.4       7 LYP4        0.0000 
      6 NZ        -16.3365  -27.3640  -13.7035 N.4       3 LYC4        0.0000 
      7 NZ        -15.3160  -26.3750  -12.1870 N.4       7 LYP4        0.0000 
      8 N         -16.0250  -29.8590  -13.7680 N.am      2 SEC2        0.0000 
      9 N         -16.2120  -28.5610  -14.5830 N.am     10 SEL2        0.0000 
     10 N         -15.8380  -31.1570  -12.9530 N.am      6 SEP2        0.0000 
     11 N         -15.4320  -28.0365  -13.4915 N.am      2 SEC2        0.0000 
     12 N         -14.6520  -27.5120  -12.4000 N.am      6 SEP2        0.0000 
     13 N         -16.3365  -27.3640  -13.7035 N.am      2 SEC2        0.0000 
     14 N         -16.4610  -26.1670  -12.8240 N.am      6 SEP2        0.0000 
     15 NZ        -18.8895  -28.0615  -14.1060 N.4       3 LYC4        0.0000 
     16 NZ        -18.3760  -27.9120  -15.6590 N.4      11 LYL4        0.0000 
     17 N         -18.5715  -26.4500  -15.5770 N.am      2 SEC2        0.0000 
     18 N         -18.3760  -27.9120  -15.6590 N.am     10 SEL2        0.0000 
     19 N         -18.7670  -24.9880  -15.4950 N.am      6 SEP2        0.0000 
     20 N         -19.7280  -27.3250  -15.1790 N.am      2 SEC2        0.0000 
     21 N         -21.0800  -26.7380  -14.6990 N.am      6 SEP2        0.0000 
     22 NZ        -16.8850  -31.7905  -14.2605 N.4       3 LYC4        0.0000 
     23 NZ        -17.9320  -32.4240  -15.5680 N.4      11 LYL4        0.0000 
     24 NZ        -18.9275  -29.4090  -13.2550 N.4       3 LYC4        0.0000 
     25 NZ        -18.4520  -30.6070  -13.9570 N.4      11 LYL4        0.0000 
     26 NZ        -17.1450  -30.8820  -13.4550 N.4       3 LYC4        0.0000 
     27 N         -18.9275  -29.4090  -13.2550 N.am      2 SEC2        0.0000 
     28 N         -18.4520  -30.6070  -13.9570 N.am     10 SEL2        0.0000 
     29 N         -19.4030  -28.2110  -12.5530 N.am      6 SEP2        0.0000 
     30 N         -17.1450  -30.8820  -13.4550 N.am      2 SEC2        0.0000 
     31 O         -11.1635  -29.9975  -20.8530 O.2       1 ALC1        0.0000 
     32 O         -12.4180  -30.3650  -21.3450 O.2       9 ALL1        0.0000 
     33 O          -9.9090  -29.6300  -20.3610 O.2       5 ALP1        0.0000 
     34 N         -12.7055  -23.0295  -26.7665 N.am      2 SEC2        0.0000 
     35 N         -13.6260  -23.7230  -26.2230 N.am     10 SEL2        0.0000 
     36 N         -11.7850  -22.3360  -27.3100 N.am      6 SEP2        0.0000 
     37 CA        -12.6980  -23.4945  -24.1270 C.3       4 GLC5        0.0000 
     38 CA        -12.7790  -25.2340  -24.7010 C.3      12 GLL5        0.0000 
     39 CA        -12.6170  -21.7550  -23.5530 C.3       8 GLP5        0.0000 
     40 CA        -11.0245  -23.7330  -26.4215 C.3       4 GLC5        0.0000 
     41 CA        -11.3300  -24.7180  -24.7840 C.3      12 GLL5        0.0000 
     42 CA        -10.7190  -22.7480  -28.0590 C.3       8 GLP5        0.0000 
     43 CA        -10.2335  -22.8100  -24.9195 C.3       4 GLC5        0.0000 
     44 CA         -9.1370  -20.9020  -25.0550 C.3       8 GLP5        0.0000 
     45 CA        -11.6050  -23.5160  -23.6325 C.3       4 GLC5        0.0000 
     46 CA        -11.8800  -22.3140  -22.4810 C.3       8 GLP5        0.0000 
     47 CA        -13.4985  -24.7665  -22.6990 C.3       4 GLC5        0.0000 
     48 CA        -13.0620  -26.2970  -23.8480 C.3      12 GLL5        0.0000 
     49 CA        -13.9350  -23.2360  -21.5500 C.3       8 GLP5        0.0000 
     50 CA        -11.2733  -29.3880  -22.4958 C.3       4 GLC5        0.0000 
     51 CA        -13.5620  -28.9910  -23.0740 C.3      12 GLL5        0.0000 
     52 CA         -9.3030  -29.7490  -22.6190 C.3       8 GLP5        0.0000 
     53 CA        -15.5945  -29.7272  -23.3930 C.3       4 GLC5        0.0000 
     54 CA        -17.0560  -30.9880  -23.8110 C.3       8 GLP5        0.0000 
     55 CA        -11.8016  -26.6487  -25.4361 C.3       4 GLC5        0.0000 
     56 CA        -11.0450  -27.6610  -26.5770 C.3       8 GLP5        0.0000 
@<TRIPOS>BOND
@<TRIPOS>SUBSTRUCTURE
     1 ALC1       31 GROUP        1 X    ALC  0     ROOT ALC X 1
     2 SEC2        8 GROUP        1 X    SEC  0     **** SEC X 2
     3 LYC4        1 GROUP        1 X    LYC  0     **** LYC X 4
     4 GLC5       37 GROUP        1 X    GLC  0     **** GLC X 6
     5 ALP1       33 GROUP        1 Y    ALP  0     ROOT ALP Y 8
     6 SEP2       10 GROUP        1 Y    SEP  0     **** SEP Y 9
     7 LYP4        3 GROUP        1 Y    LYP  0     **** LYP Y 11
     8 GLP5       39 GROUP        1 Y    GLP  0     **** GLP Y 13
     9 ALL1       32 GROUP        1 Z    ALL  0     ROOT ALL Z 15
    10 SEL2        9 GROUP        1 Z    SEL  0     **** SEL Z 16
    11 LYL4        2 GROUP        1 Z    LYL  0     **** LYL Z 18
    12 GLL5       38 GROUP        1 Z    GLL  0     **** GLL Z 20
@<TRIPOS>SET

