#    Name: 3mx2_TTP_2_ligand
#    Modification time : Tue Mar 25 00:09:14 2014

@<TRIPOS>MOLECULE
3mx2_TTP_2_ligand
   42    43     1     0     0
SMALL
NO_CHARGES


@<TRIPOS>ATOM
      1 PA        -14.5380  -28.1300  -16.8740 P.3       1 TTP800      0.0000 
      2 O1A       -13.7290  -26.9000  -16.9910 O.co2     1 TTP800      0.0000 
      3 O2A       -13.9190  -29.4930  -16.8420 O.co2     1 TTP800      0.0000 
      4 O3A       -16.2320  -28.0270  -17.0200 O.3       1 TTP800      0.0000 
      5 PB        -17.0730  -28.5910  -15.7280 P.3       1 TTP800      0.0000 
      6 O1B       -16.2120  -28.5610  -14.5830 O.co2     1 TTP800      0.0000 
      7 O2B       -18.3760  -27.9120  -15.6590 O.co2     1 TTP800      0.0000 
      8 O3B       -17.3130  -30.0760  -16.1850 O.3       1 TTP800      0.0000 
      9 PG        -18.3520  -31.0090  -15.5230 P.3       1 TTP800      0.0000 
     10 O1G       -17.9320  -32.4240  -15.5680 O.co2     1 TTP800      0.0000 
     11 O2G       -18.4520  -30.6070  -13.9570 O.co2     1 TTP800      0.0000 
     12 O3G       -19.7710  -30.6820  -16.2160 O.co2     1 TTP800      0.0000 
     13 O5'       -14.7040  -28.2060  -18.4700 O.3       1 TTP800      0.0000 
     14 C5'       -13.6270  -28.4980  -19.3640 C.3       1 TTP800      0.0000 
     15 C4'       -14.1300  -28.7490  -20.8100 C.3       1 TTP800      0.0000 
     16 O4'       -14.6760  -27.6050  -21.4610 O.3       1 TTP800      0.0000 
     17 C3'       -12.9250  -29.0630  -21.6710 C.3       1 TTP800      0.0000 
     18 O3'       -12.4180  -30.3650  -21.3450 O.3       1 TTP800      0.0000 
     19 C2'       -13.5620  -28.9910  -23.0740 C.3       1 TTP800      0.0000 
     20 C1'       -14.7040  -27.9420  -22.8760 C.3       1 TTP800      0.0000 
     21 N1        -14.3910  -26.7900  -23.7620 N.am      1 TTP800      0.0000 
     22 C2        -15.4120  -26.1930  -24.5500 C.2       1 TTP800      0.0000 
     23 O2        -16.5850  -26.5680  -24.5230 O.2       1 TTP800      0.0000 
     24 N3        -15.1140  -25.1370  -25.3780 N.am      1 TTP800      0.0000 
     25 C4        -13.8100  -24.6620  -25.4620 C.2       1 TTP800      0.0000 
     26 O4        -13.6260  -23.7230  -26.2230 O.2       1 TTP800      0.0000 
     27 C5        -12.7790  -25.2340  -24.7010 C.2       1 TTP800      0.0000 
     28 C5M       -11.3300  -24.7180  -24.7840 C.3       1 TTP800      0.0000 
     29 C6        -13.0620  -26.2970  -23.8480 C.2       1 TTP800      0.0000 
     30 H         -13.0701  -29.3979  -19.0556 H         1 TTP800      0.0000 
     31 H         -12.8998  -27.6710  -19.4146 H         1 TTP800      0.0000 
     32 H         -14.7741  -29.5827  -20.8323 H         1 TTP800      0.0000 
     33 H         -12.2365  -28.2793  -21.5782 H         1 TTP800      0.0000 
     34 H         -13.9853  -29.9186  -23.3249 H         1 TTP800      0.0000 
     35 H         -12.8664  -28.6173  -23.7661 H         1 TTP800      0.0000 
     36 H         -15.6067  -28.4138  -23.1564 H         1 TTP800      0.0000 
     37 H         -15.8548  -24.6910  -25.9414 H         1 TTP800      0.0000 
     38 H         -12.3294  -26.7270  -23.2840 H         1 TTP800      0.0000 
     39 H         -10.7190  -25.2276  -24.1782 H         1 TTP800      0.0000 
     40 H         -10.9595  -24.7986  -25.7093 H         1 TTP800      0.0000 
     41 H         -11.2634  -23.7546  -24.5245 H         1 TTP800      0.0000 
     42 H         -11.5049  -30.2010  -20.9717 H         1 TTP800      0.0000 
@<TRIPOS>BOND
     1    2    1 ar   
     2    3    1 ar   
     3    4    1 1    
     4   13    1 1    
     5    5    4 1    
     6    6    5 ar   
     7    7    5 ar   
     8    8    5 1    
     9    9    8 1    
    10   10    9 ar   
    11   11    9 ar   
    12   12    9 ar   
    13   14   13 1    
    14   15   14 1    
    15   30   14 1    
    16   31   14 1    
    17   16   15 1    
    18   17   15 1    
    19   32   15 1    
    20   20   16 1    
    21   18   17 1    
    22   19   17 1    
    23   33   17 1    
    24   42   18 1    
    25   20   19 1    
    26   34   19 1    
    27   35   19 1    
    28   21   20 1    
    29   36   20 1    
    30   22   21 1    
    31   29   21 1    
    32   23   22 2    
    33   24   22 1    
    34   25   24 1    
    35   37   24 1    
    36   26   25 2    
    37   27   25 1    
    38   28   27 1    
    39   29   27 2    
    40   39   28 1    
    41   40   28 1    
    42   41   28 1    
    43   38   29 1    
@<TRIPOS>SUBSTRUCTURE
     1 TTP800      1 GROUP   
@<TRIPOS>SET

