#    Name: 2ykj_YKJ_1_INTS_M
#    Modification time : Mon Apr  7 18:23:52 2014

@<TRIPOS>MOLECULE
2ykj_YKJ_1_INTS_M
   74     0     9     0     0
SMALL
NO_CHARGES


@<TRIPOS>ATOM
      1 CA         11.0695   14.9015   30.2360 C.3       3 GLC5        0.0000 
      2 CA         11.5990   14.7380   28.1430 C.3       9 GLL5        0.0000 
      3 CA         10.5400   15.0650   32.3290 C.3       6 GLP5        0.0000 
      4 O           9.0830   14.8480   28.6870 O.2       1 ALC1        0.0000 
      5 O           9.1460   14.6310   27.3570 O.2       7 ALL1        0.0000 
      6 O           9.0200   15.0650   30.0170 O.2       4 ALP1        0.0000 
      7 CA         12.9400   14.4115   23.2810 C.3       3 GLC5        0.0000 
      8 CA         12.1340   14.3720   25.3770 C.3       9 GLL5        0.0000 
      9 CA         13.7460   14.4510   21.1850 C.3       6 GLP5        0.0000 
     10 N           9.8020   14.9345   24.0330 N.am      2 SEC2        0.0000 
     11 N           9.6160   14.3480   25.2220 N.am      8 SEL2        0.0000 
     12 N           9.9880   15.5210   22.8440 N.am      5 SEP2        0.0000 
     13 CA          9.3270   12.7950   27.5215 C.3       3 GLC5        0.0000 
     14 CA         10.5250   14.6120   27.2460 C.3       9 GLL5        0.0000 
     15 CA          8.1290   10.9780   27.7970 C.3       6 GLP5        0.0000 
     16 CA          7.6910   12.7220   26.8410 C.3       3 GLC5        0.0000 
     17 CA          7.2530   14.4660   25.8850 C.3       9 GLL5        0.0000 
     18 CA          5.0860   17.5725   27.3400 C.3       3 GLC5        0.0000 
     19 CA          5.0990   15.7030   26.2880 C.3       9 GLL5        0.0000 
     20 CA          5.0730   19.4420   28.3920 C.3       6 GLP5        0.0000 
     21 CA         -1.1165   13.3655   25.2285 C.3       3 GLC5        0.0000 
     22 CA         -0.4190   11.6970   24.2800 C.3       9 GLL5        0.0000 
     23 CA         -1.8140   15.0340   26.1770 C.3       6 GLP5        0.0000 
     24 CA         -2.4145    9.5805   25.6155 C.3       3 GLC5        0.0000 
     25 CA         -1.5390   11.2950   25.0410 C.3       9 GLL5        0.0000 
     26 CA         -3.2900    7.8660   26.1900 C.3       6 GLP5        0.0000 
     27 CA         -2.2265   12.7580   25.9560 C.3       3 GLC5        0.0000 
     28 CA         -2.9140   14.2210   26.8710 C.3       6 GLP5        0.0000 
     29 CA          4.6250   13.3250   22.5450 C.3       3 GLC5        0.0000 
     30 CA          4.5710   12.6170   24.1690 C.3       9 GLL5        0.0000 
     31 CA          4.6790   14.0330   20.9210 C.3       6 GLP5        0.0000 
     32 CA          8.7255    8.2840   23.8110 C.3       3 GLC5        0.0000 
     33 CA          8.1310   10.3300   23.4080 C.3       9 GLL5        0.0000 
     34 CA          9.3200    6.2380   24.2140 C.3       6 GLP5        0.0000 
     35 CA          7.5520    9.3485   20.8280 C.3       3 GLC5        0.0000 
     36 CA          6.9300    9.7960   22.8360 C.3       9 GLL5        0.0000 
     37 CA          8.1740    8.9010   18.8200 C.3       6 GLP5        0.0000 
     38 CA          1.8410   11.7345   27.0905 C.3       3 GLC5        0.0000 
     39 CA          1.0380   10.5970   25.9870 C.3       9 GLL5        0.0000 
     40 CA          2.6440   12.8720   28.1940 C.3       6 GLP5        0.0000 
     41 CA         -1.7185    9.0560   26.4295 C.3       3 GLC5        0.0000 
     42 CA         -0.1470   10.2460   26.6690 C.3       9 GLL5        0.0000 
     43 CA          0.9005   11.0750   28.0900 C.3       3 GLC5        0.0000 
     44 CA          1.9480   11.9040   29.5110 C.3       6 GLP5        0.0000 
     45 CA         11.8915   12.7272   24.5708 C.3       3 GLC5        0.0000 
     46 CA         10.8140   14.4330   25.8440 C.3       9 GLL5        0.0000 
     47 CA         12.3090   11.0520   23.5310 C.3       6 GLP5        0.0000 
     48 CA          3.6935   14.0450   27.0480 C.3       3 GLC5        0.0000 
     49 CA          3.5775   16.7145   25.2620 C.3       3 GLC5        0.0000 
     50 CA          4.3870   14.7330   25.5160 C.3       9 GLL5        0.0000 
     51 CA          2.4120   18.2110   24.6220 C.3       6 GLP5        0.0000 
     52 CA          5.0373   15.6178   28.0183 C.3       3 GLC5        0.0000 
     53 CA          4.4470   15.8480   29.8570 C.3       6 GLP5        0.0000 
     54 CA          0.0483   10.4910   22.6740 C.3       3 GLC5        0.0000 
     55 CA          0.8680   11.3390   24.7660 C.3       9 GLL5        0.0000 
     56 CA         -0.1280    9.4640   20.8250 C.3       6 GLP5        0.0000 
     57 CA          0.6887   12.6770   26.0880 C.3       3 GLC5        0.0000 
     58 CA          1.1530   13.8360   27.6530 C.3       6 GLP5        0.0000 
     59 CA          3.7393   13.0010   26.3758 C.3       3 GLC5        0.0000 
     60 CA          5.6307   12.4016   26.4920 C.3       3 GLC5        0.0000 
     61 CA          6.5020   13.4600   25.0980 C.3       9 GLL5        0.0000 
     62 CA          5.6820   11.3720   28.0850 C.3       6 GLP5        0.0000 
     63 CA          6.0682   10.1747   25.2058 C.3       3 GLC5        0.0000 
     64 CA          5.6260   11.6830   23.7870 C.3       9 GLL5        0.0000 
     65 CA          6.4790    9.2650   27.0020 C.3       6 GLP5        0.0000 
     66 CA          7.7957   11.4430   26.0410 C.3       3 GLC5        0.0000 
     67 CA          6.8450   12.2630   24.3910 C.3       9 GLL5        0.0000 
     68 CA         10.2072   10.9967   23.6623 C.3       3 GLC5        0.0000 
     69 CA          8.0800   11.5530   24.1790 C.3       9 GLL5        0.0000 
     70 CA          7.0047    9.6640   25.0620 C.3       3 GLC5        0.0000 
     71 CA          5.4899   11.5486   21.7094 C.3       3 GLC5        0.0000 
     72 CA          4.6860   12.6570   20.2960 C.3       6 GLP5        0.0000 
     73 CA         12.1023   12.9379   27.2860 C.3       3 GLC5        0.0000 
     74 CA         12.8080   11.3200   27.8000 C.3       6 GLP5        0.0000 
@<TRIPOS>BOND
@<TRIPOS>SUBSTRUCTURE
     1 ALC1        4 GROUP        1 X    ALC  0     ROOT ALC X 1
     2 SEC2       10 GROUP        1 X    SEC  0     **** SEC X 2
     3 GLC5        1 GROUP        1 X    GLC  0     **** GLC X 6
     4 ALP1        6 GROUP        1 Y    ALP  0     ROOT ALP Y 8
     5 SEP2       12 GROUP        1 Y    SEP  0     **** SEP Y 9
     6 GLP5        3 GROUP        1 Y    GLP  0     **** GLP Y 13
     7 ALL1        5 GROUP        1 Z    ALL  0     ROOT ALL Z 15
     8 SEL2       11 GROUP        1 Z    SEL  0     **** SEL Z 16
     9 GLL5        2 GROUP        1 Z    GLL  0     **** GLL Z 20
@<TRIPOS>SET

