#    Name: 2ykj_YKJ_1_ligand
#    Modification time : Mon Apr  7 18:23:52 2014

@<TRIPOS>MOLECULE
2ykj_YKJ_1_ligand
   50    55     1     0     0
SMALL
NO_CHARGES


@<TRIPOS>ATOM
      1 C1         13.1630   14.5080   26.3330 C.ar      1 YKJ1224     0.0000 
      2 N1         12.9200   14.6840   27.6900 N.ar      1 YKJ1224     0.0000 
      3 C2         11.5990   14.7380   28.1430 C.ar      1 YKJ1224     0.0000 
      4 N2          9.1460   14.6310   27.3570 N.pl3     1 YKJ1224     0.0000 
      5 C3         12.1340   14.3720   25.3770 C.ar      1 YKJ1224     0.0000 
      6 N3          9.6160   14.3480   25.2220 N.2       1 YKJ1224     0.0000 
      7 C4          8.6090   14.4700   26.1120 C.2       1 YKJ1224     0.0000 
      8 N4          3.3120   11.8590   24.7590 N.am      1 YKJ1224     0.0000 
      9 C5         10.8140   14.4330   25.8440 C.ar      1 YKJ1224     0.0000 
     10 N5         -1.4130   10.5800   26.2210 N.ar      1 YKJ1224     0.0000 
     11 C6         10.5250   14.6120   27.2460 C.ar      1 YKJ1224     0.0000 
     12 N6         -0.0740    9.5580   27.8070 N.pl3     1 YKJ1224     0.0000 
     13 C7          7.2530   14.4660   25.8850 C.ar      1 YKJ1224     0.0000 
     14 C8          4.3870   14.7330   25.5160 C.ar      1 YKJ1224     0.0000 
     15 C9          5.0990   15.7030   26.2880 C.ar      1 YKJ1224     0.0000 
     16 C10         6.5120   15.5570   26.4570 C.ar      1 YKJ1224     0.0000 
     17 C11         2.2180   11.7290   24.0010 C.2       1 YKJ1224     0.0000 
     18 C12         0.8680   11.3390   24.7660 C.ar      1 YKJ1224     0.0000 
     19 O13         2.1940   11.8880   22.7780 O.2       1 YKJ1224     0.0000 
     20 C14        -0.4190   11.6970   24.2800 C.ar      1 YKJ1224     0.0000 
     21 C15        -1.5390   11.2950   25.0410 C.ar      1 YKJ1224     0.0000 
     22 C16         4.5710   12.6170   24.1690 C.3       1 YKJ1224     0.0000 
     23 C17         5.0980   13.6430   24.9460 C.ar      1 YKJ1224     0.0000 
     24 C18         6.5020   13.4600   25.0980 C.ar      1 YKJ1224     0.0000 
     25 C19         5.6260   11.6830   23.7870 C.ar      1 YKJ1224     0.0000 
     26 C20         6.8450   12.2630   24.3910 C.ar      1 YKJ1224     0.0000 
     27 C21         8.0800   11.5530   24.1790 C.ar      1 YKJ1224     0.0000 
     28 C22         8.1310   10.3300   23.4080 C.ar      1 YKJ1224     0.0000 
     29 C23         6.9300    9.7960   22.8360 C.ar      1 YKJ1224     0.0000 
     30 C24         5.6890   10.4860   23.0320 C.ar      1 YKJ1224     0.0000 
     31 C25         1.0380   10.5970   25.9870 C.ar      1 YKJ1224     0.0000 
     32 C26        -0.1470   10.2460   26.6690 C.ar      1 YKJ1224     0.0000 
     33 H          14.1535   14.4735   25.9951 H         1 YKJ1224     0.0000 
     34 H          11.4069   14.8718   29.1465 H         1 YKJ1224     0.0000 
     35 H           8.6603   14.7394   28.1738 H         1 YKJ1224     0.0000 
     36 H          12.3432   14.2375   24.4051 H         1 YKJ1224     0.0000 
     37 H           3.4428   11.5224   25.6959 H         1 YKJ1224     0.0000 
     38 H           0.8445    9.3017   28.1081 H         1 YKJ1224     0.0000 
     39 H          -0.9443    9.3596   28.2579 H         1 YKJ1224     0.0000 
     40 H           3.3894   14.8251   25.3796 H         1 YKJ1224     0.0000 
     41 H           4.6120   16.4801   26.7081 H         1 YKJ1224     0.0000 
     42 H           7.0232   16.2626   27.0121 H         1 YKJ1224     0.0000 
     43 H          -0.5233   12.2152   23.4289 H         1 YKJ1224     0.0000 
     44 H          -2.4871   11.5504   24.6936 H         1 YKJ1224     0.0000 
     45 H           4.1845   13.0589   23.1890 H         1 YKJ1224     0.0000 
     46 H           8.9450   11.9208   24.5829 H         1 YKJ1224     0.0000 
     47 H           9.0147    9.8572   23.2762 H         1 YKJ1224     0.0000 
     48 H           6.9580    8.9408   22.2994 H         1 YKJ1224     0.0000 
     49 H           4.8351   10.1002   22.6151 H         1 YKJ1224     0.0000 
     50 H           1.9374   10.3537   26.3177 H         1 YKJ1224     0.0000 
@<TRIPOS>BOND
     1    2    1 ar   
     2    5    1 ar   
     3   33    1 1    
     4    3    2 ar   
     5   11    3 ar   
     6   34    3 1    
     7    7    4 1    
     8   11    4 1    
     9   35    4 1    
    10    9    5 ar   
    11   36    5 1    
    12    7    6 2    
    13    9    6 1    
    14   13    7 1    
    15   17    8 am   
    16   22    8 1    
    17   37    8 1    
    18   11    9 ar   
    19   21   10 ar   
    20   32   10 ar   
    21   32   12 1    
    22   38   12 1    
    23   39   12 1    
    24   16   13 ar   
    25   24   13 ar   
    26   15   14 ar   
    27   23   14 ar   
    28   40   14 1    
    29   16   15 ar   
    30   41   15 1    
    31   42   16 1    
    32   18   17 1    
    33   19   17 2    
    34   20   18 ar   
    35   31   18 ar   
    36   21   20 ar   
    37   43   20 1    
    38   44   21 1    
    39   23   22 1    
    40   25   22 1    
    41   45   22 1    
    42   24   23 ar   
    43   26   24 1    
    44   26   25 ar   
    45   30   25 ar   
    46   27   26 ar   
    47   28   27 ar   
    48   46   27 1    
    49   29   28 ar   
    50   47   28 1    
    51   30   29 ar   
    52   48   29 1    
    53   49   30 1    
    54   32   31 ar   
    55   50   31 1    
@<TRIPOS>SUBSTRUCTURE
     1 YKJ1224     1 GROUP   
@<TRIPOS>SET

