#    Name: 3br2_DEQ_1_INTS_M
#    Modification time : Mon Mar 24 19:58:59 2014

@<TRIPOS>MOLECULE
3br2_DEQ_1_INTS_M
   65     0     6     0     0
SMALL
NO_CHARGES


@<TRIPOS>ATOM
      1 CA         16.2445   34.7430    7.6630 C.3       2 GLC5        0.0000 
      2 CA         14.1840   35.2480    7.6150 C.3       6 GLL5        0.0000 
      3 CA         18.3050   34.2380    7.7110 C.3       4 GLP5        0.0000 
      4 CA         14.6585   33.0230    5.7530 C.3       2 GLC5        0.0000 
      5 CA         13.8090   33.9930    7.1550 C.3       6 GLL5        0.0000 
      6 CA         15.5080   32.0530    4.3510 C.3       4 GLP5        0.0000 
      7 CA         14.1990   31.9860    7.1610 C.3       2 GLC5        0.0000 
      8 CA         12.5600   33.4850    7.4650 C.3       6 GLL5        0.0000 
      9 CA         15.8380   30.4870    6.8570 C.3       4 GLP5        0.0000 
     10 CA         12.1375   31.6255    8.3110 C.3       2 GLC5        0.0000 
     11 CA         11.7150   29.7660    9.1570 C.3       4 GLP5        0.0000 
     12 CA          9.9145   38.5270    9.2060 C.3       2 GLC5        0.0000 
     13 CA         11.5740   37.5040    9.9320 C.3       6 GLL5        0.0000 
     14 CA          8.2550   39.5500    8.4800 C.3       4 GLP5        0.0000 
     15 CA         23.4420   42.3435    3.5745 C.3       2 GLC5        0.0000 
     16 CA         21.9570   40.7170    3.1300 C.3       6 GLL5        0.0000 
     17 CA         24.9270   43.9700    4.0190 C.3       4 GLP5        0.0000 
     18 CA         24.1175   41.8325    6.6815 C.3       2 GLC5        0.0000 
     19 CA         23.2250   40.7820    5.2670 C.3       6 GLL5        0.0000 
     20 CA         25.0100   42.8830    8.0960 C.3       4 GLP5        0.0000 
     21 CA         24.0760   42.3760    4.6430 C.3       2 GLC5        0.0000 
     22 CA         23.7080   38.0415    4.8070 C.3       2 GLC5        0.0000 
     23 CA         22.8230   39.5090    6.0190 C.3       6 GLL5        0.0000 
     24 CA         24.5930   36.5740    3.5950 C.3       4 GLP5        0.0000 
     25 CA         23.1215   41.4285    8.3305 C.3       2 GLC5        0.0000 
     26 CA         22.2030   39.7730    7.3920 C.3       6 GLL5        0.0000 
     27 CA         24.0400   43.0840    9.2690 C.3       4 GLP5        0.0000 
     28 CA         20.9705   36.9330    6.8995 C.3       2 GLC5        0.0000 
     29 CA         20.9580   38.9140    7.6050 C.3       6 GLL5        0.0000 
     30 CA         20.9830   34.9520    6.1940 C.3       4 GLP5        0.0000 
     31 CA         19.9745   36.8505   10.9380 C.3       2 GLC5        0.0000 
     32 CA         18.3320   38.0840   10.1640 C.3       6 GLL5        0.0000 
     33 CA         21.6170   35.6170   11.7120 C.3       4 GLP5        0.0000 
     34 CA         17.2020   35.6885    8.5520 C.3       2 GLC5        0.0000 
     35 CA         16.0990   37.1390    9.3930 C.3       6 GLL5        0.0000 
     36 CA         14.8965   36.1600   10.7765 C.3       2 GLC5        0.0000 
     37 CA         13.6940   35.1810   12.1600 C.3       4 GLP5        0.0000 
     38 CA         12.9415   37.6700   11.4190 C.3       2 GLC5        0.0000 
     39 CA         13.1990   39.3530   10.1260 C.3       6 GLL5        0.0000 
     40 CA         12.6840   35.9870   12.7120 C.3       4 GLP5        0.0000 
     41 CA         14.1135   41.2805   10.6125 C.3       2 GLC5        0.0000 
     42 CA         15.0280   43.2080   11.0990 C.3       4 GLP5        0.0000 
     43 CA         26.0220   39.3000    5.5940 C.3       2 GLC5        0.0000 
     44 CA         25.5510   39.8950    3.8710 C.3       6 GLL5        0.0000 
     45 CA         26.4930   38.7050    7.3170 C.3       4 GLP5        0.0000 
     46 CA         25.4180   38.3300    3.1455 C.3       2 GLC5        0.0000 
     47 CA         25.2850   36.7650    2.4200 C.3       4 GLP5        0.0000 
     48 O          22.4730   40.4520   -1.3945 O.2       1 ALC1        0.0000 
     49 O          23.0770   39.7600   -0.2500 O.2       5 ALL1        0.0000 
     50 O          21.8690   41.1440   -2.5390 O.2       3 ALP1        0.0000 
     51 CA         14.2587   33.8222    9.2430 C.3       2 GLC5        0.0000 
     52 CA         14.5210   33.0240   11.1010 C.3       4 GLP5        0.0000 
     53 CA         10.7862   33.3042    6.2870 C.3       2 GLC5        0.0000 
     54 CA          9.4490   32.7480    4.7220 C.3       4 GLP5        0.0000 
     55 CA         13.3223   33.4423    9.4765 C.3       2 GLC5        0.0000 
     56 CA         13.6028   34.3935    9.8273 C.3       2 GLC5        0.0000 
     57 CA         12.0520   35.5010    8.7090 C.3       6 GLL5        0.0000 
     58 CA         24.9108   41.9862    3.7678 C.3       2 GLC5        0.0000 
     59 CA         24.2380   40.1100    3.1620 C.3       6 GLL5        0.0000 
     60 CA         24.5532   39.3321    6.9173 C.3       2 GLC5        0.0000 
     61 CA         21.5945   37.7013    9.5120 C.3       2 GLC5        0.0000 
     62 CA         22.5870   36.3310   10.7600 C.3       4 GLP5        0.0000 
     63 CA         19.9309   39.1096   11.1326 C.3       2 GLC5        0.0000 
     64 CA         20.2460   39.2290    8.9230 C.3       6 GLL5        0.0000 
     65 CA         20.9420   39.6670   12.7300 C.3       4 GLP5        0.0000 
@<TRIPOS>BOND
@<TRIPOS>SUBSTRUCTURE
     1 ALC1       48 GROUP        1 X    ALC  0     ROOT ALC X 1
     2 GLC5        1 GROUP        1 X    GLC  0     **** GLC X 6
     3 ALP1       50 GROUP        1 Y    ALP  0     ROOT ALP Y 8
     4 GLP5        3 GROUP        1 Y    GLP  0     **** GLP Y 13
     5 ALL1       49 GROUP        1 Z    ALL  0     ROOT ALL Z 15
     6 GLL5        2 GROUP        1 Z    GLL  0     **** GLL Z 20
@<TRIPOS>SET

