#    Name: 3br2_DEQ_1_ligand
#    Modification time : Mon Mar 24 19:58:59 2014

@<TRIPOS>MOLECULE
3br2_DEQ_1_ligand
   74    77     1     0     0
SMALL
NO_CHARGES


@<TRIPOS>ATOM
      1 C1         14.1840   35.2480    7.6150 C.ar      1 DEQ201      0.0000 
      2 C2         13.8090   33.9930    7.1550 C.ar      1 DEQ201      0.0000 
      3 C3         12.5600   33.4850    7.4650 C.ar      1 DEQ201      0.0000 
      4 C4         11.6870   34.2360    8.2390 C.ar      1 DEQ201      0.0000 
      5 C5         13.3170   36.0250    8.3980 C.ar      1 DEQ201      0.0000 
      6 C6         12.0520   35.5010    8.7090 C.ar      1 DEQ201      0.0000 
      7 C7         11.1730   36.2550    9.4870 C.ar      1 DEQ201      0.0000 
      8 C8         11.5740   37.5040    9.9320 C.ar      1 DEQ201      0.0000 
      9 C9         12.8320   37.9850    9.6040 C.ar      1 DEQ201      0.0000 
     10 N1         13.6840   37.2540    8.8480 N.pl3     1 DEQ201      0.0000 
     11 C10        21.8910   40.4660    1.7460 C.ar      1 DEQ201      0.0000 
     12 C11        21.9570   40.7170    3.1300 C.ar      1 DEQ201      0.0000 
     13 N2         23.1290   40.5360    3.8100 N.pl3     1 DEQ201      0.0000 
     14 C12        24.2380   40.1100    3.1620 C.ar      1 DEQ201      0.0000 
     15 C13        24.2140   39.8540    1.8010 C.ar      1 DEQ201      0.0000 
     16 C14        23.0420   40.0280    1.0800 C.ar      1 DEQ201      0.0000 
     17 C15        20.6840   40.6550    1.0550 C.ar      1 DEQ201      0.0000 
     18 C16        19.5420   41.0920    1.7190 C.ar      1 DEQ201      0.0000 
     19 C17        19.5940   41.3460    3.0840 C.ar      1 DEQ201      0.0000 
     20 C18        20.7870   41.1580    3.7800 C.ar      1 DEQ201      0.0000 
     21 C19        23.2250   40.7820    5.2670 C.3       1 DEQ201      0.0000 
     22 C20        22.8230   39.5090    6.0190 C.3       1 DEQ201      0.0000 
     23 C21        22.2030   39.7730    7.3920 C.3       1 DEQ201      0.0000 
     24 C22        20.9580   38.9140    7.6050 C.3       1 DEQ201      0.0000 
     25 C23        20.2460   39.2290    8.9230 C.3       1 DEQ201      0.0000 
     26 C24        18.7690   38.8120    8.8900 C.3       1 DEQ201      0.0000 
     27 C25        18.3320   38.0840   10.1640 C.3       1 DEQ201      0.0000 
     28 C26        16.8150   38.0910   10.3540 C.3       1 DEQ201      0.0000 
     29 C27        16.0990   37.1390    9.3930 C.3       1 DEQ201      0.0000 
     30 C28        15.0180   37.8150    8.5330 C.3       1 DEQ201      0.0000 
     31 C30        13.1990   39.3530   10.1260 C.3       1 DEQ201      0.0000 
     32 C29        25.5510   39.8950    3.8710 C.3       1 DEQ201      0.0000 
     33 N4          9.9330   35.8310    9.8320 N.pl3     1 DEQ201      0.0000 
     34 N3         23.0770   39.7600   -0.2500 N.pl3     1 DEQ201      0.0000 
     35 H          15.1197   35.6234    7.3793 H         1 DEQ201      0.0000 
     36 H          14.4635   33.4405    6.5819 H         1 DEQ201      0.0000 
     37 H          12.2788   32.5573    7.1249 H         1 DEQ201      0.0000 
     38 H          10.7535   33.8593    8.4737 H         1 DEQ201      0.0000 
     39 H          10.9382   38.0752   10.5062 H         1 DEQ201      0.0000 
     40 H          25.0687   39.5334    1.3221 H         1 DEQ201      0.0000 
     41 H          20.6485   40.4659    0.0409 H         1 DEQ201      0.0000 
     42 H          18.6656   41.2258    1.2020 H         1 DEQ201      0.0000 
     43 H          18.7564   41.6716    3.5810 H         1 DEQ201      0.0000 
     44 H          20.8210   41.3448    4.7977 H         1 DEQ201      0.0000 
     45 H          22.5565   41.5853    5.5647 H         1 DEQ201      0.0000 
     46 H          24.2428   41.0414    5.5454 H         1 DEQ201      0.0000 
     47 H          23.7133   38.8736    6.1445 H         1 DEQ201      0.0000 
     48 H          22.1048   38.9444    5.4046 H         1 DEQ201      0.0000 
     49 H          21.9309   40.8252    7.4659 H         1 DEQ201      0.0000 
     50 H          22.9348   39.5437    8.1657 H         1 DEQ201      0.0000 
     51 H          21.2457   37.8566    7.5986 H         1 DEQ201      0.0000 
     52 H          20.2617   39.0786    6.7750 H         1 DEQ201      0.0000 
     53 H          20.3088   40.3019    9.1177 H         1 DEQ201      0.0000 
     54 H          20.7470   38.7006    9.7371 H         1 DEQ201      0.0000 
     55 H          18.6036   38.1565    8.0277 H         1 DEQ201      0.0000 
     56 H          18.1498   39.7062    8.7576 H         1 DEQ201      0.0000 
     57 H          18.8040   38.5635   11.0291 H         1 DEQ201      0.0000 
     58 H          18.6832   37.0468   10.1209 H         1 DEQ201      0.0000 
     59 H          16.4386   39.1078   10.1963 H         1 DEQ201      0.0000 
     60 H          16.5814   37.8010   11.3845 H         1 DEQ201      0.0000 
     61 H          15.6329   36.3273    9.9729 H         1 DEQ201      0.0000 
     62 H          16.8428   36.6759    8.7261 H         1 DEQ201      0.0000 
     63 H          15.0407   38.8871    8.7341 H         1 DEQ201      0.0000 
     64 H          15.2644   37.6526    7.4826 H         1 DEQ201      0.0000 
     65 H           9.4033   36.4476   10.4144 H         1 DEQ201      0.0000 
     66 H           9.6574   34.9390    9.4737 H         1 DEQ201      0.0000 
     67 H          22.4701   40.3083   -0.8255 H         1 DEQ201      0.0000 
     68 H          23.7065   39.0379   -0.5369 H         1 DEQ201      0.0000 
     69 H          14.1191   39.6239    9.8431 H         1 DEQ201      0.0000 
     70 H          12.5712   40.0575    9.7950 H         1 DEQ201      0.0000 
     71 H          13.1776   39.3873   11.1252 H         1 DEQ201      0.0000 
     72 H          26.2633   39.5770    3.2453 H         1 DEQ201      0.0000 
     73 H          25.8869   40.7366    4.2940 H         1 DEQ201      0.0000 
     74 H          25.4732   39.2125    4.5978 H         1 DEQ201      0.0000 
@<TRIPOS>BOND
     1    2    1 ar   
     2    5    1 ar   
     3   35    1 1    
     4    3    2 ar   
     5   36    2 1    
     6    4    3 ar   
     7   37    3 1    
     8    6    4 ar   
     9   38    4 1    
    10    6    5 ar   
    11   10    5 ar   
    12    7    6 ar   
    13    8    7 ar   
    14   33    7 1    
    15    9    8 ar   
    16   39    8 1    
    17   10    9 ar   
    18   31    9 1    
    19   30   10 1    
    20   12   11 ar   
    21   16   11 ar   
    22   17   11 ar   
    23   13   12 ar   
    24   20   12 ar   
    25   14   13 ar   
    26   21   13 1    
    27   15   14 ar   
    28   32   14 1    
    29   16   15 ar   
    30   40   15 1    
    31   34   16 1    
    32   18   17 ar   
    33   41   17 1    
    34   19   18 ar   
    35   42   18 1    
    36   20   19 ar   
    37   43   19 1    
    38   44   20 1    
    39   22   21 1    
    40   45   21 1    
    41   46   21 1    
    42   23   22 1    
    43   47   22 1    
    44   48   22 1    
    45   24   23 1    
    46   49   23 1    
    47   50   23 1    
    48   25   24 1    
    49   51   24 1    
    50   52   24 1    
    51   26   25 1    
    52   53   25 1    
    53   54   25 1    
    54   27   26 1    
    55   55   26 1    
    56   56   26 1    
    57   28   27 1    
    58   57   27 1    
    59   58   27 1    
    60   29   28 1    
    61   59   28 1    
    62   60   28 1    
    63   30   29 1    
    64   61   29 1    
    65   62   29 1    
    66   63   30 1    
    67   64   30 1    
    68   69   31 1    
    69   70   31 1    
    70   71   31 1    
    71   72   32 1    
    72   73   32 1    
    73   74   32 1    
    74   65   33 1    
    75   66   33 1    
    76   67   34 1    
    77   68   34 1    
@<TRIPOS>SUBSTRUCTURE
     1 DEQ201      1 GROUP   
@<TRIPOS>SET

