#    Name: 2BUC_4_CAVITY_N1_ALL.mol2
#    Modification time : Tue Mar 11 04:57:13 2014

@<TRIPOS>MOLECULE
2BUC_4_CAVITY_N1_ALL.mol2
   71     0     6     0     0
SMALL
NO_CHARGES


@<TRIPOS>ATOM
      1 CA          9.1118  -33.1008   69.3845 C.3       5 GLY6        0.0000 
      2 OG          8.0424  -33.8455   68.6416 O.2       1 SER1        0.0000 
      3 CZ          6.9730  -34.5901   67.8987 C.ar      4 PHE5        0.0000 
      4 OG          6.6699  -35.3865   69.1332 O.2       1 SER1        0.0000 
      5 CZ          6.0279  -31.7850   69.4761 C.ar      4 PHE5        0.0000 
      6 O           8.7390  -43.7500   62.4235 O.2       2 ALA2        0.0000 
      7 OG          7.0351  -32.8153   69.0589 O.2       1 SER1        0.0000 
      8 OG          6.7320  -33.6116   70.2934 O.2       1 SER1        0.0000 
      9 NZ          9.3527  -34.0793   66.9898 N.2       3 LYS4        0.0000 
     10 OG          9.0496  -34.8757   68.2243 O.2       1 SER1        0.0000 
     11 NZ          8.2833  -34.8240   66.2469 N.2       3 LYS4        0.0000 
     12 DU          7.9802  -35.6203   67.4814 H         6 CUB7        0.0000 
     13 OG          7.6772  -36.4167   68.7159 O.2       1 SER1        0.0000 
     14 CZ          6.9109  -36.3650   66.7385 C.ar      4 PHE5        0.0000 
     15 CZ          6.6078  -37.1613   67.9730 C.ar      4 PHE5        0.0000 
     16 CZ          6.3047  -37.9577   69.2075 C.ar      4 PHE5        0.0000 
     17 CZ          5.8415  -37.1096   65.9956 C.ar      4 PHE5        0.0000 
     18 O          11.0641  -36.9361   67.3898 O.2       2 ALA2        0.0000 
     19 OG         10.7611  -37.7324   68.6243 O.2       1 SER1        0.0000 
     20 NZ         10.2978  -36.8844   65.4124 N.2       3 LYS4        0.0000 
     21 O           9.9948  -37.6807   66.6469 O.2       2 ALA2        0.0000 
     22 DU          9.6917  -38.4771   67.8814 H         6 CUB7        0.0000 
     23 N           9.2285  -37.6291   64.6695 N.2       2 ALA2        0.0000 
     24 DU          8.9254  -38.4254   65.9040 H         6 CUB7        0.0000 
     25 DU          8.6223  -39.2217   67.1385 H         6 CUB7        0.0000 
     26 CZ          8.3192  -40.0181   68.3730 C.ar      4 PHE5        0.0000 
     27 CZ          8.0161  -40.8144   69.6075 C.ar      4 PHE5        0.0000 
     28 N           8.1591  -38.3737   63.9266 N.2       2 ALA2        0.0000 
     29 DU          7.8560  -39.1701   65.1611 H         6 CUB7        0.0000 
     30 CZ          7.5529  -39.9664   66.3956 C.ar      4 PHE5        0.0000 
     31 N           7.0897  -39.1184   63.1837 N.2       2 ALA2        0.0000 
     32 CZ          6.7866  -39.9147   64.4182 C.ar      4 PHE5        0.0000 
     33 N           6.0203  -39.8630   62.4408 N.2       2 ALA2        0.0000 
     34 O          10.1190  -34.1310   68.9672 O.2       2 ALA2        0.0000 
     35 O          12.0714  -37.9663   66.9725 O.2       2 ALA2        0.0000 
     36 O          11.3051  -37.9146   64.9951 O.2       2 ALA2        0.0000 
     37 DU         11.0020  -38.7109   66.2296 H         6 CUB7        0.0000 
     38 OG         10.2357  -38.6593   64.2522 O.2       1 SER1        0.0000 
     39 DU          9.9326  -39.4556   65.4867 H         6 CUB7        0.0000 
     40 DU          9.6295  -40.2519   66.7212 H         6 CUB7        0.0000 
     41 OG          9.1663  -39.4039   63.5093 O.2       1 SER1        0.0000 
     42 DU          8.8632  -40.2003   64.7438 H         6 CUB7        0.0000 
     43 CZ          8.5602  -40.9966   65.9783 C.ar      4 PHE5        0.0000 
     44 OG          8.0969  -40.1486   62.7664 O.2       1 SER1        0.0000 
     45 CA          7.7939  -40.9449   64.0009 C.3       5 GLY6        0.0000 
     46 CZ          7.4908  -41.7413   65.2354 C.ar      4 PHE5        0.0000 
     47 N           7.0276  -40.8932   62.0235 N.2       2 ALA2        0.0000 
     48 CA          6.7245  -41.6896   63.2580 C.3       5 GLY6        0.0000 
     49 OG         10.8232  -35.9576   69.7845 O.2       1 SER1        0.0000 
     50 O          10.0569  -35.9059   67.8071 O.2       2 ALA2        0.0000 
     51 OG          9.7538  -36.7022   69.0416 O.2       1 SER1        0.0000 
     52 NZ          9.2906  -35.8542   65.8297 N.2       3 LYS4        0.0000 
     53 O           8.9875  -36.6505   67.0642 O.2       2 ALA2        0.0000 
     54 OG          8.6844  -37.4469   68.2987 O.2       1 SER1        0.0000 
     55 OG          8.3813  -38.2432   69.5332 O.2       1 SER1        0.0000 
     56 OG          8.0783  -39.0396   70.7677 O.2       1 SER1        0.0000 
     57 NZ          8.2212  -36.5989   65.0868 N.2       3 LYS4        0.0000 
     58 DU          7.9181  -37.3952   66.3213 H         6 CUB7        0.0000 
     59 CZ          7.6150  -38.1915   67.5558 C.ar      4 PHE5        0.0000 
     60 CZ          7.3120  -38.9879   68.7903 C.ar      4 PHE5        0.0000 
     61 NZ          7.1518  -37.3435   64.3439 N.2       3 LYS4        0.0000 
     62 CZ          6.8487  -38.1399   65.5784 C.ar      4 PHE5        0.0000 
     63 CZ          5.7793  -38.8845   64.8355 C.ar      4 PHE5        0.0000 
     64 CA         12.3123  -38.9448   64.5779 C.3       5 GLY6        0.0000 
     65 OG         11.2430  -39.6895   63.8350 O.2       1 SER1        0.0000 
     66 OG         10.9399  -40.4858   65.0695 O.2       1 SER1        0.0000 
     67 OG          9.8705  -41.2305   64.3266 O.2       1 SER1        0.0000 
     68 OG          8.8011  -41.9751   63.5837 O.2       1 SER1        0.0000 
     69 CZ          8.4980  -42.7715   64.8182 C.ar      4 PHE5        0.0000 
     70 DU          7.7317  -42.7198   62.8408 H         6 CUB7        0.0000 
     71 CZ          7.4286  -43.5161   64.0753 C.ar      4 PHE5        0.0000 
@<TRIPOS>BOND
@<TRIPOS>SUBSTRUCTURE
     1 SER1        2 GROUP   
     2 ALA2        6 GROUP   
     3 LYS4        9 GROUP   
     4 PHE5        3 GROUP   
     5 GLY6        1 GROUP   
     6 CUB7       12 GROUP   
@<TRIPOS>SET

