#    Name: 2buc_008_4_INTS_M
#    Modification time : Mon Mar 24 21:43:36 2014

@<TRIPOS>MOLECULE
2buc_008_4_INTS_M
   54     0     9     0     0
SMALL
NO_CHARGES


@<TRIPOS>ATOM
      1 CA          7.9835  -31.5240   67.2450 C.3       3 GLC5        0.0000 
      2 CA          9.6060  -32.5520   67.9790 C.3       9 GLL5        0.0000 
      3 CA          6.3610  -30.4960   66.5110 C.3       6 GLP5        0.0000 
      4 CA         11.2635  -31.8200   68.4505 C.3       3 GLC5        0.0000 
      5 CA         12.9210  -31.0880   68.9220 C.3       6 GLP5        0.0000 
      6 CA          6.0505  -30.0635   70.6730 C.3       3 GLC5        0.0000 
      7 CA          6.7610  -31.8590   70.1330 C.3       9 GLL5        0.0000 
      8 CA          5.3400  -28.2680   71.2130 C.3       6 GLP5        0.0000 
      9 CA          5.5510  -35.2260   66.5230 C.3       3 GLC5        0.0000 
     10 CA          7.4330  -35.3300   66.5200 C.3       9 GLL5        0.0000 
     11 CA          3.6690  -35.1220   66.5260 C.3       6 GLP5        0.0000 
     12 OD1         8.8810  -34.0320   65.1410 O.co2     2 ASC3        0.0000 
     13 OD1         7.4260  -34.1410   65.6920 O.co2     8 ASL3        0.0000 
     14 OD1        10.3360  -33.9230   64.5900 O.co2     5 ASP3        0.0000 
     15 O           8.8810  -34.0320   65.1410 O.2       1 ALC1        0.0000 
     16 O           7.4260  -34.1410   65.6920 O.2       7 ALL1        0.0000 
     17 O          10.3360  -33.9230   64.5900 O.2       4 ALP1        0.0000 
     18 O           6.6030  -34.6450   64.5995 O.2       1 ALC1        0.0000 
     19 O           5.7800  -35.1490   63.5070 O.2       4 ALP1        0.0000 
     20 O           6.6060  -33.5575   64.7305 O.2       1 ALC1        0.0000 
     21 O           5.7860  -32.9740   63.7690 O.2       4 ALP1        0.0000 
     22 O           7.3815  -32.7875   65.9875 O.2       1 ALC1        0.0000 
     23 O           7.3370  -31.4340   66.2830 O.2       4 ALP1        0.0000 
     24 CA          6.1460  -39.4330   59.5875 C.3       3 GLC5        0.0000 
     25 CA          6.9480  -40.4690   61.4150 C.3       9 GLL5        0.0000 
     26 CA          5.3440  -38.3970   57.7600 C.3       6 GLP5        0.0000 
     27 CA          5.4495  -42.8985   60.7435 C.3       3 GLC5        0.0000 
     28 CA          6.8240  -41.7720   61.9040 C.3       9 GLL5        0.0000 
     29 CA          4.0750  -44.0250   59.5830 C.3       6 GLP5        0.0000 
     30 CA          6.7740  -41.8490   65.8980 C.3       3 GLC5        0.0000 
     31 CA          8.5620  -41.3880   65.2740 C.3       9 GLL5        0.0000 
     32 CA          4.9860  -42.3100   66.5220 C.3       6 GLP5        0.0000 
     33 CA          6.7400  -41.2090   67.0655 C.3       3 GLC5        0.0000 
     34 CA          8.1680  -40.2760   66.2650 C.3       9 GLL5        0.0000 
     35 CA          5.3120  -42.1420   67.8660 C.3       6 GLP5        0.0000 
     36 CA          9.6192  -32.4155   70.3355 C.3       3 GLC5        0.0000 
     37 CA          8.4590  -32.7320   68.6550 C.3       9 GLL5        0.0000 
     38 CA         10.2060  -32.1890   72.3540 C.3       6 GLP5        0.0000 
     39 CA          8.7812  -31.9820   71.0675 C.3       3 GLC5        0.0000 
     40 CA          7.9520  -31.6910   69.4290 C.3       9 GLL5        0.0000 
     41 CA          8.1378  -30.0045   69.6180 C.3       3 GLC5        0.0000 
     42 CA          8.9190  -28.2340   69.4550 C.3       6 GLP5        0.0000 
     43 CA          6.2335  -33.1752   71.9915 C.3       3 GLC5        0.0000 
     44 CA          6.0470  -33.8850   73.8850 C.3       6 GLP5        0.0000 
     45 CA          9.1208  -40.2623   61.4875 C.3       3 GLC5        0.0000 
     46 CA          8.1070  -39.8310   63.4250 C.3       9 GLL5        0.0000 
     47 CA         10.3930  -40.8650   60.1750 C.3       6 GLP5        0.0000 
     48 CA          6.7270  -38.0413   61.2385 C.3       3 GLC5        0.0000 
     49 CA          6.1850  -36.1040   60.6820 C.3       6 GLP5        0.0000 
     50 CA          8.6395  -40.9928   60.9173 C.3       3 GLC5        0.0000 
     51 CA          9.0263  -41.2377   61.8540 C.3       3 GLC5        0.0000 
     52 CA          7.3400  -42.1040   63.1570 C.3       9 GLL5        0.0000 
     53 CA          5.6739  -41.3314   63.4394 C.3       3 GLC5        0.0000 
     54 CA          4.0590  -41.4580   64.3430 C.3       6 GLP5        0.0000 
@<TRIPOS>BOND
@<TRIPOS>SUBSTRUCTURE
     1 ALC1       15 GROUP        1 X    ALC  0     ROOT ALC X 1
     2 ASC3       12 GROUP        1 X    ASC  0     **** ASC X 3
     3 GLC5        1 GROUP        1 X    GLC  0     **** GLC X 6
     4 ALP1       17 GROUP        1 Y    ALP  0     ROOT ALP Y 8
     5 ASP3       14 GROUP        1 Y    ASP  0     **** ASP Y 10
     6 GLP5        3 GROUP        1 Y    GLP  0     **** GLP Y 13
     7 ALL1       16 GROUP        1 Z    ALL  0     ROOT ALL Z 15
     8 ASL3       13 GROUP        1 Z    ASL  0     **** ASL Z 17
     9 GLL5        2 GROUP        1 Z    GLL  0     **** GLL Z 20
@<TRIPOS>SET

