#    Name: 2buc_008_4_ligand
#    Modification time : Mon Mar 24 21:43:36 2014

@<TRIPOS>MOLECULE
2buc_008_4_ligand
   49    51     1     0     0
SMALL
NO_CHARGES


@<TRIPOS>ATOM
      1 F7          9.6060  -32.5520   67.9790 F         1 0081767     0.0000 
      2 C1          8.4590  -32.7320   68.6550 C.ar      1 0081767     0.0000 
      3 C2          7.9520  -31.6910   69.4290 C.ar      1 0081767     0.0000 
      4 C3          6.7610  -31.8590   70.1330 C.ar      1 0081767     0.0000 
      5 C4          6.0790  -33.0720   70.0630 C.ar      1 0081767     0.0000 
      6 C5          6.5910  -34.1120   69.2870 C.ar      1 0081767     0.0000 
      7 C6          7.7790  -33.9440   68.5770 C.ar      1 0081767     0.0000 
      8 C8          8.3290  -35.0790   67.7340 C.3       1 0081767     0.0000 
      9 C9          7.4330  -35.3300   66.5200 C.3       1 0081767     0.0000 
     10 N10         7.4260  -34.1410   65.6920 N.4       1 0081767     0.0000 
     11 C11         7.9310  -36.5070   65.6820 C.3       1 0081767     0.0000 
     12 C12         7.7300  -37.8670   66.3320 C.2       1 0081767     0.0000 
     13 O13         7.2070  -37.9650   67.4360 O.2       1 0081767     0.0000 
     14 N14         8.2100  -38.9220   65.6580 N.am      1 0081767     0.0000 
     15 C19         8.8180  -38.8500   64.3270 C.3       1 0081767     0.0000 
     16 C18         8.1070  -39.8310   63.4250 C.ar      1 0081767     0.0000 
     17 C20         7.5900  -39.4880   62.1750 C.ar      1 0081767     0.0000 
     18 C21         6.9480  -40.4690   61.4150 C.ar      1 0081767     0.0000 
     19 C22         6.8240  -41.7720   61.9040 C.ar      1 0081767     0.0000 
     20 C17         7.9790  -41.1170   63.9090 C.ar      1 0081767     0.0000 
     21 C23         7.3400  -42.1040   63.1570 C.ar      1 0081767     0.0000 
     22 C16         8.5620  -41.3880   65.2740 C.3       1 0081767     0.0000 
     23 C15         8.1680  -40.2760   66.2650 C.3       1 0081767     0.0000 
     24 C24         9.0790  -40.3940   67.4560 C.2       1 0081767     0.0000 
     25 O25         8.8750  -41.2780   68.2740 O.2       1 0081767     0.0000 
     26 N26        10.0880  -39.5350   67.5950 N.am      1 0081767     0.0000 
     27 H           8.4569  -30.7969   69.4814 H         1 0081767     0.0000 
     28 H           6.3872  -31.0908   70.7017 H         1 0081767     0.0000 
     29 H           5.2026  -33.2007   70.5805 H         1 0081767     0.0000 
     30 H           6.0880  -35.0094   69.2385 H         1 0081767     0.0000 
     31 H           8.3793  -35.9869   68.3327 H         1 0081767     0.0000 
     32 H           9.3307  -34.8261   67.3906 H         1 0081767     0.0000 
     33 H           6.4385  -35.5506   66.8665 H         1 0081767     0.0000 
     34 H           9.0057  -36.3634   65.4714 H         1 0081767     0.0000 
     35 H           7.4124  -36.4933   64.7069 H         1 0081767     0.0000 
     36 H           9.8728  -39.1117   64.3705 H         1 0081767     0.0000 
     37 H           8.7163  -37.8505   63.9104 H         1 0081767     0.0000 
     38 H           7.6790  -38.5362   61.8210 H         1 0081767     0.0000 
     39 H           6.5647  -40.2308   60.4908 H         1 0081767     0.0000 
     40 H           6.3508  -42.4878   61.3379 H         1 0081767     0.0000 
     41 H           7.2517  -43.0535   63.5182 H         1 0081767     0.0000 
     42 H           9.6483  -41.4306   65.2120 H         1 0081767     0.0000 
     43 H           8.1927  -42.3396   65.6533 H         1 0081767     0.0000 
     44 H           7.1503  -40.5001   66.6019 H         1 0081767     0.0000 
     45 H          10.2155  -38.8815   66.8489 H         1 0081767     0.0000 
     46 H          10.6269  -39.6211   68.4329 H         1 0081767     0.0000 
     47 H           6.5635  -34.0386   65.1964 H         1 0081767     0.0000 
     48 H           7.5530  -33.3102   66.2339 H         1 0081767     0.0000 
     49 H           8.1561  -34.1598   65.0089 H         1 0081767     0.0000 
@<TRIPOS>BOND
     1    2    1 1    
     2    3    2 ar   
     3    7    2 ar   
     4    4    3 ar   
     5   27    3 1    
     6    5    4 ar   
     7   28    4 1    
     8    6    5 ar   
     9   29    5 1    
    10    7    6 ar   
    11   30    6 1    
    12    8    7 1    
    13    9    8 1    
    14   31    8 1    
    15   32    8 1    
    16   10    9 1    
    17   11    9 1    
    18   33    9 1    
    19   47   10 1    
    20   48   10 1    
    21   49   10 1    
    22   12   11 1    
    23   34   11 1    
    24   35   11 1    
    25   13   12 2    
    26   14   12 am   
    27   15   14 1    
    28   23   14 1    
    29   16   15 1    
    30   36   15 1    
    31   37   15 1    
    32   17   16 ar   
    33   20   16 ar   
    34   18   17 ar   
    35   38   17 1    
    36   19   18 ar   
    37   39   18 1    
    38   21   19 ar   
    39   40   19 1    
    40   21   20 ar   
    41   22   20 1    
    42   41   21 1    
    43   23   22 1    
    44   42   22 1    
    45   43   22 1    
    46   24   23 1    
    47   44   23 1    
    48   25   24 2    
    49   26   24 am   
    50   45   26 1    
    51   46   26 1    
@<TRIPOS>SUBSTRUCTURE
     1 0081767     1 GROUP   
@<TRIPOS>SET

