#    Name: 1P31_1_CAVITY_N1_ALL.mol2
#    Modification time : Mon Mar 10 23:38:21 2014

@<TRIPOS>MOLECULE
1P31_1_CAVITY_N1_ALL.mol2
  125     0     7     0     0
SMALL
NO_CHARGES


@<TRIPOS>ATOM
      1 O          52.2467   58.4676   -2.5381 O.2       2 ALA2        0.0000 
      2 CA         50.8994   59.1025   -2.3603 C.3       6 GLY6        0.0000 
      3 O          51.6132   57.1089   -2.4863 O.2       2 ALA2        0.0000 
      4 DU         50.2659   57.7439   -2.3085 H         7 CUB7        0.0000 
      5 CA         52.3269   55.1152   -2.6123 C.3       6 GLY6        0.0000 
      6 O          50.9796   55.7502   -2.4345 O.2       2 ALA2        0.0000 
      7 NZ         49.6324   56.3852   -2.2566 N.2       4 LYS4        0.0000 
      8 NZ         48.2851   57.0202   -2.0788 N.2       4 LYS4        0.0000 
      9 DU         46.9378   57.6552   -1.9010 H         7 CUB7        0.0000 
     10 O          44.2433   58.9252   -1.5453 O.2       2 ALA2        0.0000 
     11 O          50.3461   54.3916   -2.3827 O.2       2 ALA2        0.0000 
     12 OG         46.3043   56.2965   -1.8491 O.2       1 SER1        0.0000 
     13 OG         44.9570   56.9315   -1.6713 O.2       1 SER1        0.0000 
     14 N          52.0820   60.3755    2.0535 N.2       2 ALA2        0.0000 
     15 OG         50.7347   61.0105    2.2313 O.2       1 SER1        0.0000 
     16 N          51.4485   59.0168    2.1053 N.2       2 ALA2        0.0000 
     17 OG         50.1012   59.6518    2.2831 O.2       1 SER1        0.0000 
     18 OG         48.7539   60.2868    2.4610 O.2       1 SER1        0.0000 
     19 OG         46.0594   61.5568    2.8167 O.2       1 SER1        0.0000 
     20 CA         52.1622   57.0231    1.9793 C.3       6 GLY6        0.0000 
     21 NZ         50.8149   57.6581    2.1571 N.2       4 LYS4        0.0000 
     22 NZ         49.4677   58.2931    2.3350 N.2       4 LYS4        0.0000 
     23 OD1        48.1204   58.9281    2.5128 O.3       3 ASP3        0.0000 
     24 OD1        46.7731   59.5631    2.6906 O.3       3 ASP3        0.0000 
     25 N          45.4258   60.1981    2.8685 N.2       2 ALA2        0.0000 
     26 O          54.2232   54.3945    1.6754 O.2       2 ALA2        0.0000 
     27 NZ         52.8760   55.0295    1.8532 N.2       4 LYS4        0.0000 
     28 NZ         48.8341   56.9345    2.3868 N.2       4 LYS4        0.0000 
     29 OD1        47.4869   57.5695    2.5646 O.3       3 ASP3        0.0000 
     30 N          53.5897   53.0358    1.7272 N.2       2 ALA2        0.0000 
     31 CA         52.2425   53.6708    1.9050 C.3       6 GLY6        0.0000 
     32 NZ         49.5479   54.9408    2.2607 N.2       4 LYS4        0.0000 
     33 NZ         48.2006   55.5758    2.4386 N.2       4 LYS4        0.0000 
     34 N          52.2650   60.3469    3.5420 N.2       2 ALA2        0.0000 
     35 O          50.9177   60.9819    3.7199 O.2       2 ALA2        0.0000 
     36 N          51.6315   58.9882    3.5938 N.2       2 ALA2        0.0000 
     37 O          50.2842   59.6232    3.7717 O.2       2 ALA2        0.0000 
     38 CZ         48.9369   60.2582    3.9495 C.ar      5 PHE5        0.0000 
     39 NZ         49.6507   58.2646    3.8235 N.2       4 LYS4        0.0000 
     40 CZ         48.3034   58.8996    4.0013 C.ar      5 PHE5        0.0000 
     41 OD1        46.9561   59.5345    4.1792 O.3       3 ASP3        0.0000 
     42 N          45.6089   60.1695    4.3570 N.2       2 ALA2        0.0000 
     43 NZ         49.0172   56.9059    3.8753 N.2       4 LYS4        0.0000 
     44 OD1        47.6699   57.5409    4.0531 O.3       3 ASP3        0.0000 
     45 CA         51.8806   58.5247   -5.5151 C.3       6 GLY6        0.0000 
     46 OG         50.5334   59.1597   -5.3373 O.2       1 SER1        0.0000 
     47 OG         51.2471   57.1660   -5.4633 O.2       1 SER1        0.0000 
     48 OG         49.8998   57.8010   -5.2855 O.2       1 SER1        0.0000 
     49 OG         48.5526   58.4360   -5.1076 O.2       1 SER1        0.0000 
     50 OG         50.6136   55.8074   -5.4115 O.2       1 SER1        0.0000 
     51 OG         49.2663   56.4424   -5.2337 O.2       1 SER1        0.0000 
     52 CA         47.9190   57.0774   -5.0558 C.3       6 GLY6        0.0000 
     53 CA         48.6328   55.0837   -5.1819 C.3       6 GLY6        0.0000 
     54 CA         47.2855   55.7187   -5.0040 C.3       6 GLY6        0.0000 
     55 O          52.0637   58.4961   -4.0266 O.2       2 ALA2        0.0000 
     56 DU         50.7164   59.1311   -3.8488 H         7 CUB7        0.0000 
     57 O          52.7774   56.5025   -4.1527 O.2       2 ALA2        0.0000 
     58 O          51.4301   57.1375   -3.9748 O.2       2 ALA2        0.0000 
     59 DU         50.0829   57.7725   -3.7970 H         7 CUB7        0.0000 
     60 O          50.7966   55.7788   -3.9230 O.2       2 ALA2        0.0000 
     61 DU         49.4493   56.4138   -3.7452 H         7 CUB7        0.0000 
     62 DU         48.1021   57.0488   -3.5673 H         7 CUB7        0.0000 
     63 DU         46.7548   57.6838   -3.3895 H         7 CUB7        0.0000 
     64 NZ         48.8158   55.0551   -3.6934 N.2       4 LYS4        0.0000 
     65 NZ         47.4685   55.6901   -3.5155 N.2       4 LYS4        0.0000 
     66 CA         51.7159   60.4326   -0.9235 C.3       6 GLY6        0.0000 
     67 OG         46.3268   62.9726   -0.2122 O.2       1 SER1        0.0000 
     68 CA         52.4297   58.4390   -1.0496 C.3       6 GLY6        0.0000 
     69 CA         51.0824   59.0740   -0.8717 C.3       6 GLY6        0.0000 
     70 DU         49.7351   59.7090   -0.6939 H         7 CUB7        0.0000 
     71 OG         48.3879   60.3440   -0.5160 O.2       1 SER1        0.0000 
     72 OG         47.0406   60.9789   -0.3382 O.2       1 SER1        0.0000 
     73 OG         45.6933   61.6139   -0.1604 O.2       1 SER1        0.0000 
     74 O          44.3460   62.2489    0.0175 O.2       2 ALA2        0.0000 
     75 O          51.7962   57.0803   -0.9978 O.2       2 ALA2        0.0000 
     76 DU         50.4489   57.7153   -0.8199 H         7 CUB7        0.0000 
     77 DU         47.7544   58.9853   -0.4642 H         7 CUB7        0.0000 
     78 DU         46.4071   59.6203   -0.2864 H         7 CUB7        0.0000 
     79 DU         45.0598   60.2553   -0.1085 H         7 CUB7        0.0000 
     80 O          43.7125   60.8903    0.0693 O.2       2 ALA2        0.0000 
     81 CA         52.5099   55.0867   -1.1238 C.3       6 GLY6        0.0000 
     82 DU         51.1627   55.7216   -0.9460 H         7 CUB7        0.0000 
     83 NZ         49.8154   56.3566   -0.7681 N.2       4 LYS4        0.0000 
     84 NZ         48.4681   56.9916   -0.5903 N.2       4 LYS4        0.0000 
     85 DU         47.1208   57.6266   -0.4124 H         7 CUB7        0.0000 
     86 N          45.7736   58.2616   -0.2346 N.2       2 ALA2        0.0000 
     87 O          43.0790   59.5316    0.1211 O.2       2 ALA2        0.0000 
     88 OD1        51.8764   53.7280   -1.0720 O.3       3 ASP3        0.0000 
     89 NZ         50.5291   54.3630   -0.8942 N.2       4 LYS4        0.0000 
     90 CA         51.8990   60.4040    0.5650 C.3       6 GLY6        0.0000 
     91 OG         50.5517   61.0390    0.7428 O.2       1 SER1        0.0000 
     92 N          52.6127   58.4104    0.4389 N.2       2 ALA2        0.0000 
     93 N          51.2654   59.0454    0.6168 N.2       2 ALA2        0.0000 
     94 OG         49.9182   59.6804    0.7946 O.2       1 SER1        0.0000 
     95 OG         48.5709   60.3154    0.9725 O.2       1 SER1        0.0000 
     96 OG         45.8763   61.5854    1.3282 O.2       1 SER1        0.0000 
     97 N          44.5291   62.2204    1.5060 N.2       2 ALA2        0.0000 
     98 CA         53.3265   56.4167    0.3129 C.3       6 GLY6        0.0000 
     99 CA         51.9792   57.0517    0.4907 C.3       6 GLY6        0.0000 
    100 DU         50.6319   57.6867    0.6686 H         7 CUB7        0.0000 
    101 DU         49.2846   58.3217    0.8464 H         7 CUB7        0.0000 
    102 DU         47.9374   58.9567    1.0243 H         7 CUB7        0.0000 
    103 OG         46.5901   59.5917    1.2021 O.2       1 SER1        0.0000 
    104 DU         45.2428   60.2267    1.3800 H         7 CUB7        0.0000 
    105 N          43.8955   60.8617    1.5578 N.2       2 ALA2        0.0000 
    106 CA         54.0402   54.4231    0.1869 C.3       6 GLY6        0.0000 
    107 CA         52.6930   55.0581    0.3647 C.3       6 GLY6        0.0000 
    108 NZ         51.3457   55.6931    0.5425 N.2       4 LYS4        0.0000 
    109 NZ         49.9984   56.3281    0.7204 N.2       4 LYS4        0.0000 
    110 NZ         48.6511   56.9631    0.8982 N.2       4 LYS4        0.0000 
    111 OD1        47.3038   57.5980    1.0761 O.3       3 ASP3        0.0000 
    112 OD1        45.9566   58.2330    1.2539 O.3       3 ASP3        0.0000 
    113 O          53.4067   53.0644    0.2387 O.2       2 ALA2        0.0000 
    114 O          52.0594   53.6994    0.4165 O.2       2 ALA2        0.0000 
    115 CA         50.7122   54.3344    0.5944 C.3       6 GLY6        0.0000 
    116 NZ         49.3649   54.9694    0.7722 N.2       4 LYS4        0.0000 
    117 O          52.7732   51.7057    0.2905 O.2       2 ALA2        0.0000 
    118 CA         51.4259   52.3407    0.4683 C.3       6 GLY6        0.0000 
    119 O          49.1200   60.2296    5.4380 O.2       2 ALA2        0.0000 
    120 O          49.8337   58.2360    5.3120 O.2       2 ALA2        0.0000 
    121 O          48.4864   58.8710    5.4898 O.2       2 ALA2        0.0000 
    122 CZ         47.1392   59.5060    5.6677 C.ar      5 PHE5        0.0000 
    123 OD1        47.8529   57.5123    5.5416 O.3       3 ASP3        0.0000 
    124 CA         48.3695   58.4646   -6.5962 C.3       6 GLY6        0.0000 
    125 O          47.7360   57.1060   -6.5444 O.2       2 ALA2        0.0000 
@<TRIPOS>BOND
@<TRIPOS>SUBSTRUCTURE
     1 SER1       12 GROUP   
     2 ALA2        1 GROUP   
     3 ASP3       23 GROUP   
     4 LYS4        7 GROUP   
     5 PHE5       38 GROUP   
     6 GLY6        2 GROUP   
     7 CUB7        4 GROUP   
@<TRIPOS>SET

