#    Name: 1p31_EPU_1_INTS_M
#    Modification time : Mon Mar 24 21:03:48 2014

@<TRIPOS>MOLECULE
1p31_EPU_1_INTS_M
   63     0    12     0     0
SMALL
NO_CHARGES


@<TRIPOS>ATOM
      1 O          51.4840   62.2660  -14.8770 O.2       1 ALC1        0.0000 
      2 O          50.7400   62.5180  -13.6830 O.2       9 ALL1        0.0000 
      3 O          52.2280   62.0140  -16.0710 O.2       5 ALP1        0.0000 
      4 CA         49.6440   64.6315  -12.3010 C.3       4 GLC5        0.0000 
      5 CA         48.9320   62.6590  -12.1470 C.3      12 GLL5        0.0000 
      6 CA         50.3560   66.6040  -12.4550 C.3       8 GLP5        0.0000 
      7 CA         50.7885   64.2885  -11.9100 C.3       4 GLC5        0.0000 
      8 CA         49.8340   62.5540  -11.0930 C.3      12 GLL5        0.0000 
      9 CA         51.7430   66.0230  -12.7270 C.3       8 GLP5        0.0000 
     10 N          53.5910   63.6690  -13.3205 N.am      2 SEC2        0.0000 
     11 N          52.8440   62.3090  -12.9390 N.am     10 SEL2        0.0000 
     12 N          54.3380   65.0290  -13.7020 N.am      6 SEP2        0.0000 
     13 CA         53.2380   60.8855  -10.9060 C.3       4 GLC5        0.0000 
     14 CA         52.1160   62.3170  -10.2640 C.3      12 GLL5        0.0000 
     15 CA         54.3600   59.4540  -11.5480 C.3       8 GLP5        0.0000 
     16 O          53.8110   64.5725  -10.1845 O.2       1 ALC1        0.0000 
     17 O          52.6450   64.5990   -9.5860 O.2       9 ALL1        0.0000 
     18 O          54.9770   64.5460  -10.7830 O.2       5 ALP1        0.0000 
     19 CA         53.3515   60.3605   -9.8720 C.3       4 GLC5        0.0000 
     20 CA         52.3430   61.2670   -8.1960 C.3      12 GLL5        0.0000 
     21 O          54.8095   62.7650   -9.1340 O.2       1 ALC1        0.0000 
     22 O          54.0130   62.9850   -7.9900 O.2       9 ALL1        0.0000 
     23 O          55.6060   62.5450  -10.2780 O.2       5 ALP1        0.0000 
     24 CA         49.7180   60.2865   -8.1125 C.3       4 GLC5        0.0000 
     25 CA         51.3150   60.7400   -7.1940 C.3      12 GLL5        0.0000 
     26 CA         48.1210   59.8330   -9.0310 C.3       8 GLP5        0.0000 
     27 N          53.6145   60.1305   -3.4370 N.am      2 SEC2        0.0000 
     28 N          52.3410   60.3260   -3.4870 N.am     10 SEL2        0.0000 
     29 N          54.8880   59.9350   -3.3870 N.am      6 SEP2        0.0000 
     30 N          54.3900   57.2870   -3.6080 N.am      2 SEC2        0.0000 
     31 N          53.7060   57.3830   -4.7340 N.am     10 SEL2        0.0000 
     32 N          55.0740   57.1910   -2.4820 N.am      6 SEP2        0.0000 
     33 N          54.7795   56.6605   -4.7935 N.am      2 SEC2        0.0000 
     34 N          55.8530   55.9380   -4.8530 N.am      6 SEP2        0.0000 
     35 N          50.9955   56.7820   -7.0905 N.am      2 SEC2        0.0000 
     36 N          51.5880   56.2820   -5.7650 N.am     10 SEL2        0.0000 
     37 N          50.4030   57.2820   -8.4160 N.am      6 SEP2        0.0000 
     38 CA         51.9805   54.6545   -3.7180 C.3       4 GLC5        0.0000 
     39 CA         50.8150   56.0440   -2.9470 C.3      12 GLL5        0.0000 
     40 CA         53.1460   53.2650   -4.4890 C.3       8 GLP5        0.0000 
     41 CA         53.6800   55.8735    1.3735 C.3       4 GLC5        0.0000 
     42 CA         52.5200   54.8190    0.1920 C.3      12 GLL5        0.0000 
     43 CA         54.8400   56.9280    2.5550 C.3       8 GLP5        0.0000 
     44 CA         47.0360   56.3960   -6.4120 C.3       4 GLC5        0.0000 
     45 CA         47.4450   58.0840   -5.3460 C.3      12 GLL5        0.0000 
     46 CA         46.6270   54.7080   -7.4780 C.3       8 GLP5        0.0000 
     47 CA         47.7830   58.9585   -7.1885 C.3       4 GLC5        0.0000 
     48 Zn         45.5965   56.8920    2.7145 Zn        3 ZIC7        0.0000 
     49 Zn         46.0730   57.1250    1.7450 Zn       11 ZIL7        0.0000 
     50 Zn         45.1200   56.6590    3.6840 Zn        7 ZIP7        0.0000 
     51 CA         45.3825   55.4180   -0.7320 C.3       4 GLC5        0.0000 
     52 CA         46.6880   56.7490   -0.9390 C.3      12 GLL5        0.0000 
     53 CA         44.0770   54.0870   -0.5250 C.3       8 GLP5        0.0000 
     54 CA         48.7520   61.2197  -10.3255 C.3       4 GLC5        0.0000 
     55 CA         50.0445   60.8593  -12.4510 C.3       4 GLC5        0.0000 
     56 CA         50.7060   59.1120  -13.2820 C.3       8 GLP5        0.0000 
     57 CA         51.8950   64.4430  -11.2340 C.3       4 GLC5        0.0000 
     58 CA         53.3626   60.7799   -6.7231 C.3       4 GLC5        0.0000 
     59 CA         52.6080   62.7560   -8.0090 C.3      12 GLL5        0.0000 
     60 CA         54.8300   60.1840   -5.7980 C.3       8 GLP5        0.0000 
     61 CA         53.7635   55.5393   -1.3712 C.3       4 GLC5        0.0000 
     62 CA         51.7600   55.8040   -0.7030 C.3      12 GLL5        0.0000 
     63 CA         55.3870   55.7670   -2.4870 C.3       8 GLP5        0.0000 
@<TRIPOS>BOND
@<TRIPOS>SUBSTRUCTURE
     1 ALC1        1 GROUP        1 X    ALC  0     ROOT ALC X 1
     2 SEC2       10 GROUP        1 X    SEC  0     **** SEC X 2
     3 ZIC7       48 GROUP        1 X    ZIC  0     **** ZIC X 5
     4 GLC5        4 GROUP        1 X    GLC  0     **** GLC X 6
     5 ALP1        3 GROUP        1 Y    ALP  0     ROOT ALP Y 8
     6 SEP2       12 GROUP        1 Y    SEP  0     **** SEP Y 9
     7 ZIP7       50 GROUP        1 Y    ZIP  0     **** ZIP Y 12
     8 GLP5        6 GROUP        1 Y    GLP  0     **** GLP Y 13
     9 ALL1        2 GROUP        1 Z    ALL  0     ROOT ALL Z 15
    10 SEL2       11 GROUP        1 Z    SEL  0     **** SEL Z 16
    11 ZIL7       49 GROUP        1 Z    ZIL  0     **** ZIL Z 19
    12 GLL5        5 GROUP        1 Z    GLL  0     **** GLL Z 20
@<TRIPOS>SET

