#    Name: 1p31_EPU_1_ligand
#    Modification time : Mon Mar 24 21:03:48 2014

@<TRIPOS>MOLECULE
1p31_EPU_1_ligand
   68    70     1     0     0
SMALL
NO_CHARGES


@<TRIPOS>ATOM
      1 N1U        51.1510   62.4410  -11.3540 N.am      1 EPU598      0.0000 
      2 C2U        51.6180   62.4220  -12.6830 C.2       1 EPU598      0.0000 
      3 N3U        50.7400   62.5180  -13.6830 N.am      1 EPU598      0.0000 
      4 C4U        49.4250   62.6420  -13.4460 C.2       1 EPU598      0.0000 
      5 C5U        48.9320   62.6590  -12.1470 C.2       1 EPU598      0.0000 
      6 C6U        49.8340   62.5540  -11.0930 C.2       1 EPU598      0.0000 
      7 O2U        52.8440   62.3090  -12.9390 O.2       1 EPU598      0.0000 
      8 O4U        48.6390   62.7330  -14.4080 O.2       1 EPU598      0.0000 
      9 C1D        52.1160   62.3170  -10.2640 C.3       1 EPU598      0.0000 
     10 C2D        51.9780   63.4090   -9.2180 C.3       1 EPU598      0.0000 
     11 O2D        52.6450   64.5990   -9.5860 O.3       1 EPU598      0.0000 
     12 C3D        52.6080   62.7560   -8.0090 C.3       1 EPU598      0.0000 
     13 C4D        52.3430   61.2670   -8.1960 C.3       1 EPU598      0.0000 
     14 O4D        51.8880   61.1020   -9.5440 O.3       1 EPU598      0.0000 
     15 O3D        54.0130   62.9850   -7.9900 O.3       1 EPU598      0.0000 
     16 C5D        51.3150   60.7400   -7.1940 C.3       1 EPU598      0.0000 
     17 O5D        51.6980   61.0790   -5.8490 O.3       1 EPU598      0.0000 
     18 PA         51.3590   60.1050   -4.6090 P.3       1 EPU598      0.0000 
     19 O1A        52.3410   60.3260   -3.4870 O.co2     1 EPU598      0.0000 
     20 O2A        49.8860   60.2190   -4.3260 O.co2     1 EPU598      0.0000 
     21 O3A        51.6380   58.7110   -5.3720 O.3       1 EPU598      0.0000 
     22 PB         52.2080   57.3100   -4.8270 P.3       1 EPU598      0.0000 
     23 O1B        53.7060   57.3830   -4.7340 O.co2     1 EPU598      0.0000 
     24 O2B        51.5880   56.2820   -5.7650 O.co2     1 EPU598      0.0000 
     25 C1         50.8150   56.0440   -2.9470 C.3       1 EPU598      0.0000 
     26 C2         49.5230   56.6200   -2.3700 C.3       1 EPU598      0.0000 
     27 C3         49.8220   57.3310   -1.0470 C.3       1 EPU598      0.0000 
     28 C4         50.4740   56.3500   -0.0660 C.3       1 EPU598      0.0000 
     29 C5         51.7600   55.8040   -0.7030 C.3       1 EPU598      0.0000 
     30 C6         52.5200   54.8190    0.1920 C.3       1 EPU598      0.0000 
     31 C7         47.9990   57.0880   -4.3300 C.2       1 EPU598      0.0000 
     32 C8         47.4450   58.0840   -5.3460 C.3       1 EPU598      0.0000 
     33 N2         48.9130   57.5490   -3.3070 N.am      1 EPU598      0.0000 
     34 O1         51.6380   57.1490   -3.3290 O.3       1 EPU598      0.0000 
     35 O3         48.6880   58.0680   -0.5340 O.3       1 EPU598      0.0000 
     36 O4         50.7600   56.9820    1.1770 O.3       1 EPU598      0.0000 
     37 O5         51.4610   55.1980   -1.9780 O.3       1 EPU598      0.0000 
     38 O6         51.6930   53.7300    0.5900 O.3       1 EPU598      0.0000 
     39 O7         47.6730   55.8820   -4.3670 O.2       1 EPU598      0.0000 
     40 C1E        47.2620   57.1710    1.3550 C.2       1 EPU598      0.0000 
     41 O1E        46.0730   57.1250    1.7450 O.co2     1 EPU598      0.0000 
     42 O2E        48.2210   57.1140    2.1630 O.co2     1 EPU598      0.0000 
     43 C2E        47.5270   57.3020   -0.0770 C.2       1 EPU598      0.0000 
     44 C3E        46.6880   56.7490   -0.9390 C.2       1 EPU598      0.0000 
     45 H          51.0826   62.4964  -14.6800 H         1 EPU598      0.0000 
     46 H          47.9334   62.7463  -11.9697 H         1 EPU598      0.0000 
     47 H          49.4767   62.5645  -10.1243 H         1 EPU598      0.0000 
     48 H          53.1258   62.3387  -10.6326 H         1 EPU598      0.0000 
     49 H          50.9374   63.5335   -9.0153 H         1 EPU598      0.0000 
     50 H          52.1113   63.0796   -7.1381 H         1 EPU598      0.0000 
     51 H          53.2774   60.7444   -8.0458 H         1 EPU598      0.0000 
     52 H          51.2418   59.6524   -7.3284 H         1 EPU598      0.0000 
     53 H          50.3396   61.1724   -7.4546 H         1 EPU598      0.0000 
     54 H          50.5316   55.4694   -3.8269 H         1 EPU598      0.0000 
     55 H          48.8522   55.7968   -2.1596 H         1 EPU598      0.0000 
     56 H          50.6431   58.0760   -1.3064 H         1 EPU598      0.0000 
     57 H          49.7950   55.5131    0.0584 H         1 EPU598      0.0000 
     58 H          52.4281   56.6715   -0.8702 H         1 EPU598      0.0000 
     59 H          52.8959   55.3855    1.0612 H         1 EPU598      0.0000 
     60 H          53.4043   54.4757   -0.3718 H         1 EPU598      0.0000 
     61 H          49.1340   58.5391   -3.2403 H         1 EPU598      0.0000 
     62 H          48.1734   58.5157   -5.8781 H         1 EPU598      0.0000 
     63 H          46.8269   57.6446   -5.9978 H         1 EPU598      0.0000 
     64 H          46.9305   58.8185   -4.9035 H         1 EPU598      0.0000 
     65 H          53.5022   64.2967  -10.0030 H         1 EPU598      0.0000 
     66 H          54.3638   62.5075   -8.7956 H         1 EPU598      0.0000 
     67 H          49.8659   57.2003    1.5680 H         1 EPU598      0.0000 
     68 H          51.0616   54.1168    1.2621 H         1 EPU598      0.0000 
@<TRIPOS>BOND
     1    2    1 1    
     2    6    1 1    
     3    9    1 1    
     4    3    2 1    
     5    7    2 2    
     6    4    3 1    
     7   45    3 1    
     8    5    4 1    
     9    8    4 2    
    10    6    5 2    
    11   46    5 1    
    12   47    6 1    
    13   10    9 1    
    14   14    9 1    
    15   48    9 1    
    16   11   10 1    
    17   12   10 1    
    18   49   10 1    
    19   65   11 1    
    20   13   12 1    
    21   15   12 1    
    22   50   12 1    
    23   14   13 1    
    24   16   13 1    
    25   51   13 1    
    26   66   15 1    
    27   17   16 1    
    28   52   16 1    
    29   53   16 1    
    30   18   17 1    
    31   19   18 ar   
    32   20   18 ar   
    33   21   18 1    
    34   22   21 1    
    35   23   22 ar   
    36   24   22 ar   
    37   34   22 1    
    38   26   25 1    
    39   34   25 1    
    40   37   25 1    
    41   54   25 1    
    42   27   26 1    
    43   33   26 1    
    44   55   26 1    
    45   28   27 1    
    46   35   27 1    
    47   56   27 1    
    48   29   28 1    
    49   36   28 1    
    50   57   28 1    
    51   30   29 1    
    52   37   29 1    
    53   58   29 1    
    54   38   30 1    
    55   59   30 1    
    56   60   30 1    
    57   32   31 1    
    58   33   31 am   
    59   39   31 2    
    60   62   32 1    
    61   63   32 1    
    62   64   32 1    
    63   61   33 1    
    64   43   35 1    
    65   67   36 1    
    66   68   38 1    
    67   41   40 ar   
    68   42   40 ar   
    69   43   40 1    
    70   44   43 2    
@<TRIPOS>SUBSTRUCTURE
     1 EPU598      1 GROUP   
@<TRIPOS>SET

