#    Name: 3FI8_2_CAVITY_N1_6.mol2
#    Modification time : Mon Mar 10 16:31:49 2014

@<TRIPOS>MOLECULE
3FI8_2_CAVITY_N1_6.mol2
   69     0     6     0     0
SMALL
NO_CHARGES


@<TRIPOS>ATOM
      1 CZ         29.7478   14.7456    5.1187 C.ar      4 PHE5        0.0000 
      2 CA         28.3202   15.5117    3.7493 C.3       5 GLY6        0.0000 
      3 O          26.8926   16.2778    2.3800 O.2       2 ALA2        0.0000 
      4 CZ         27.7416   15.0500    5.7373 C.ar      4 PHE5        0.0000 
      5 N          27.2607   14.6525    4.3733 N.2       2 ALA2        0.0000 
      6 N          26.3140   15.8161    4.3680 N.2       2 ALA2        0.0000 
      7 N          25.8331   15.4186    3.0039 N.2       2 ALA2        0.0000 
      8 DU         27.6441   14.9858    9.0894 H         6 CUB7        0.0000 
      9 CZ         28.1097   13.4248    7.7306 C.ar      4 PHE5        0.0000 
     10 DU         27.1631   14.5883    7.7253 H         6 CUB7        0.0000 
     11 DU         25.2698   16.9154    7.7148 H         6 CUB7        0.0000 
     12 CZ         27.6288   13.0273    6.3665 C.ar      4 PHE5        0.0000 
     13 CA         26.6821   14.1908    6.3613 C.3       5 GLY6        0.0000 
     14 DU         25.7355   15.3544    6.3560 H         6 CUB7        0.0000 
     15 DU         24.7889   16.5179    6.3507 H         6 CUB7        0.0000 
     16 N          26.2012   13.7934    4.9972 N.2       2 ALA2        0.0000 
     17 CA         25.2545   14.9569    4.9919 C.3       5 GLY6        0.0000 
     18 CA         24.3079   16.1205    4.9867 C.3       5 GLY6        0.0000 
     19 NZ         23.3612   17.2840    4.9814 N.2       3 LYS4        0.0000 
     20 CZ         28.4778   11.7995    9.7239 C.ar      4 PHE5        0.0000 
     21 CZ         27.5312   12.9631    9.7186 C.ar      4 PHE5        0.0000 
     22 CZ         26.5846   14.1266    9.7133 C.ar      4 PHE5        0.0000 
     23 CA         25.6379   15.2902    9.7081 C.3       5 GLY6        0.0000 
     24 N          24.6913   16.4537    9.7028 N.2       2 ALA2        0.0000 
     25 CZ         27.0502   12.5656    8.3545 C.ar      4 PHE5        0.0000 
     26 DU         26.1036   13.7291    8.3493 H         6 CUB7        0.0000 
     27 DU         25.1570   14.8927    8.3440 H         6 CUB7        0.0000 
     28 N          24.2103   16.0562    8.3387 N.2       2 ALA2        0.0000 
     29 N          23.2637   17.2198    8.3335 N.2       2 ALA2        0.0000 
     30 N          26.5693   12.1681    6.9905 N.2       2 ALA2        0.0000 
     31 N          25.6226   13.3317    6.9852 N.2       2 ALA2        0.0000 
     32 DU         24.6760   14.4952    6.9799 H         6 CUB7        0.0000 
     33 DU         23.7293   15.6588    6.9747 H         6 CUB7        0.0000 
     34 CA         22.7827   16.8223    6.9694 C.3       5 GLY6        0.0000 
     35 N          25.1417   12.9342    5.6211 N.2       2 ALA2        0.0000 
     36 CA         24.1950   14.0977    5.6159 C.3       5 GLY6        0.0000 
     37 NZ         23.2484   15.2613    5.6106 N.2       3 LYS4        0.0000 
     38 NZ         22.3017   16.4248    5.6053 N.2       3 LYS4        0.0000 
     39 CZ         25.9907   11.7064    8.9785 C.ar      4 PHE5        0.0000 
     40 CZ         25.0441   12.8700    8.9732 C.ar      4 PHE5        0.0000 
     41 CZ         24.0975   14.0335    8.9679 C.ar      4 PHE5        0.0000 
     42 N          23.1508   15.1971    8.9627 N.2       2 ALA2        0.0000 
     43 N          24.5631   12.4725    7.6091 N.2       2 ALA2        0.0000 
     44 DU         23.6165   13.6360    7.6039 H         6 CUB7        0.0000 
     45 CA         22.6698   14.7996    7.5986 C.3       5 GLY6        0.0000 
     46 N          23.1355   13.2386    6.2398 N.2       2 ALA2        0.0000 
     47 NZ         22.1889   14.4021    6.2345 N.2       3 LYS4        0.0000 
     48 CA         21.2422   15.5657    6.2293 C.3       5 GLY6        0.0000 
     49 N          22.6546   12.8411    4.8757 N.2       2 ALA2        0.0000 
     50 NZ         21.7079   14.0046    4.8705 N.2       3 LYS4        0.0000 
     51 CZ         23.9846   12.0108    9.5971 C.ar      4 PHE5        0.0000 
     52 CZ         23.0379   13.1744    9.5919 C.ar      4 PHE5        0.0000 
     53 CA         22.0913   14.3379    9.5866 C.3       5 GLY6        0.0000 
     54 N          23.5036   11.6133    8.2331 N.2       2 ALA2        0.0000 
     55 CZ         22.5570   12.7769    8.2278 C.ar      4 PHE5        0.0000 
     56 CA         21.6103   13.9404    8.2225 C.3       5 GLY6        0.0000 
     57 CA         20.6637   15.1040    8.2173 C.3       5 GLY6        0.0000 
     58 N          23.0227   11.2159    6.8690 N.2       2 ALA2        0.0000 
     59 N          22.0760   12.3794    6.8637 N.2       2 ALA2        0.0000 
     60 CA         21.1294   13.5430    6.8585 C.3       5 GLY6        0.0000 
     61 CA         20.1827   14.7065    6.8532 C.3       5 GLY6        0.0000 
     62 N          21.5951   11.9819    5.4996 N.2       2 ALA2        0.0000 
     63 CA         20.6484   13.1455    5.4944 C.3       5 GLY6        0.0000 
     64 CZ         22.4441   10.7542    8.8570 C.ar      4 PHE5        0.0000 
     65 CZ         21.4975   11.9177    8.8517 C.ar      4 PHE5        0.0000 
     66 OG         20.5508   13.0813    8.8465 O.2       1 SER1        0.0000 
     67 N          21.0165   11.5202    7.4876 N.2       2 ALA2        0.0000 
     68 CA         20.0699   12.6838    7.4824 C.3       5 GLY6        0.0000 
     69 CA         19.1232   13.8473    7.4771 C.3       5 GLY6        0.0000 
@<TRIPOS>BOND
@<TRIPOS>SUBSTRUCTURE
     1 SER1       66 GROUP   
     2 ALA2        3 GROUP   
     3 LYS4       19 GROUP   
     4 PHE5        1 GROUP   
     5 GLY6        2 GROUP   
     6 CUB7        8 GROUP   
@<TRIPOS>SET

