#    Name: 3fi8_OPE_2_INTS_M
#    Modification time : Tue Mar 25 04:10:35 2014

@<TRIPOS>MOLECULE
3fi8_OPE_2_INTS_M
   10     0     6     0     0
SMALL
NO_CHARGES


@<TRIPOS>ATOM
      1 CA         21.0095    9.6865    8.7130 C.3       2 GLC5        0.0000 
      2 CA         22.2100   11.3610    7.8580 C.3       6 GLL5        0.0000 
      3 CA         19.8090    8.0120    9.5680 C.3       4 GLP5        0.0000 
      4 CA         22.7495   11.1140    9.8250 C.3       2 GLC5        0.0000 
      5 CA         23.2890   10.8670   11.7920 C.3       4 GLP5        0.0000 
      6 O          21.3635    9.5320    6.6280 O.2       1 ALC1        0.0000 
      7 O          22.5390    9.9640    7.5430 O.2       5 ALL1        0.0000 
      8 O          20.1880    9.1000    5.7130 O.2       3 ALP1        0.0000 
      9 O          23.8970   10.0495    6.7405 O.2       1 ALC1        0.0000 
     10 O          25.2550   10.1350    5.9380 O.2       3 ALP1        0.0000 
@<TRIPOS>BOND
@<TRIPOS>SUBSTRUCTURE
     1 ALC1        6 GROUP        1 X    ALC  0     ROOT ALC X 1
     2 GLC5        1 GROUP        1 X    GLC  0     **** GLC X 6
     3 ALP1        8 GROUP        1 Y    ALP  0     ROOT ALP Y 8
     4 GLP5        3 GROUP        1 Y    GLP  0     **** GLP Y 13
     5 ALL1        7 GROUP        1 Z    ALL  0     ROOT ALL Z 15
     6 GLL5        2 GROUP        1 Z    GLL  0     **** GLL Z 20
@<TRIPOS>SET

