#    Name: 3fi8_OPE_2_ligand
#    Modification time : Tue Mar 25 04:10:35 2014

@<TRIPOS>MOLECULE
3fi8_OPE_2_ligand
   15    14     1     0     0
SMALL
NO_CHARGES


@<TRIPOS>ATOM
      1 CA         23.2620   12.2920    7.2370 C.3       1 OPE442      0.0000 
      2 CB         22.2100   11.3610    7.8580 C.3       1 OPE442      0.0000 
      3 O1         25.3220   14.7090    7.9980 O.co2     1 OPE442      0.0000 
      4 O2         26.0160   13.1530    6.0820 O.co2     1 OPE442      0.0000 
      5 O3         27.0050   12.7640    8.4760 O.co2     1 OPE442      0.0000 
      6 O4         24.4720   12.2470    8.0120 O.3       1 OPE442      0.0000 
      7 N          22.5390    9.9640    7.5430 N.4       1 OPE442      0.0000 
      8 P          25.6790   13.2900    7.6670 P.3       1 OPE442      0.0000 
      9 H          22.8381   13.3007    7.2078 H         1 OPE442      0.0000 
     10 H          23.4299   11.9640    6.2063 H         1 OPE442      0.0000 
     11 H          21.2345   11.6315    7.4546 H         1 OPE442      0.0000 
     12 H          22.2022   11.5255    8.9352 H         1 OPE442      0.0000 
     13 H          22.6894    9.4223    8.3700 H         1 OPE442      0.0000 
     14 H          21.8070    9.5169    7.0289 H         1 OPE442      0.0000 
     15 H          23.3700    9.8935    6.9913 H         1 OPE442      0.0000 
@<TRIPOS>BOND
     1    2    1 1    
     2    6    1 1    
     3    9    1 1    
     4   10    1 1    
     5    7    2 1    
     6   11    2 1    
     7   12    2 1    
     8    8    3 ar   
     9    8    4 ar   
    10    8    5 ar   
    11    8    6 1    
    12   13    7 1    
    13   14    7 1    
    14   15    7 1    
@<TRIPOS>SUBSTRUCTURE
     1 OPE442      1 GROUP   
@<TRIPOS>SET

