#    Name: 4g3e_0WC_1_INTS_M
#    Modification time : Mon Mar 24 21:19:40 2014

@<TRIPOS>MOLECULE
4g3e_0WC_1_INTS_M
   94     0     9     0     0
SMALL
NO_CHARGES


@<TRIPOS>ATOM
      1 CA         53.4795   30.7065   -3.8630 C.3       3 GLC5        0.0000 
      2 CA         53.9080   28.9350   -2.6430 C.3       9 GLL5        0.0000 
      3 CA         53.0510   32.4780   -5.0830 C.3       6 GLP5        0.0000 
      4 CA         56.1345   29.9840   -0.6140 C.3       3 GLC5        0.0000 
      5 CA         56.5000   27.9560    0.0230 C.3       9 GLL5        0.0000 
      6 CA         55.7690   32.0120   -1.2510 C.3       6 GLP5        0.0000 
      7 CA         54.7330   30.5725    0.6380 C.3       3 GLC5        0.0000 
      8 CA         54.2900   28.8100    0.1300 C.3       9 GLL5        0.0000 
      9 CA         55.1760   32.3350    1.1460 C.3       6 GLP5        0.0000 
     10 CA         54.5575   30.6465    1.8715 C.3       3 GLC5        0.0000 
     11 CA         53.9390   28.9580    2.5970 C.3       9 GLL5        0.0000 
     12 CA         51.8875   31.7810    3.7350 C.3       3 GLC5        0.0000 
     13 CA         51.9580   29.8610    3.4200 C.3       9 GLL5        0.0000 
     14 CA         51.8170   33.7010    4.0500 C.3       6 GLP5        0.0000 
     15 CA         51.6645   31.1335    1.9225 C.3       3 GLC5        0.0000 
     16 CA         51.3710   32.4060    0.4250 C.3       6 GLP5        0.0000 
     17 CA         51.7190   28.2745    3.0605 C.3       3 GLC5        0.0000 
     18 CA         51.4800   26.6880    2.7010 C.3       6 GLP5        0.0000 
     19 CA         53.2890   30.5225    6.3675 C.3       3 GLC5        0.0000 
     20 CA         53.4200   28.9810    4.9530 C.3       9 GLL5        0.0000 
     21 CA         53.1580   32.0640    7.7820 C.3       6 GLP5        0.0000 
     22 CA         51.9660   28.4220    6.4710 C.3       3 GLC5        0.0000 
     23 CA         50.5120   27.8630    7.9890 C.3       6 GLP5        0.0000 
     24 CA         51.0915   33.0905   -3.2130 C.3       3 GLC5        0.0000 
     25 CA         49.3540   32.1780   -3.3590 C.3       9 GLL5        0.0000 
     26 CA         52.8290   34.0030   -3.0670 C.3       6 GLP5        0.0000 
     27 CA         48.4880   33.5480   -3.5890 C.3       3 GLC5        0.0000 
     28 CA         47.6220   34.9180   -3.8190 C.3       6 GLP5        0.0000 
     29 CA         51.2335   31.5720   -4.2915 C.3       3 GLC5        0.0000 
     30 CA         49.4160   30.6660   -3.5000 C.3       9 GLL5        0.0000 
     31 CA         50.0590   28.9375   -4.2165 C.3       3 GLC5        0.0000 
     32 CA         50.7020   27.2090   -4.9330 C.3       6 GLP5        0.0000 
     33 N          49.2240   28.9270   -5.7980 N.am      2 SEC2        0.0000 
     34 N          49.3780   30.3720   -4.9060 N.am      8 SEL2        0.0000 
     35 N          49.0700   27.4820   -6.6900 N.am      5 SEP2        0.0000 
     36 O          49.9770   30.9360   -6.1170 O.2       1 ALC1        0.0000 
     37 O          49.3780   30.3720   -4.9060 O.2       7 ALL1        0.0000 
     38 O          50.5760   31.5000   -7.3280 O.2       4 ALP1        0.0000 
     39 CA         55.6595   30.3225    1.3090 C.3       3 GLC5        0.0000 
     40 CA         56.1430   28.3100    1.4720 C.3       9 GLL5        0.0000 
     41 CA         54.7835   26.7150    1.9100 C.3       3 GLC5        0.0000 
     42 CA         53.4240   25.1200    2.3480 C.3       6 GLP5        0.0000 
     43 O          49.7340   30.6820    4.0605 O.2       1 ALC1        0.0000 
     44 O          50.7500   30.4660    3.1620 O.2       7 ALL1        0.0000 
     45 O          48.7180   30.8980    4.9590 O.2       4 ALP1        0.0000 
     46 N          51.3600   29.3750    6.0110 N.am      2 SEC2        0.0000 
     47 N          52.2670   29.5790    4.6730 N.am      8 SEL2        0.0000 
     48 N          50.4530   29.1710    7.3490 N.am      5 SEP2        0.0000 
     49 CA         57.8480   28.5705    4.0330 C.3       3 GLC5        0.0000 
     50 CA         55.7950   27.8490    4.4090 C.3       9 GLL5        0.0000 
     51 CA         59.9010   29.2920    3.6570 C.3       6 GLP5        0.0000 
     52 CA         55.9015   26.4270    5.9210 C.3       3 GLC5        0.0000 
     53 CA         56.0080   25.0050    7.4330 C.3       6 GLP5        0.0000 
     54 CA         54.6095   26.4845    3.3785 C.3       3 GLC5        0.0000 
     55 N          49.0885   27.7935   -3.1135 N.am      2 SEC2        0.0000 
     56 N          48.1600   28.7400   -2.5510 N.am      8 SEL2        0.0000 
     57 N          50.0170   26.8470   -3.6760 N.am      5 SEP2        0.0000 
     58 CA         48.1230   26.9055   -1.9180 C.3       3 GLC5        0.0000 
     59 CA         47.0530   28.2990   -1.9770 C.3       9 GLL5        0.0000 
     60 CA         49.1930   25.5120   -1.8590 C.3       6 GLP5        0.0000 
     61 CA         45.5750   32.3820   -2.6775 C.3       3 GLC5        0.0000 
     62 CA         46.7740   30.7500   -2.3530 C.3       9 GLL5        0.0000 
     63 CA         44.3760   34.0140   -3.0020 C.3       6 GLP5        0.0000 
     64 CA         47.1980   32.8340   -3.0860 C.3       3 GLC5        0.0000 
     65 CA         48.2840   31.1585   -1.0335 C.3       3 GLC5        0.0000 
     66 CA         49.7940   31.5670    0.2860 C.3       6 GLP5        0.0000 
     67 CA         52.1085   31.2398   -3.8510 C.3       3 GLC5        0.0000 
     68 CA         50.6600   30.1950   -2.8550 C.3       9 GLL5        0.0000 
     69 CA         50.4800   30.7843   -1.1665 C.3       3 GLC5        0.0000 
     70 CA         50.6100   28.1382   -1.7385 C.3       3 GLC5        0.0000 
     71 CA         50.0540   26.2750   -0.8580 C.3       6 GLP5        0.0000 
     72 CA         50.9340   28.6052   -3.7760 C.3       3 GLC5        0.0000 
     73 CA         51.6720   29.8080   -2.3830 C.3       9 GLL5        0.0000 
     74 CA         52.1765   30.8580   -0.3352 C.3       3 GLC5        0.0000 
     75 CA         52.8860   29.3390   -1.7880 C.3       9 GLL5        0.0000 
     76 CA         55.4828   30.2313   -1.3465 C.3       3 GLC5        0.0000 
     77 CA         55.1010   28.4840   -2.1260 C.3       9 GLL5        0.0000 
     78 CA         53.2170   27.8117   -3.5504 C.3       3 GLC5        0.0000 
     79 CA         52.1850   26.8130   -4.9300 C.3       6 GLP5        0.0000 
     80 CA         57.7918   29.1200    1.6433 C.3       3 GLC5        0.0000 
     81 CA         59.2620   30.1070    2.5390 C.3       6 GLP5        0.0000 
     82 CA         57.7250   28.7073   -1.0653 C.3       3 GLC5        0.0000 
     83 CA         59.5540   29.2280   -1.7630 C.3       6 GLP5        0.0000 
     84 CA         52.5820   27.8667    1.2822 C.3       3 GLC5        0.0000 
     85 CA         52.6256   27.7890    3.4054 C.3       3 GLC5        0.0000 
     86 CA         45.2067   30.1755   -3.6275 C.3       3 GLC5        0.0000 
     87 CA         46.1210   29.2260   -1.7610 C.3       9 GLL5        0.0000 
     88 CA         43.9660   30.3630   -5.1980 C.3       6 GLP5        0.0000 
     89 CA         46.6400   27.9168   -0.1880 C.3       3 GLC5        0.0000 
     90 CA         46.6930   27.0710    1.4930 C.3       6 GLP5        0.0000 
     91 CA         49.5895   31.4945   -1.5717 C.3       3 GLC5        0.0000 
     92 CA         54.5033   30.6105   -1.2801 C.3       3 GLC5        0.0000 
     93 CA         52.8886   27.3096   -0.8268 C.3       3 GLC5        0.0000 
     94 CA         51.7630   25.7080   -0.8420 C.3       6 GLP5        0.0000 
@<TRIPOS>BOND
@<TRIPOS>SUBSTRUCTURE
     1 ALC1       36 GROUP        1 X    ALC  0     ROOT ALC X 1
     2 SEC2       33 GROUP        1 X    SEC  0     **** SEC X 2
     3 GLC5        1 GROUP        1 X    GLC  0     **** GLC X 6
     4 ALP1       38 GROUP        1 Y    ALP  0     ROOT ALP Y 8
     5 SEP2       35 GROUP        1 Y    SEP  0     **** SEP Y 9
     6 GLP5        3 GROUP        1 Y    GLP  0     **** GLP Y 13
     7 ALL1       37 GROUP        1 Z    ALL  0     ROOT ALL Z 15
     8 SEL2       34 GROUP        1 Z    SEL  0     **** SEL Z 16
     9 GLL5        2 GROUP        1 Z    GLL  0     **** GLL Z 20
@<TRIPOS>SET

