#    Name: 4g3e_0WC_1_ligand
#    Modification time : Mon Mar 24 21:19:40 2014

@<TRIPOS>MOLECULE
4g3e_0WC_1_ligand
   43    46     1     0     0
SMALL
NO_CHARGES


@<TRIPOS>ATOM
      1 C4         50.6600   30.1950   -2.8550 C.1       1 0WC703      0.0000 
      2 C5         51.6720   29.8080   -2.3830 C.1       1 0WC703      0.0000 
      3 C6         52.8860   29.3390   -1.7880 C.ar      1 0WC703      0.0000 
      4 C7         53.9080   28.9350   -2.6430 C.ar      1 0WC703      0.0000 
      5 C8         55.1010   28.4840   -2.1260 C.ar      1 0WC703      0.0000 
      6 C10        56.5000   27.9560    0.0230 C.3       1 0WC703      0.0000 
      7 N12        54.7150   28.6720    1.4660 N.pl3     1 0WC703      0.0000 
      8 C13        54.2900   28.8100    0.1300 C.ar      1 0WC703      0.0000 
      9 C15        53.9390   28.9580    2.5970 C.ar      1 0WC703      0.0000 
     10 C17        51.9580   29.8610    3.4200 C.ar      1 0WC703      0.0000 
     11 C20        53.4200   28.9810    4.9530 C.ar      1 0WC703      0.0000 
     12 C21        54.3060   28.6400    3.9360 C.ar      1 0WC703      0.0000 
     13 C26        46.1210   29.2260   -1.7610 C.2       1 0WC703      0.0000 
     14 C1         49.3540   32.1780   -3.3590 C.3       1 0WC703      0.0000 
     15 C2         49.4160   30.6660   -3.5000 C.3       1 0WC703      0.0000 
     16 O3         49.3780   30.3720   -4.9060 O.3       1 0WC703      0.0000 
     17 C9         55.2920   28.4170   -0.7580 C.ar      1 0WC703      0.0000 
     18 C11        56.1430   28.3100    1.4720 C.3       1 0WC703      0.0000 
     19 C14        53.0780   29.2810   -0.4030 C.ar      1 0WC703      0.0000 
     20 N16        52.7650   29.5630    2.4090 N.ar      1 0WC703      0.0000 
     21 N18        50.7500   30.4660    3.1620 N.pl3     1 0WC703      0.0000 
     22 N19        52.2670   29.5790    4.6730 N.ar      1 0WC703      0.0000 
     23 CL         55.7950   27.8490    4.4090 Cl        1 0WC703      0.0000 
     24 C23        48.2310   29.9950   -2.8330 C.2       1 0WC703      0.0000 
     25 N24        48.1600   28.7400   -2.5510 N.2       1 0WC703      0.0000 
     26 C25        47.0530   28.2990   -1.9770 C.2       1 0WC703      0.0000 
     27 S27        46.7740   30.7500   -2.3530 S.3       1 0WC703      0.0000 
     28 H          53.7639   28.9765   -3.6627 H         1 0WC703      0.0000 
     29 H          55.8628   28.1921   -2.7633 H         1 0WC703      0.0000 
     30 H          57.3600   28.5016   -0.2714 H         1 0WC703      0.0000 
     31 H          56.6173   26.9060   -0.0646 H         1 0WC703      0.0000 
     32 H          53.6887   28.7535    5.9347 H         1 0WC703      0.0000 
     33 H          45.2933   29.3098   -1.4193 H         1 0WC703      0.0000 
     34 H          56.7518   29.1400    1.7833 H         1 0WC703      0.0000 
     35 H          56.3218   27.4487    2.0905 H         1 0WC703      0.0000 
     36 H          52.3284   29.5846    0.2314 H         1 0WC703      0.0000 
     37 H          50.0232   30.2993    3.8283 H         1 0WC703      0.0000 
     38 H          50.7039   31.0198    2.3307 H         1 0WC703      0.0000 
     39 H          46.9186   27.3250   -1.7178 H         1 0WC703      0.0000 
     40 H          49.3481   32.4616   -2.4001 H         1 0WC703      0.0000 
     41 H          50.1376   32.6238   -3.7917 H         1 0WC703      0.0000 
     42 H          48.5308   32.5570   -3.7818 H         1 0WC703      0.0000 
     43 H          49.9932   31.0389   -5.3264 H         1 0WC703      0.0000 
@<TRIPOS>BOND
     1    2    1 3    
     2   15    1 1    
     3    3    2 1    
     4    4    3 ar   
     5   19    3 ar   
     6    5    4 ar   
     7   28    4 1    
     8   17    5 ar   
     9   29    5 1    
    10   17    6 1    
    11   18    6 1    
    12   30    6 1    
    13   31    6 1    
    14    8    7 1    
    15    9    7 1    
    16   18    7 1    
    17   17    8 ar   
    18   19    8 ar   
    19   12    9 ar   
    20   20    9 ar   
    21   20   10 ar   
    22   21   10 1    
    23   22   10 ar   
    24   12   11 ar   
    25   22   11 ar   
    26   32   11 1    
    27   23   12 1    
    28   26   13 2    
    29   27   13 1    
    30   33   13 1    
    31   15   14 1    
    32   40   14 1    
    33   41   14 1    
    34   42   14 1    
    35   16   15 1    
    36   24   15 1    
    37   43   16 1    
    38   34   18 1    
    39   35   18 1    
    40   36   19 1    
    41   37   21 1    
    42   38   21 1    
    43   25   24 2    
    44   27   24 1    
    45   26   25 1    
    46   39   26 1    
@<TRIPOS>SUBSTRUCTURE
     1 0WC703      1 GROUP   
@<TRIPOS>SET

