#    Name: 3kvk_6X1_2_INTS_M
#    Modification time : Mon Mar 24 20:36:50 2014

@<TRIPOS>MOLECULE
3kvk_6X1_2_INTS_M
   65     0     9     0     0
SMALL
NO_CHARGES


@<TRIPOS>ATOM
      1 CA         -5.1210   39.0525   -1.7925 C.3       3 GLC5        0.0000 
      2 CA         -3.3410   38.1000   -2.3580 C.3       9 GLL5        0.0000 
      3 CA         -6.9010   40.0050   -1.2270 C.3       6 GLP5        0.0000 
      4 NZ         -2.7475   38.7735   -6.6625 N.4       2 LYC4        0.0000 
      5 NZ         -1.6030   38.7780   -5.4550 N.4       8 LYL4        0.0000 
      6 NZ         -2.8070   38.8070   -8.6280 N.4       5 LYP4        0.0000 
      7 N          -1.6235   38.5940   -6.7940 N.am      1 SEC2        0.0000 
      8 N          -1.6030   38.7780   -5.4550 N.am      7 SEL2        0.0000 
      9 N          -1.6440   38.4100   -8.1330 N.am      4 SEP2        0.0000 
     10 N          -2.7475   38.7735   -6.6625 N.am      1 SEC2        0.0000 
     11 N          -3.8920   38.7690   -7.8700 N.am      4 SEP2        0.0000 
     12 NZ         -3.7110   38.2530   -6.5300 N.4       2 LYC4        0.0000 
     13 NZ         -3.5300   37.7370   -5.1900 N.4       8 LYL4        0.0000 
     14 N          -3.7110   38.2530   -6.5300 N.am      1 SEC2        0.0000 
     15 N          -3.5300   37.7370   -5.1900 N.am      7 SEL2        0.0000 
     16 CA         -9.1300   31.4810    0.1930 C.3       3 GLC5        0.0000 
     17 CA         -7.5150   32.0560   -1.2110 C.3       9 GLL5        0.0000 
     18 CA        -10.7450   30.9060    1.5970 C.3       6 GLP5        0.0000 
     19 CA         -8.3510   29.1710   -3.7675 C.3       3 GLC5        0.0000 
     20 CA         -8.3030   31.2510   -3.6710 C.3       9 GLL5        0.0000 
     21 CA         -8.3990   27.0910   -3.8640 C.3       6 GLP5        0.0000 
     22 CA         -6.8975   30.8390   -4.6210 C.3       3 GLC5        0.0000 
     23 CA         -5.4920   30.4270   -5.5710 C.3       6 GLP5        0.0000 
     24 CA         -8.2395   32.7305   -5.0650 C.3       3 GLC5        0.0000 
     25 CA         -8.1760   34.2100   -6.4590 C.3       6 GLP5        0.0000 
     26 CA         -7.4940   29.8230   -2.3210 C.3       3 GLC5        0.0000 
     27 CA         -6.6850   28.3950   -0.9710 C.3       6 GLP5        0.0000 
     28 CA         -7.8175   34.3305    0.4910 C.3       3 GLC5        0.0000 
     29 CA         -6.9590   32.6060    1.3670 C.3       9 GLL5        0.0000 
     30 CA         -8.6760   36.0550   -0.3850 C.3       6 GLP5        0.0000 
     31 CA         -8.8520   31.7560    1.4820 C.3       3 GLC5        0.0000 
     32 CA         -6.9330   34.2125    2.3610 C.3       3 GLC5        0.0000 
     33 CA         -6.9070   35.8190    3.3550 C.3       6 GLP5        0.0000 
     34 CA         -7.7380   31.3420    2.7685 C.3       3 GLC5        0.0000 
     35 CA         -8.5170   30.0780    4.1700 C.3       6 GLP5        0.0000 
     36 CA         -5.3300   32.6135    2.1035 C.3       3 GLC5        0.0000 
     37 CA         -3.7010   32.6210    2.8400 C.3       6 GLP5        0.0000 
     38 CA         -2.0308   37.2570   -2.0230 C.3       3 GLC5        0.0000 
     39 CA         -1.0970   36.0530   -1.2270 C.3       6 GLP5        0.0000 
     40 CA         -2.1928   40.6082   -4.4887 C.3       3 GLC5        0.0000 
     41 CA         -2.5880   38.8220   -3.2800 C.3       9 GLL5        0.0000 
     42 CA         -2.1880   41.8570   -5.9070 C.3       6 GLP5        0.0000 
     43 CA         -2.0105   37.5305   -1.0160 C.3       3 GLC5        0.0000 
     44 CA         -3.3130   38.4710   -1.0150 C.3       9 GLL5        0.0000 
     45 CA         -1.1075   41.8225   -2.5993 C.3       3 GLC5        0.0000 
     46 CA         -1.7770   40.2590   -1.5180 C.3       9 GLL5        0.0000 
     47 CA         -0.4230   43.5670   -3.0090 C.3       6 GLP5        0.0000 
     48 CA         -1.4445   38.0655   -1.7083 C.3       3 GLC5        0.0000 
     49 CA         -0.9730   41.0455    0.1633 C.3       3 GLC5        0.0000 
     50 CA         -2.5350   39.5450   -0.5950 C.3       9 GLL5        0.0000 
     51 CA          0.2100   42.1890    1.3830 C.3       6 GLP5        0.0000 
     52 CA         -4.1137   40.3522   -0.9923 C.3       3 GLC5        0.0000 
     53 CA         -5.8770   41.0710   -0.8230 C.3       6 GLP5        0.0000 
     54 CA         -7.5750   34.9562   -1.5045 C.3       3 GLC5        0.0000 
     55 CA         -6.7870   33.4160   -3.0610 C.3       9 GLL5        0.0000 
     56 CA         -7.6517   33.5340   -4.6395 C.3       3 GLC5        0.0000 
     57 CA         -4.9135   32.6588    0.5200 C.3       3 GLC5        0.0000 
     58 CA         -6.2190   34.0510   -0.8160 C.3       9 GLL5        0.0000 
     59 CA         -3.2730   31.8260    1.6130 C.3       6 GLP5        0.0000 
     60 CA         -5.7240   32.4784   -3.9143 C.3       3 GLC5        0.0000 
     61 CA         -6.1610   34.2990   -2.1870 C.3       9 GLL5        0.0000 
     62 CA         -4.4770   31.8780   -5.2270 C.3       6 GLP5        0.0000 
     63 CA         -7.0882   30.2865   -1.4330 C.3       3 GLC5        0.0000 
     64 CA         -7.4680   32.3000   -2.5790 C.3       9 GLL5        0.0000 
     65 CA         -7.8552   34.4144   -0.6385 C.3       3 GLC5        0.0000 
@<TRIPOS>BOND
@<TRIPOS>SUBSTRUCTURE
     1 SEC2        7 GROUP        1 X    SEC  0     ROOT SEC X 2
     2 LYC4        4 GROUP        1 X    LYC  0     **** LYC X 4
     3 GLC5        1 GROUP        1 X    GLC  0     **** GLC X 6
     4 SEP2        9 GROUP        1 Y    SEP  0     ROOT SEP Y 9
     5 LYP4        6 GROUP        1 Y    LYP  0     **** LYP Y 11
     6 GLP5        3 GROUP        1 Y    GLP  0     **** GLP Y 13
     7 SEL2        8 GROUP        1 Z    SEL  0     ROOT SEL Z 16
     8 LYL4        5 GROUP        1 Z    LYL  0     **** LYL Z 18
     9 GLL5        2 GROUP        1 Z    GLL  0     **** GLL Z 20
@<TRIPOS>SET

