#    Name: 3kvk_6X1_2_ligand
#    Modification time : Mon Mar 24 20:36:50 2014

@<TRIPOS>MOLECULE
3kvk_6X1_2_ligand
   30    31     1     0     0
SMALL
NO_CHARGES


@<TRIPOS>ATOM
      1 CAA        -3.3410   38.1000   -2.3580 C.ar      1 6X1401      0.0000 
      2 CAB        -2.5880   38.8220   -3.2800 C.ar      1 6X1401      0.0000 
      3 NAC        -4.0610   37.0660   -2.7950 N.am      1 6X1401      0.0000 
      4 CAD        -3.3130   38.4710   -1.0150 C.ar      1 6X1401      0.0000 
      5 CAE        -1.8070   39.8970   -2.8610 C.ar      1 6X1401      0.0000 
      6 CAF        -2.5710   38.4110   -4.7540 C.2       1 6X1401      0.0000 
      7 CAG        -4.7870   36.2380   -2.0450 C.2       1 6X1401      0.0000 
      8 CAH        -2.5350   39.5450   -0.5950 C.ar      1 6X1401      0.0000 
      9 CAI        -1.7770   40.2590   -1.5180 C.ar      1 6X1401      0.0000 
     10 OAJ        -1.6030   38.7780   -5.4550 O.co2     1 6X1401      0.0000 
     11 OAK        -3.5300   37.7370   -5.1900 O.co2     1 6X1401      0.0000 
     12 NAL        -5.4230   35.2770   -2.7130 N.am      1 6X1401      0.0000 
     13 OAM        -4.8800   36.3660   -0.8250 O.2       1 6X1401      0.0000 
     14 CAN        -6.1610   34.2990   -2.1870 C.ar      1 6X1401      0.0000 
     15 CAO        -6.7870   33.4160   -3.0610 C.ar      1 6X1401      0.0000 
     16 CAP        -6.2190   34.0510   -0.8160 C.ar      1 6X1401      0.0000 
     17 CAQ        -7.4680   32.3000   -2.5790 C.ar      1 6X1401      0.0000 
     18 CAR        -6.8890   32.9320   -0.3300 C.ar      1 6X1401      0.0000 
     19 CAS        -7.5150   32.0560   -1.2110 C.ar      1 6X1401      0.0000 
     20 CLAT       -8.3030   31.2510   -3.6710 Cl        1 6X1401      0.0000 
     21 CLAU       -6.9590   32.6060    1.3670 Cl        1 6X1401      0.0000 
     22 H          -4.0546   36.8808   -3.8694 H         1 6X1401      0.0000 
     23 H          -3.8738   37.9446   -0.3280 H         1 6X1401      0.0000 
     24 H          -1.2508   40.4244   -3.5478 H         1 6X1401      0.0000 
     25 H          -2.5199   39.8116    0.3980 H         1 6X1401      0.0000 
     26 H          -1.1990   41.0483   -1.2096 H         1 6X1401      0.0000 
     27 H          -5.3310   35.2911   -3.8013 H         1 6X1401      0.0000 
     28 H          -6.7471   33.5887   -4.0785 H         1 6X1401      0.0000 
     29 H          -5.7626   34.7009   -0.1595 H         1 6X1401      0.0000 
     30 H          -8.0104   31.2314   -0.8515 H         1 6X1401      0.0000 
@<TRIPOS>BOND
     1    2    1 ar   
     2    3    1 1    
     3    4    1 ar   
     4    5    2 ar   
     5    6    2 1    
     6    7    3 am   
     7   22    3 1    
     8    8    4 ar   
     9   23    4 1    
    10    9    5 ar   
    11   24    5 1    
    12   10    6 ar   
    13   11    6 ar   
    14   12    7 am   
    15   13    7 2    
    16    9    8 ar   
    17   25    8 1    
    18   26    9 1    
    19   14   12 1    
    20   27   12 1    
    21   15   14 ar   
    22   16   14 ar   
    23   17   15 ar   
    24   28   15 1    
    25   18   16 ar   
    26   29   16 1    
    27   19   17 ar   
    28   20   17 1    
    29   19   18 ar   
    30   21   18 1    
    31   30   19 1    
@<TRIPOS>SUBSTRUCTURE
     1 6X1401      1 GROUP   
@<TRIPOS>SET

