#    Name: 2yqu_FAD_1_INTS_M
#    Modification time : Tue Mar 25 09:36:03 2014

@<TRIPOS>MOLECULE
2yqu_FAD_1_INTS_M
  146     0     9     0     0
SMALL
NO_CHARGES


@<TRIPOS>ATOM
      1 N          44.0530   15.8935   75.6955 N.am      2 SEC2        0.0000 
      2 N          45.3780   15.7280   75.5700 N.am      8 SEL2        0.0000 
      3 N          42.7280   16.0590   75.8210 N.am      5 SEP2        0.0000 
      4 N          44.3455   16.3840   73.1135 N.am      2 SEC2        0.0000 
      5 N          45.7450   16.8270   73.3320 N.am      8 SEL2        0.0000 
      6 N          42.9460   15.9410   72.8950 N.am      5 SEP2        0.0000 
      7 CA         48.0780   12.3820   75.8305 C.3       3 GLC5        0.0000 
      8 CA         46.7460   13.2950   74.6180 C.3       9 GLL5        0.0000 
      9 CA         49.4100   11.4690   77.0430 C.3       6 GLP5        0.0000 
     10 CA         47.4395   14.1315   76.2130 C.3       3 GLC5        0.0000 
     11 CA         48.1330   14.9680   77.8080 C.3       6 GLP5        0.0000 
     12 CA         47.6565   11.0480   73.1455 C.3       3 GLC5        0.0000 
     13 CA         46.1970   12.0590   73.9380 C.3       9 GLL5        0.0000 
     14 CA         49.1160   10.0370   72.3530 C.3       6 GLP5        0.0000 
     15 CA         44.2775   13.3065   72.5835 C.3       3 GLC5        0.0000 
     16 CA         44.6860   11.9140   74.0990 C.3       9 GLL5        0.0000 
     17 CA         43.8690   14.6990   71.0680 C.3       6 GLP5        0.0000 
     18 N          42.7160   12.2870   73.0330 N.am      2 SEC2        0.0000 
     19 N          44.0670   11.8450   72.8340 N.am      8 SEL2        0.0000 
     20 N          41.3650   12.7290   73.2320 N.am      5 SEP2        0.0000 
     21 O          43.9300   10.3400   72.4260 O.2       1 ALC1        0.0000 
     22 O          44.0670   11.8450   72.8340 O.2       7 ALL1        0.0000 
     23 O          43.7930    8.8350   72.0180 O.2       4 ALP1        0.0000 
     24 O          44.7310   10.9640   72.0230 O.2       1 ALC1        0.0000 
     25 O          45.3950   10.0830   71.2120 O.2       4 ALP1        0.0000 
     26 CA         43.7140    9.0160   76.0215 C.3       3 GLC5        0.0000 
     27 CA         44.5060   10.6170   74.8640 C.3       9 GLL5        0.0000 
     28 CA         42.9220    7.4150   77.1790 C.3       6 GLP5        0.0000 
     29 O          43.5980    9.3550   73.2065 O.2       1 ALC1        0.0000 
     30 O          43.4030    9.8750   74.3950 O.2       7 ALL1        0.0000 
     31 CA         47.4690    9.9680   73.4835 C.3       3 GLC5        0.0000 
     32 CA         45.8220    9.8990   74.6140 C.3       9 GLL5        0.0000 
     33 CA         45.0645    6.6130   76.5250 C.3       3 GLC5        0.0000 
     34 CA         47.0930    7.1350   76.5920 C.3       9 GLL5        0.0000 
     35 CA         43.0360    6.0910   76.4580 C.3       6 GLP5        0.0000 
     36 CA         46.6495    4.0635   77.3385 C.3       3 GLC5        0.0000 
     37 CA         47.5280    5.8130   76.6140 C.3       9 GLL5        0.0000 
     38 CA         45.7710    2.3140   78.0630 C.3       6 GLP5        0.0000 
     39 CA         49.0115    4.3825   75.7320 C.3       3 GLC5        0.0000 
     40 CA         50.4950    2.9520   74.8500 C.3       6 GLP5        0.0000 
     41 O          48.8790    3.9990   77.7395 O.2       1 ALC1        0.0000 
     42 O          48.0990    5.2650   77.6840 O.2       7 ALL1        0.0000 
     43 O          49.6590    2.7330   77.7950 O.2       4 ALP1        0.0000 
     44 N          47.8530    3.7235   75.4170 N.am      2 SEC2        0.0000 
     45 N          47.5110    5.1140   75.4350 N.am      8 SEL2        0.0000 
     46 N          48.1950    2.3330   75.3990 N.am      5 SEP2        0.0000 
     47 CA         49.0370    6.1545   74.6680 C.3       3 GLC5        0.0000 
     48 CA         47.0860    5.6640   74.2510 C.3       9 GLL5        0.0000 
     49 CA         50.9880    6.6450   75.0850 C.3       6 GLP5        0.0000 
     50 CA         47.9310    4.2050   72.8540 C.3       3 GLC5        0.0000 
     51 CA         48.7760    2.7460   71.4570 C.3       6 GLP5        0.0000 
     52 CA         46.6130    6.0515   72.4410 C.3       3 GLC5        0.0000 
     53 CA         46.1400    6.4390   70.6310 C.3       6 GLP5        0.0000 
     54 CA         45.1800    5.3020   74.2420 C.3       3 GLC5        0.0000 
     55 CA         43.2740    4.9400   74.2330 C.3       6 GLP5        0.0000 
     56 CA         46.4405    3.8625   74.8950 C.3       3 GLC5        0.0000 
     57 CA         45.7950    2.0610   75.5390 C.3       6 GLP5        0.0000 
     58 CA         48.7905    4.3080   74.5505 C.3       3 GLC5        0.0000 
     59 N          45.5240    6.3945   73.2130 N.am      2 SEC2        0.0000 
     60 N          46.6650    6.9770   74.2360 N.am      8 SEL2        0.0000 
     61 N          44.3830    5.8120   72.1900 N.am      5 SEP2        0.0000 
     62 CA         44.8750    6.9775   75.1685 C.3       3 GLC5        0.0000 
     63 CA         46.6640    7.6800   75.3920 C.3       9 GLL5        0.0000 
     64 CA         43.0860    6.2750   74.9450 C.3       6 GLP5        0.0000 
     65 N          46.5365   24.4820   73.7535 N.am      2 SEC2        0.0000 
     66 N          44.9220   25.0340   74.1200 N.am      8 SEL2        0.0000 
     67 N          48.1510   23.9300   73.3870 N.am      5 SEP2        0.0000 
     68 N          47.3365   25.0890   73.2170 N.am      2 SEC2        0.0000 
     69 N          46.5220   26.2480   73.0470 N.am      8 SEL2        0.0000 
     70 O          44.9005   27.3580   71.4800 O.2       1 ALC1        0.0000 
     71 O          44.3900   26.9060   72.7550 O.2       7 ALL1        0.0000 
     72 O          45.4110   27.8100   70.2050 O.2       4 ALP1        0.0000 
     73 N          40.9570   27.5935   72.5380 N.am      2 SEC2        0.0000 
     74 N          42.2620   27.3840   72.3600 N.am      8 SEL2        0.0000 
     75 N          39.6520   27.8030   72.7160 N.am      5 SEP2        0.0000 
     76 N          40.4635   26.6590   73.4210 N.am      2 SEC2        0.0000 
     77 N          41.2750   25.5150   74.1260 N.am      8 SEL2        0.0000 
     78 CA         37.9145   25.0025   74.0520 C.3       3 GLC5        0.0000 
     79 CA         39.5270   24.2840   75.2280 C.3       9 GLL5        0.0000 
     80 CA         36.3020   25.7210   72.8760 C.3       6 GLP5        0.0000 
     81 CA         36.6520   22.2665   77.7405 C.3       3 GLC5        0.0000 
     82 CA         37.6370   23.0080   76.2490 C.3       9 GLL5        0.0000 
     83 CA         35.6670   21.5250   79.2320 C.3       6 GLP5        0.0000 
     84 CA         37.6810   23.8550   77.9140 C.3       3 GLC5        0.0000 
     85 CA         37.7250   24.7020   79.5790 C.3       6 GLP5        0.0000 
     86 CA         35.7920   23.8125   77.2230 C.3       3 GLC5        0.0000 
     87 CA         33.9470   24.6170   78.1970 C.3       6 GLP5        0.0000 
     88 CA         40.6135   19.5755   76.4690 C.3       3 GLC5        0.0000 
     89 CA         39.6370   21.0500   77.2150 C.3       9 GLL5        0.0000 
     90 CA         41.5900   18.1010   75.7230 C.3       6 GLP5        0.0000 
     91 CA         37.6520   21.2875   78.2235 C.3       3 GLC5        0.0000 
     92 CA         41.0255   20.8550   78.9335 C.3       3 GLC5        0.0000 
     93 CA         42.4140   20.6600   80.6520 C.3       6 GLP5        0.0000 
     94 CA         41.5005   20.3210   76.0210 C.3       3 GLC5        0.0000 
     95 CA         41.4110   22.5410   76.3190 C.3       9 GLL5        0.0000 
     96 CA         42.5555   23.4825   73.4890 C.3       3 GLC5        0.0000 
     97 CA         41.8340   23.5970   75.5020 C.3       9 GLL5        0.0000 
     98 CA         43.2770   23.3680   71.4760 C.3       6 GLP5        0.0000 
     99 CA         44.3385   21.1135   72.9085 C.3       3 GLC5        0.0000 
    100 CA         44.7300   21.9050   74.8970 C.3       9 GLL5        0.0000 
    101 CA         43.9470   20.3220   70.9200 C.3       6 GLP5        0.0000 
    102 CA         44.0035   22.6365   73.1865 C.3       3 GLC5        0.0000 
    103 O          46.8550   20.8120   77.1165 O.2       1 ALC1        0.0000 
    104 O          46.9260   21.9510   75.8740 O.2       7 ALL1        0.0000 
    105 O          46.7840   19.6730   78.3590 O.2       4 ALP1        0.0000 
    106 O          47.7825   21.2995   76.8465 O.2       1 ALC1        0.0000 
    107 O          48.6390   20.6480   77.8190 O.2       4 ALP1        0.0000 
    108 CA         45.2100   20.2510   72.6330 C.3       3 GLC5        0.0000 
    109 CA         46.4730   20.1800   74.3460 C.3       9 GLL5        0.0000 
    110 N          44.1040   18.9680   73.0340 N.am      2 SEC2        0.0000 
    111 N          45.4830   19.3070   73.8590 N.am      8 SEL2        0.0000 
    112 N          42.7250   18.6290   72.2090 N.am      5 SEP2        0.0000 
    113 CA         48.2175   18.9590   76.9265 C.3       3 GLC5        0.0000 
    114 CA         47.6860   19.4050   74.8740 C.3       9 GLL5        0.0000 
    115 CA         48.7490   18.5130   78.9790 C.3       6 GLP5        0.0000 
    116 CA         49.5785   19.7325   74.1095 C.3       3 GLC5        0.0000 
    117 CA         51.4710   20.0600   73.3450 C.3       6 GLP5        0.0000 
    118 N          50.1235   17.0115   71.8895 N.am      2 SEC2        0.0000 
    119 N          49.3680   16.4510   73.0770 N.am      8 SEL2        0.0000 
    120 N          50.8790   17.5720   70.7020 N.am      5 SEP2        0.0000 
    121 N          50.4255   17.9735   76.6555 N.am      2 SEC2        0.0000 
    122 N          49.8950   17.3540   75.4080 N.am      8 SEL2        0.0000 
    123 N          50.9560   18.5930   77.9030 N.am      5 SEP2        0.0000 
    124 CA         48.9876    6.8610   75.5412 C.3       3 GLC5        0.0000 
    125 CA         48.5636    8.1030   76.7943 C.3       3 GLC5        0.0000 
    126 CA         50.1400    9.1290   77.5910 C.3       6 GLP5        0.0000 
    127 CA         39.6760   22.8297   74.1478 C.3       3 GLC5        0.0000 
    128 CA         40.8850   24.4610   74.9490 C.3       9 GLL5        0.0000 
    129 CA         39.1460   21.2870   73.2070 C.3       6 GLP5        0.0000 
    130 CA         40.3720   24.2732   73.1118 C.3       3 GLC5        0.0000 
    131 CA         40.5380   24.1740   71.1350 C.3       6 GLP5        0.0000 
    132 CA         38.7608   22.2030   74.6797 C.3       3 GLC5        0.0000 
    133 CA         39.1140   23.2300   76.0560 C.3       9 GLL5        0.0000 
    134 CA         39.9025   24.5331   77.4031 C.3       3 GLC5        0.0000 
    135 CA         40.1450   25.2650   79.2340 C.3       6 GLP5        0.0000 
    136 CA         39.4960   21.4958   75.0563 C.3       3 GLC5        0.0000 
    137 CA         40.0550   22.3590   76.5960 C.3       9 GLL5        0.0000 
    138 CA         40.3305   22.8612   78.3227 C.3       3 GLC5        0.0000 
    139 CA         40.8150   24.0180   79.7400 C.3       6 GLP5        0.0000 
    140 CA         40.3843   22.1780   74.5588 C.3       3 GLC5        0.0000 
    141 CA         41.2188   23.5435   77.8252 C.3       3 GLC5        0.0000 
    142 CA         47.2500   21.8445   73.5637 C.3       3 GLC5        0.0000 
    143 CA         45.8990   21.0840   75.4310 C.3       9 GLL5        0.0000 
    144 CA         48.3140   23.0570   72.2390 C.3       6 GLP5        0.0000 
    145 CA         47.1972   19.6593   72.5770 C.3       3 GLC5        0.0000 
    146 CA         47.3150   19.5260   70.5440 C.3       6 GLP5        0.0000 
@<TRIPOS>BOND
@<TRIPOS>SUBSTRUCTURE
     1 ALC1       21 GROUP        1 X    ALC  0     ROOT ALC X 1
     2 SEC2        1 GROUP        1 X    SEC  0     **** SEC X 2
     3 GLC5        7 GROUP        1 X    GLC  0     **** GLC X 6
     4 ALP1       23 GROUP        1 Y    ALP  0     ROOT ALP Y 8
     5 SEP2        3 GROUP        1 Y    SEP  0     **** SEP Y 9
     6 GLP5        9 GROUP        1 Y    GLP  0     **** GLP Y 13
     7 ALL1       22 GROUP        1 Z    ALL  0     ROOT ALL Z 15
     8 SEL2        2 GROUP        1 Z    SEL  0     **** SEL Z 16
     9 GLL5        8 GROUP        1 Z    GLL  0     **** GLL Z 20
@<TRIPOS>SET

