#    Name: 2yqu_FAD_1_ligand
#    Modification time : Tue Mar 25 09:36:04 2014

@<TRIPOS>MOLECULE
2yqu_FAD_1_ligand
   84    89     1     0     0
SMALL
NO_CHARGES


@<TRIPOS>ATOM
      1 PA         46.2650   15.8420   74.3870 P.3       1 FAD1601     0.0000 
      2 O1A        45.3780   15.7280   75.5700 O.co2     1 FAD1601     0.0000 
      3 O2A        45.7450   16.8270   73.3320 O.co2     1 FAD1601     0.0000 
      4 O5B        46.4900   14.3840   73.7660 O.3       1 FAD1601     0.0000 
      5 C5B        46.7460   13.2950   74.6180 C.3       1 FAD1601     0.0000 
      6 C4B        46.1970   12.0590   73.9380 C.3       1 FAD1601     0.0000 
      7 O4B        46.7850   10.9270   74.5460 O.3       1 FAD1601     0.0000 
      8 C3B        44.6860   11.9140   74.0990 C.3       1 FAD1601     0.0000 
      9 O3B        44.0670   11.8450   72.8340 O.3       1 FAD1601     0.0000 
     10 C2B        44.5060   10.6170   74.8640 C.3       1 FAD1601     0.0000 
     11 O2B        43.4030    9.8750   74.3950 O.3       1 FAD1601     0.0000 
     12 C1B        45.8220    9.8990   74.6140 C.3       1 FAD1601     0.0000 
     13 N9A        46.2870    8.9660   75.6450 N.pl3     1 FAD1601     0.0000 
     14 C8A        46.4980    9.2050   76.9790 C.2       1 FAD1601     0.0000 
     15 N7A        46.9880    8.0880   77.5470 N.2       1 FAD1601     0.0000 
     16 C5A        47.0930    7.1350   76.5920 C.ar      1 FAD1601     0.0000 
     17 C6A        47.5280    5.8130   76.6140 C.ar      1 FAD1601     0.0000 
     18 N6A        48.0990    5.2650   77.6840 N.pl3     1 FAD1601     0.0000 
     19 N1A        47.5110    5.1140   75.4350 N.ar      1 FAD1601     0.0000 
     20 C2A        47.0860    5.6640   74.2510 C.ar      1 FAD1601     0.0000 
     21 N3A        46.6650    6.9770   74.2360 N.ar      1 FAD1601     0.0000 
     22 C4A        46.6640    7.6800   75.3920 C.ar      1 FAD1601     0.0000 
     23 N1         44.9220   25.0340   74.1200 N.2       1 FAD1601     0.0000 
     24 C2         45.3270   26.0650   73.3000 C.2       1 FAD1601     0.0000 
     25 O2         46.5220   26.2480   73.0470 O.2       1 FAD1601     0.0000 
     26 N3         44.3900   26.9060   72.7550 N.am      1 FAD1601     0.0000 
     27 C4         43.0510   26.7360   73.0270 C.2       1 FAD1601     0.0000 
     28 O4         42.2620   27.3840   72.3600 O.2       1 FAD1601     0.0000 
     29 C4X        42.6210   25.6950   73.8490 C.2       1 FAD1601     0.0000 
     30 N5         41.2750   25.5150   74.1260 N.2       1 FAD1601     0.0000 
     31 C5X        40.8850   24.4610   74.9490 C.ar      1 FAD1601     0.0000 
     32 C6         39.5270   24.2840   75.2280 C.ar      1 FAD1601     0.0000 
     33 C7         39.1140   23.2300   76.0560 C.ar      1 FAD1601     0.0000 
     34 C7M        37.6370   23.0080   76.2490 C.3       1 FAD1601     0.0000 
     35 C8         40.0550   22.3590   76.5960 C.ar      1 FAD1601     0.0000 
     36 C8M        39.6370   21.0500   77.2150 C.3       1 FAD1601     0.0000 
     37 C9         41.4110   22.5410   76.3190 C.ar      1 FAD1601     0.0000 
     38 C9A        41.8340   23.5970   75.5020 C.ar      1 FAD1601     0.0000 
     39 N10        43.1900   23.7950   75.2300 N.pl3     1 FAD1601     0.0000 
     40 C10        43.5720   24.8400   74.4020 C.2       1 FAD1601     0.0000 
     41 C1'        44.2750   22.9810   75.8870 C.3       1 FAD1601     0.0000 
     42 C2'        44.7300   21.9050   74.8970 C.3       1 FAD1601     0.0000 
     43 O2'        43.6420   21.0700   74.5310 O.3       1 FAD1601     0.0000 
     44 C3'        45.8990   21.0840   75.4310 C.3       1 FAD1601     0.0000 
     45 O3'        46.9260   21.9510   75.8740 O.3       1 FAD1601     0.0000 
     46 C4'        46.4730   20.1800   74.3460 C.3       1 FAD1601     0.0000 
     47 O4'        45.4830   19.3070   73.8590 O.3       1 FAD1601     0.0000 
     48 C5'        47.6860   19.4050   74.8740 C.3       1 FAD1601     0.0000 
     49 O5'        48.1600   18.5140   73.8890 O.3       1 FAD1601     0.0000 
     50 P          48.8710   17.1350   74.3090 P.3       1 FAD1601     0.0000 
     51 O1P        49.3680   16.4510   73.0770 O.co2     1 FAD1601     0.0000 
     52 O2P        49.8950   17.3540   75.4080 O.co2     1 FAD1601     0.0000 
     53 O3P        47.7200   16.2170   74.9700 O.3       1 FAD1601     0.0000 
     54 H          46.2494   13.3971   75.5826 H         1 FAD1601     0.0000 
     55 H          47.8116   13.1413   74.7863 H         1 FAD1601     0.0000 
     56 H          46.4283   12.0964   72.8916 H         1 FAD1601     0.0000 
     57 H          44.3407   12.7153   74.7043 H         1 FAD1601     0.0000 
     58 H          44.4605   10.8563   75.9047 H         1 FAD1601     0.0000 
     59 H          45.7649    9.4062   73.6522 H         1 FAD1601     0.0000 
     60 H          46.3195   10.0423   77.4232 H         1 FAD1601     0.0000 
     61 H          48.2000    5.8594   78.4818 H         1 FAD1601     0.0000 
     62 H          48.3755    4.3082   77.5937 H         1 FAD1601     0.0000 
     63 H          47.0807    5.1082   73.3880 H         1 FAD1601     0.0000 
     64 H          44.6914   27.6791   72.1309 H         1 FAD1601     0.0000 
     65 H          38.8320   24.9226   74.8290 H         1 FAD1601     0.0000 
     66 H          42.1067   21.8955   76.7171 H         1 FAD1601     0.0000 
     67 H          43.8927   22.5035   76.7765 H         1 FAD1601     0.0000 
     68 H          45.1151   23.6130   76.1325 H         1 FAD1601     0.0000 
     69 H          45.1013   22.4425   73.9990 H         1 FAD1601     0.0000 
     70 H          45.5404   20.4599   76.2333 H         1 FAD1601     0.0000 
     71 H          46.8399   20.8372   73.5439 H         1 FAD1601     0.0000 
     72 H          47.3680   18.8836   75.7885 H         1 FAD1601     0.0000 
     73 H          48.4452   20.1452   75.1657 H         1 FAD1601     0.0000 
     74 H          37.4539   22.2360   76.8577 H         1 FAD1601     0.0000 
     75 H          37.1902   23.8085   76.6484 H         1 FAD1601     0.0000 
     76 H          37.1742   22.8152   75.3837 H         1 FAD1601     0.0000 
     77 H          40.4217   20.5351   77.5602 H         1 FAD1601     0.0000 
     78 H          39.0136   21.1856   77.9851 H         1 FAD1601     0.0000 
     79 H          39.1667   20.4616   76.5573 H         1 FAD1601     0.0000 
     80 H          44.6006   11.1725   72.3212 H         1 FAD1601     0.0000 
     81 H          43.6718    9.5592   73.4850 H         1 FAD1601     0.0000 
     82 H          44.0639   20.2287   74.1930 H         1 FAD1601     0.0000 
     83 H          47.4323   21.4245   76.5569 H         1 FAD1601     0.0000 
     84 H          45.9505   18.4326   73.7288 H         1 FAD1601     0.0000 
@<TRIPOS>BOND
     1    2    1 ar   
     2    3    1 ar   
     3    4    1 1    
     4   53    1 1    
     5    5    4 1    
     6    6    5 1    
     7   54    5 1    
     8   55    5 1    
     9    7    6 1    
    10    8    6 1    
    11   56    6 1    
    12   12    7 1    
    13    9    8 1    
    14   10    8 1    
    15   57    8 1    
    16   80    9 1    
    17   11   10 1    
    18   12   10 1    
    19   58   10 1    
    20   81   11 1    
    21   13   12 1    
    22   59   12 1    
    23   14   13 1    
    24   22   13 1    
    25   15   14 2    
    26   60   14 1    
    27   16   15 1    
    28   17   16 ar   
    29   22   16 ar   
    30   18   17 1    
    31   19   17 ar   
    32   61   18 1    
    33   62   18 1    
    34   20   19 ar   
    35   21   20 ar   
    36   63   20 1    
    37   22   21 ar   
    38   24   23 1    
    39   40   23 2    
    40   25   24 2    
    41   26   24 am   
    42   27   26 am   
    43   64   26 1    
    44   28   27 2    
    45   29   27 1    
    46   30   29 2    
    47   40   29 1    
    48   31   30 1    
    49   32   31 ar   
    50   38   31 ar   
    51   33   32 ar   
    52   65   32 1    
    53   34   33 1    
    54   35   33 ar   
    55   74   34 1    
    56   75   34 1    
    57   76   34 1    
    58   36   35 1    
    59   37   35 ar   
    60   77   36 1    
    61   78   36 1    
    62   79   36 1    
    63   38   37 ar   
    64   66   37 1    
    65   39   38 1    
    66   40   39 1    
    67   41   39 1    
    68   42   41 1    
    69   67   41 1    
    70   68   41 1    
    71   43   42 1    
    72   44   42 1    
    73   69   42 1    
    74   82   43 1    
    75   45   44 1    
    76   46   44 1    
    77   70   44 1    
    78   83   45 1    
    79   47   46 1    
    80   48   46 1    
    81   71   46 1    
    82   84   47 1    
    83   49   48 1    
    84   72   48 1    
    85   73   48 1    
    86   50   49 1    
    87   51   50 ar   
    88   52   50 ar   
    89   53   50 1    
@<TRIPOS>SUBSTRUCTURE
     1 FAD1601     1 GROUP   
@<TRIPOS>SET

