#    Name: 3rut_59G_1_INTS_M
#    Modification time : Tue Mar 25 11:59:32 2014

@<TRIPOS>MOLECULE
3rut_59G_1_INTS_M
  105     0     9     0     0
SMALL
NO_CHARGES


@<TRIPOS>ATOM
      1 CA          0.3255   50.1335  -19.4910 C.3       3 GLC5        0.0000 
      2 CA         -0.6270   51.5110  -20.5190 C.3       9 GLL5        0.0000 
      3 CA          1.2780   48.7560  -18.4630 C.3       6 GLP5        0.0000 
      4 CA         -4.1445   49.3685  -14.2770 C.3       3 GLC5        0.0000 
      5 CA         -5.7230   50.3540  -15.5390 C.3       9 GLL5        0.0000 
      6 CA         -2.5660   48.3830  -13.0150 C.3       6 GLP5        0.0000 
      7 CA         -7.2855   50.0950  -14.1690 C.3       3 GLC5        0.0000 
      8 CA         -8.8480   49.8360  -12.7990 C.3       6 GLP5        0.0000 
      9 CA         -2.6035   51.0355  -16.0115 C.3       3 GLC5        0.0000 
     10 CA         -4.2180   51.3040  -17.3560 C.3       9 GLL5        0.0000 
     11 CA         -0.9890   50.7670  -14.6670 C.3       6 GLP5        0.0000 
     12 CA          1.5290   58.5050  -21.5580 C.3       3 GLC5        0.0000 
     13 CA          2.8720   58.1360  -22.4220 C.3       9 GLL5        0.0000 
     14 CA          0.1860   58.8740  -20.6940 C.3       6 GLP5        0.0000 
     15 CA          3.4525   58.3550  -24.9520 C.3       3 GLC5        0.0000 
     16 CA          3.7090   57.1330  -23.2100 C.3       9 GLL5        0.0000 
     17 CA          3.1960   59.5770  -26.6940 C.3       6 GLP5        0.0000 
     18 CA          4.3820   56.9065  -20.6305 C.3       3 GLC5        0.0000 
     19 CA          4.6160   56.1880  -22.3270 C.3       9 GLL5        0.0000 
     20 CA          4.1480   57.6250  -18.9340 C.3       6 GLP5        0.0000 
     21 CA          4.0005   54.8030  -21.4385 C.3       3 GLC5        0.0000 
     22 CA          3.3850   53.4180  -20.5500 C.3       6 GLP5        0.0000 
     23 CA          6.0210   55.4540  -21.3920 C.3       3 GLC5        0.0000 
     24 CA          7.4260   54.7200  -20.4570 C.3       6 GLP5        0.0000 
     25 CA          5.6870   54.8735  -23.5185 C.3       3 GLC5        0.0000 
     26 CA          6.7580   53.5590  -24.7100 C.3       6 GLP5        0.0000 
     27 N           3.5180   54.8970  -27.2835 N.am      1 SEC2        0.0000 
     28 N           2.5000   55.5950  -26.3520 N.am      7 SEL2        0.0000 
     29 N           4.5360   54.1990  -28.2150 N.am      4 SEP2        0.0000 
     30 CA          0.5325   57.1640  -21.8785 C.3       3 GLC5        0.0000 
     31 CA          0.8790   55.4540  -23.0630 C.3       9 GLL5        0.0000 
     32 CA          2.1320   54.4360  -21.8065 C.3       3 GLC5        0.0000 
     33 CA          1.5315   53.4135  -21.2670 C.3       3 GLC5        0.0000 
     34 CA         -0.3220   53.4090  -21.9840 C.3       9 GLL5        0.0000 
     35 CA         -1.8435   55.9870  -21.3145 C.3       3 GLC5        0.0000 
     36 CA         -1.5540   53.9050  -21.5940 C.3       9 GLL5        0.0000 
     37 CA         -2.1330   58.0690  -21.0350 C.3       6 GLP5        0.0000 
     38 CA         -4.7260   51.8420  -14.3760 C.3       3 GLC5        0.0000 
     39 CA         -5.3090   51.8820  -16.1940 C.3       9 GLL5        0.0000 
     40 CA         -4.1430   51.8020  -12.5580 C.3       6 GLP5        0.0000 
     41 CA         -5.4795   53.8415  -15.9355 C.3       3 GLC5        0.0000 
     42 CA         -5.6500   55.8010  -15.6770 C.3       6 GLP5        0.0000 
     43 CA         -6.9085   50.8535  -17.3415 C.3       3 GLC5        0.0000 
     44 CA         -8.5080   49.8250  -18.4890 C.3       6 GLP5        0.0000 
     45 NZ         -6.5670   46.4700  -15.8510 N.4       2 LYC4        0.0000 
     46 NZ         -6.1700   47.6820  -15.0730 N.4       8 LYL4        0.0000 
     47 NZ         -6.7880   45.1430  -17.9400 N.4       5 LYP4        0.0000 
     48 N          -6.5670   46.4700  -15.8510 N.am      1 SEC2        0.0000 
     49 N          -6.1700   47.6820  -15.0730 N.am      7 SEL2        0.0000 
     50 N          -6.9640   45.2580  -16.6290 N.am      4 SEP2        0.0000 
     51 N          -7.3670   48.3805  -14.5200 N.am      1 SEC2        0.0000 
     52 N          -8.5640   49.0790  -13.9670 N.am      4 SEP2        0.0000 
     53 NZ         -5.7045   46.1670  -16.4460 N.4       2 LYC4        0.0000 
     54 NZ         -4.4450   47.0760  -16.2630 N.4       8 LYL4        0.0000 
     55 N          -5.1070   46.4215  -17.3975 N.am      1 SEC2        0.0000 
     56 N          -4.4450   47.0760  -16.2630 N.am      7 SEL2        0.0000 
     57 N          -5.7690   45.7670  -18.5320 N.am      4 SEP2        0.0000 
     58 N          -5.7045   46.1670  -16.4460 N.am      1 SEC2        0.0000 
     59 CA         -2.6645   58.0440  -26.2820 C.3       3 GLC5        0.0000 
     60 CA         -0.9400   56.8180  -26.1910 C.3       9 GLL5        0.0000 
     61 CA         -4.3890   59.2700  -26.3730 C.3       6 GLP5        0.0000 
     62 CA         -0.9205   58.5855  -26.9530 C.3       3 GLC5        0.0000 
     63 CA         -0.9010   60.3530  -27.7150 C.3       6 GLP5        0.0000 
     64 CA         -2.2825   56.7835  -27.8625 C.3       3 GLC5        0.0000 
     65 CA         -3.6250   56.7490  -29.5340 C.3       6 GLP5        0.0000 
     66 CA          0.3720   57.3385  -27.7150 C.3       3 GLC5        0.0000 
     67 CA          1.6840   57.8590  -29.2390 C.3       6 GLP5        0.0000 
     68 CA         -2.7380   55.5375  -28.1540 C.3       3 GLC5        0.0000 
     69 CA         -1.8510   54.3260  -26.7740 C.3       9 GLL5        0.0000 
     70 CA          3.4675   51.2950  -27.0915 C.3       3 GLC5        0.0000 
     71 CA          1.9870   52.3000  -25.7310 C.3       9 GLL5        0.0000 
     72 CA          4.9480   50.2900  -28.4520 C.3       6 GLP5        0.0000 
     73 CA          2.5300   51.1715  -24.5735 C.3       3 GLC5        0.0000 
     74 CA          3.0730   50.0430  -23.4160 C.3       6 GLP5        0.0000 
     75 CA          3.8350   52.4785  -25.2215 C.3       3 GLC5        0.0000 
     76 CA          5.6830   52.6570  -24.7120 C.3       6 GLP5        0.0000 
     77 CA         -0.8875   53.0800  -18.8148 C.3       3 GLC5        0.0000 
     78 CA         -0.5310   54.4060  -17.3140 C.3       6 GLP5        0.0000 
     79 CA          1.3192   52.2263  -20.1805 C.3       3 GLC5        0.0000 
     80 CA          2.8870   52.5940  -19.3750 C.3       6 GLP5        0.0000 
     81 CA          0.6803   50.4283  -22.1670 C.3       3 GLC5        0.0000 
     82 CA          0.1300   52.2060  -21.4530 C.3       9 GLL5        0.0000 
     83 CA          1.6090   48.9980  -23.3480 C.3       6 GLP5        0.0000 
     84 CA         -1.2340   53.9805  -19.2198 C.3       3 GLC5        0.0000 
     85 CA         -1.7883   53.0192  -18.0192 C.3       3 GLC5        0.0000 
     86 CA         -2.6320   51.2840  -19.1540 C.3       9 GLL5        0.0000 
     87 CA         -4.7553   50.8402  -14.2210 C.3       3 GLC5        0.0000 
     88 CA         -5.0120   49.4030  -16.2290 C.3       9 GLL5        0.0000 
     89 CA         -6.9377   49.8518  -17.1865 C.3       3 GLC5        0.0000 
     90 CA         -7.3595   51.8585  -16.2172 C.3       3 GLC5        0.0000 
     91 CA         -9.2030   52.5990  -16.5680 C.3       6 GLP5        0.0000 
     92 CA          3.7192   57.6298  -20.8750 C.3       3 GLC5        0.0000 
     93 CA         -1.7873   48.2625  -18.5350 C.3       3 GLC5        0.0000 
     94 CA         -2.5840   49.8910  -19.0430 C.3       9 GLL5        0.0000 
     95 CA         -0.6050   46.9730  -18.5020 C.3       6 GLP5        0.0000 
     96 CA         -3.7954   48.2356  -19.3525 C.3       3 GLC5        0.0000 
     97 CA         -4.4140   46.7420  -20.3520 C.3       6 GLP5        0.0000 
     98 CA         -2.9417   48.7959  -15.8930 C.3       3 GLC5        0.0000 
     99 CA         -3.3550   49.2130  -18.0930 C.3       9 GLL5        0.0000 
    100 CA         -1.9070   48.1540  -14.3740 C.3       6 GLP5        0.0000 
    101 CA         -1.9792   50.9038  -27.0635 C.3       3 GLC5        0.0000 
    102 CA         -0.5330   52.3180  -26.5660 C.3       9 GLL5        0.0000 
    103 CA         -2.8280   49.1760  -27.3980 C.3       6 GLP5        0.0000 
    104 CA          0.3107   50.9787  -25.4030 C.3       3 GLC5        0.0000 
    105 CA          0.6150   49.2630  -24.4610 C.3       6 GLP5        0.0000 
@<TRIPOS>BOND
@<TRIPOS>SUBSTRUCTURE
     1 SEC2       27 GROUP        1 X    SEC  0     ROOT SEC X 2
     2 LYC4       45 GROUP        1 X    LYC  0     **** LYC X 4
     3 GLC5        1 GROUP        1 X    GLC  0     **** GLC X 6
     4 SEP2       29 GROUP        1 Y    SEP  0     ROOT SEP Y 9
     5 LYP4       47 GROUP        1 Y    LYP  0     **** LYP Y 11
     6 GLP5        3 GROUP        1 Y    GLP  0     **** GLP Y 13
     7 SEL2       28 GROUP        1 Z    SEL  0     ROOT SEL Z 16
     8 LYL4       46 GROUP        1 Z    LYL  0     **** LYL Z 18
     9 GLL5        2 GROUP        1 Z    GLL  0     **** GLL Z 20
@<TRIPOS>SET

