#    Name: 3rut_59G_1_ligand
#    Modification time : Tue Mar 25 11:59:32 2014

@<TRIPOS>MOLECULE
3rut_59G_1_ligand
   56    60     1     0     0
SMALL
NO_CHARGES


@<TRIPOS>ATOM
      1 C13        -0.6270   51.5110  -20.5190 C.ar      1 59G1        0.0000 
      2 C15        -2.3200   53.2050  -20.6570 C.ar      1 59G1        0.0000 
      3 C17        -2.6320   51.2840  -19.1540 C.ar      1 59G1        0.0000 
      4 C20        -4.1840   49.9220  -17.2330 C.ar      1 59G1        0.0000 
      5 C21        -5.0120   49.4030  -16.2290 C.2       1 59G1        0.0000 
      6 C22        -5.7230   50.3540  -15.5390 C.2       1 59G1        0.0000 
      7 C24        -4.2180   51.3040  -17.3560 C.ar      1 59G1        0.0000 
      8 C26        -5.1930   47.9780  -15.8580 C.2       1 59G1        0.0000 
      9 C01         2.8720   58.1360  -22.4220 C.3       1 59G1        0.0000 
     10 C02         3.7090   57.1330  -23.2100 C.3       1 59G1        0.0000 
     11 C03         4.6160   56.1880  -22.3270 C.3       1 59G1        0.0000 
     12 C04         2.9520   56.3910  -24.3270 C.2       1 59G1        0.0000 
     13 O05         3.3920   56.3270  -25.5990 O.3       1 59G1        0.0000 
     14 N06         2.5000   55.5950  -26.3520 N.2       1 59G1        0.0000 
     15 C07         1.5070   55.2020  -25.5540 C.2       1 59G1        0.0000 
     16 C08         1.7510   55.6910  -24.2660 C.2       1 59G1        0.0000 
     17 C09         0.8790   55.4540  -23.0630 C.3       1 59G1        0.0000 
     18 O10         0.5070   54.0590  -22.9620 O.3       1 59G1        0.0000 
     19 C11        -0.3220   53.4090  -21.9840 C.ar      1 59G1        0.0000 
     20 C12         0.1300   52.2060  -21.4530 C.ar      1 59G1        0.0000 
     21 C14        -1.8610   51.9970  -20.1120 C.ar      1 59G1        0.0000 
     22 C16        -1.5540   53.9050  -21.5940 C.ar      1 59G1        0.0000 
     23 C18        -2.5840   49.8910  -19.0430 C.ar      1 59G1        0.0000 
     24 C19        -3.3550   49.2130  -18.0930 C.ar      1 59G1        0.0000 
     25 S23        -5.3090   51.8820  -16.1940 S.3       1 59G1        0.0000 
     26 C25        -3.4590   51.9810  -18.2950 C.ar      1 59G1        0.0000 
     27 O27        -6.1700   47.6820  -15.0730 O.co2     1 59G1        0.0000 
     28 O28        -4.4450   47.0760  -16.2630 O.co2     1 59G1        0.0000 
     29 C29         0.4260   54.4470  -25.9960 C.ar      1 59G1        0.0000 
     30 C30        -0.7700   55.0790  -26.3280 C.ar      1 59G1        0.0000 
     31 CL31       -0.9400   56.8180  -26.1910 Cl        1 59G1        0.0000 
     32 C32        -1.8510   54.3260  -26.7740 C.ar      1 59G1        0.0000 
     33 C33        -1.7280   52.9450  -26.8920 C.ar      1 59G1        0.0000 
     34 C34        -0.5330   52.3180  -26.5660 C.ar      1 59G1        0.0000 
     35 C35         0.5460   53.0710  -26.1240 C.ar      1 59G1        0.0000 
     36 CL36        1.9870   52.3000  -25.7310 Cl        1 59G1        0.0000 
     37 H          -0.2685   50.6266  -20.1252 H         1 59G1        0.0000 
     38 H          -3.2338   53.5799  -20.3618 H         1 59G1        0.0000 
     39 H          -6.3177   50.3716  -14.8672 H         1 59G1        0.0000 
     40 H           4.4901   57.7851  -23.7833 H         1 59G1        0.0000 
     41 H          -0.0142   56.0918  -23.1477 H         1 59G1        0.0000 
     42 H           1.4267   55.7787  -22.1650 H         1 59G1        0.0000 
     43 H           1.0419   51.8246  -21.7581 H         1 59G1        0.0000 
     44 H          -1.9098   54.7838  -21.9880 H         1 59G1        0.0000 
     45 H          -1.9675   49.3521  -19.6745 H         1 59G1        0.0000 
     46 H          -3.3049   48.1878  -18.0346 H         1 59G1        0.0000 
     47 H          -3.5123   53.0105  -18.3523 H         1 59G1        0.0000 
     48 H          -2.7357   54.7867  -27.0151 H         1 59G1        0.0000 
     49 H          -2.5283   52.3864  -27.2230 H         1 59G1        0.0000 
     50 H          -0.4474   51.2966  -26.6520 H         1 59G1        0.0000 
     51 H           3.4435   58.7511  -21.8788 H         1 59G1        0.0000 
     52 H           2.3147   58.7084  -23.0235 H         1 59G1        0.0000 
     53 H           2.2465   57.6810  -21.7882 H         1 59G1        0.0000 
     54 H           5.1461   55.5520  -22.8878 H         1 59G1        0.0000 
     55 H           5.2692   56.7082  -21.7768 H         1 59G1        0.0000 
     56 H           4.0724   55.6373  -21.6936 H         1 59G1        0.0000 
@<TRIPOS>BOND
     1   20    1 ar   
     2   21    1 ar   
     3   37    1 1    
     4   21    2 ar   
     5   22    2 ar   
     6   38    2 1    
     7   21    3 1    
     8   23    3 ar   
     9   26    3 ar   
    10    5    4 1    
    11    7    4 ar   
    12   24    4 ar   
    13    6    5 2    
    14    8    5 1    
    15   25    6 1    
    16   39    6 1    
    17   25    7 1    
    18   26    7 ar   
    19   27    8 ar   
    20   28    8 ar   
    21   10    9 1    
    22   51    9 1    
    23   52    9 1    
    24   53    9 1    
    25   11   10 1    
    26   12   10 1    
    27   40   10 1    
    28   54   11 1    
    29   55   11 1    
    30   56   11 1    
    31   13   12 1    
    32   16   12 2    
    33   14   13 1    
    34   15   14 2    
    35   16   15 1    
    36   29   15 1    
    37   17   16 1    
    38   18   17 1    
    39   41   17 1    
    40   42   17 1    
    41   19   18 1    
    42   20   19 ar   
    43   22   19 ar   
    44   43   20 1    
    45   44   22 1    
    46   24   23 ar   
    47   45   23 1    
    48   46   24 1    
    49   47   26 1    
    50   30   29 ar   
    51   35   29 ar   
    52   31   30 1    
    53   32   30 ar   
    54   33   32 ar   
    55   48   32 1    
    56   34   33 ar   
    57   49   33 1    
    58   35   34 ar   
    59   50   34 1    
    60   36   35 1    
@<TRIPOS>SUBSTRUCTURE
     1 59G1        1 GROUP   
@<TRIPOS>SET

