#    Name: 4fid_GDP_1_INTS_M
#    Modification time : Mon Mar 24 20:04:27 2014

@<TRIPOS>MOLECULE
4fid_GDP_1_INTS_M
   65     0    12     0     0
SMALL
NO_CHARGES


@<TRIPOS>ATOM
      1 N           8.7130    8.2260   61.9980 N.am      2 SEC2        0.0000 
      2 N           8.2250    9.5280   61.3220 N.am     10 SEL2        0.0000 
      3 N           9.2010    6.9240   62.6740 N.am      6 SEP2        0.0000 
      4 NZ          7.3260   10.3690   58.2585 N.4       3 LYC4        0.0000 
      5 NZ          8.7390    9.9250   58.9370 N.4      11 LYL4        0.0000 
      6 NZ          5.9130   10.8130   57.5800 N.4       7 LYP4        0.0000 
      7 N           7.3260   10.3690   58.2585 N.am      2 SEC2        0.0000 
      8 N           8.7390    9.9250   58.9370 N.am     10 SEL2        0.0000 
      9 N           5.9130   10.8130   57.5800 N.am      6 SEP2        0.0000 
     10 N           9.5555   10.6545   57.8795 N.am      2 SEC2        0.0000 
     11 N          10.3720   11.3840   56.8220 N.am      6 SEP2        0.0000 
     12 N          11.3140    8.5410   59.8190 N.am      2 SEC2        0.0000 
     13 N          10.6500    9.8940   60.6530 N.am     10 SEL2        0.0000 
     14 N          11.9780    7.1880   58.9850 N.am      6 SEP2        0.0000 
     15 N          11.7110   12.8075   59.1185 N.am      2 SEC2        0.0000 
     16 N          12.3130   11.4250   59.3680 N.am     10 SEL2        0.0000 
     17 N          11.1090   14.1900   58.8690 N.am      6 SEP2        0.0000 
     18 N          12.6160   11.9200   58.1060 N.am      2 SEC2        0.0000 
     19 N          12.9190   12.4150   56.8440 N.am      6 SEP2        0.0000 
     20 N          13.7080   11.5730   58.9220 N.am      2 SEC2        0.0000 
     21 N          15.1030   11.7210   58.4760 N.am      6 SEP2        0.0000 
     22 N          11.3145   13.1700   60.2410 N.am      2 SEC2        0.0000 
     23 N          11.5200   12.1500   61.6130 N.am     10 SEL2        0.0000 
     24 CA         15.4180   10.6305   64.9295 C.3       4 GLC5        0.0000 
     25 CA         15.1120   10.2370   62.8410 C.3      12 GLL5        0.0000 
     26 CA         15.7240   11.0240   67.0180 C.3       8 GLP5        0.0000 
     27 CA         16.0410   11.9040   64.4790 C.3       4 GLC5        0.0000 
     28 CA         16.0370   11.4080   62.5060 C.3      12 GLL5        0.0000 
     29 CA         16.0450   12.4000   66.4520 C.3       8 GLP5        0.0000 
     30 N          16.2440   10.8305   64.8130 N.am      2 SEC2        0.0000 
     31 N          16.9020   11.6780   63.6280 N.am     10 SEL2        0.0000 
     32 N          15.5860    9.9830   65.9980 N.am      6 SEP2        0.0000 
     33 O          18.0765   12.6335   63.4905 O.2       1 ALC1        0.0000 
     34 O          16.9020   11.6780   63.6280 O.2       9 ALL1        0.0000 
     35 O          19.2510   13.5890   63.3530 O.2       5 ALP1        0.0000 
     36 O          18.1660   12.7460   60.3060 O.2       1 ALC1        0.0000 
     37 O          18.1550   11.4940   61.2770 O.2       9 ALL1        0.0000 
     38 O          18.1770   13.9980   59.3350 O.2       5 ALP1        0.0000 
     39 CA         17.8190    8.5435   63.0365 C.3       4 GLC5        0.0000 
     40 CA         16.7660    9.4250   61.4030 C.3      12 GLL5        0.0000 
     41 CA         18.8720    7.6620   64.6700 C.3       8 GLP5        0.0000 
     42 CA         16.1315    7.4610   61.1535 C.3       4 GLC5        0.0000 
     43 CA         15.4970    5.4970   60.9040 C.3       8 GLP5        0.0000 
     44 N          15.8405    6.9500   57.2595 N.am      2 SEC2        0.0000 
     45 N          16.6050    7.9310   58.0310 N.am     10 SEL2        0.0000 
     46 N          15.0760    5.9690   56.4880 N.am      6 SEP2        0.0000 
     47 CA         17.2345    5.7845   58.7940 C.3       4 GLC5        0.0000 
     48 CA         17.8160    7.4910   58.4200 C.3      12 GLL5        0.0000 
     49 CA         16.6530    4.0780   59.1680 C.3       8 GLP5        0.0000 
     50 CA         17.3225    8.0950   56.6550 C.3       4 GLC5        0.0000 
     51 CA         16.8290    8.6990   54.8900 C.3       8 GLP5        0.0000 
     52 N          20.2565    6.3745   56.2730 N.am      2 SEC2        0.0000 
     53 N          18.8150    6.1820   56.6980 N.am     10 SEL2        0.0000 
     54 N          21.6980    6.5670   55.8480 N.am      6 SEP2        0.0000 
     55 O          20.7860    5.1285   58.0545 O.2       1 ALC1        0.0000 
     56 O          20.0100    6.4600   58.5700 O.2       9 ALL1        0.0000 
     57 O          21.5620    3.7970   57.5390 O.2       5 ALP1        0.0000 
     58 O          21.5580    5.7530   58.5300 O.2       1 ALC1        0.0000 
     59 O          23.1060    5.0460   58.4900 O.2       5 ALP1        0.0000 
     60 O          22.1940    5.8700   59.4940 O.2       1 ALC1        0.0000 
     61 O          21.2820    6.6940   60.4980 O.2       9 ALL1        0.0000 
     62 CA         16.7645    6.7545   60.3420 C.3       4 GLC5        0.0000 
     63 CA         18.0320    8.0120   59.7800 C.3      12 GLL5        0.0000 
     64 CA         19.1420    8.9497   58.7310 C.3       4 GLC5        0.0000 
     65 CA         20.3600   10.1480   58.3620 C.3       8 GLP5        0.0000 
@<TRIPOS>BOND
@<TRIPOS>SUBSTRUCTURE
     1 ALC1       33 GROUP        1 X    ALC  0     ROOT ALC X 1
     2 SEC2        1 GROUP        1 X    SEC  0     **** SEC X 2
     3 LYC4        4 GROUP        1 X    LYC  0     **** LYC X 4
     4 GLC5       24 GROUP        1 X    GLC  0     **** GLC X 6
     5 ALP1       35 GROUP        1 Y    ALP  0     ROOT ALP Y 8
     6 SEP2        3 GROUP        1 Y    SEP  0     **** SEP Y 9
     7 LYP4        6 GROUP        1 Y    LYP  0     **** LYP Y 11
     8 GLP5       26 GROUP        1 Y    GLP  0     **** GLP Y 13
     9 ALL1       34 GROUP        1 Z    ALL  0     ROOT ALL Z 15
    10 SEL2        2 GROUP        1 Z    SEL  0     **** SEL Z 16
    11 LYL4        5 GROUP        1 Z    LYL  0     **** LYL Z 18
    12 GLL5       25 GROUP        1 Z    GLL  0     **** GLL Z 20
@<TRIPOS>SET

