#    Name: 4fid_GDP_1_ligand
#    Modification time : Mon Mar 24 20:04:27 2014

@<TRIPOS>MOLECULE
4fid_GDP_1_ligand
   40    42     1     0     0
SMALL
NO_CHARGES


@<TRIPOS>ATOM
      1 PB          9.0990   10.2920   60.3550 P.3       1 GDP401      0.0000 
      2 O1B         8.8420   11.7690   60.5190 O.co2     1 GDP401      0.0000 
      3 O2B         8.2250    9.5280   61.3220 O.co2     1 GDP401      0.0000 
      4 O3B         8.7390    9.9250   58.9370 O.co2     1 GDP401      0.0000 
      5 O3A        10.6500    9.8940   60.6530 O.3       1 GDP401      0.0000 
      6 PA         11.8790   10.9590   60.7420 P.3       1 GDP401      0.0000 
      7 O1A        12.3130   11.4250   59.3680 O.co2     1 GDP401      0.0000 
      8 O2A        11.5200   12.1500   61.6130 O.co2     1 GDP401      0.0000 
      9 O5'        13.0590   10.1220   61.4700 O.3       1 GDP401      0.0000 
     10 C5'        13.6260   10.5970   62.6950 C.3       1 GDP401      0.0000 
     11 C4'        15.1120   10.2370   62.8410 C.3       1 GDP401      0.0000 
     12 O4'        15.4990    9.1380   62.0040 O.3       1 GDP401      0.0000 
     13 C3'        16.0370   11.4080   62.5060 C.3       1 GDP401      0.0000 
     14 O3'        16.9020   11.6780   63.6280 O.3       1 GDP401      0.0000 
     15 C2'        16.8220   10.9510   61.2840 C.3       1 GDP401      0.0000 
     16 O2'        18.1550   11.4940   61.2770 O.3       1 GDP401      0.0000 
     17 C1'        16.7660    9.4250   61.4030 C.3       1 GDP401      0.0000 
     18 N9         16.9460    8.7260   60.0960 N.pl3     1 GDP401      0.0000 
     19 C8         16.0910    8.6720   59.0510 C.2       1 GDP401      0.0000 
     20 N7         16.6050    7.9310   58.0310 N.2       1 GDP401      0.0000 
     21 C5         17.8160    7.4910   58.4200 C.2       1 GDP401      0.0000 
     22 C6         18.9090    6.6680   57.8400 C.2       1 GDP401      0.0000 
     23 O6         18.8150    6.1820   56.6980 O.2       1 GDP401      0.0000 
     24 N1         20.0100    6.4600   58.5700 N.am      1 GDP401      0.0000 
     25 C2         20.1460    6.9590   59.8150 C.2       1 GDP401      0.0000 
     26 N2         21.2820    6.6940   60.4980 N.pl3     1 GDP401      0.0000 
     27 N3         19.1930    7.7180   60.4160 N.2       1 GDP401      0.0000 
     28 C4         18.0320    8.0120   59.7800 C.2       1 GDP401      0.0000 
     29 H          13.0982   10.1793   63.5747 H         1 GDP401      0.0000 
     30 H          13.5444   11.6985   62.7791 H         1 GDP401      0.0000 
     31 H          15.2956    9.9805   63.8927 H         1 GDP401      0.0000 
     32 H          15.4340   12.2387   62.2368 H         1 GDP401      0.0000 
     33 H          16.2477   11.2283   60.4180 H         1 GDP401      0.0000 
     34 H          17.5661    9.1357   62.0872 H         1 GDP401      0.0000 
     35 H          15.2125    9.1082   59.0251 H         1 GDP401      0.0000 
     36 H          20.8005    5.8874   58.1626 H         1 GDP401      0.0000 
     37 H          21.3200    7.0342   61.4375 H         1 GDP401      0.0000 
     38 H          21.9835    6.1813   60.0030 H         1 GDP401      0.0000 
     39 H          17.7942   11.8797   63.2240 H         1 GDP401      0.0000 
     40 H          18.1188   12.2604   60.6357 H         1 GDP401      0.0000 
@<TRIPOS>BOND
     1    2    1 ar   
     2    3    1 ar   
     3    4    1 ar   
     4    5    1 1    
     5    6    5 1    
     6    7    6 ar   
     7    8    6 ar   
     8    9    6 1    
     9   10    9 1    
    10   11   10 1    
    11   29   10 1    
    12   30   10 1    
    13   12   11 1    
    14   13   11 1    
    15   31   11 1    
    16   17   12 1    
    17   14   13 1    
    18   15   13 1    
    19   32   13 1    
    20   39   14 1    
    21   16   15 1    
    22   17   15 1    
    23   33   15 1    
    24   40   16 1    
    25   18   17 1    
    26   34   17 1    
    27   19   18 1    
    28   28   18 1    
    29   20   19 2    
    30   35   19 1    
    31   21   20 1    
    32   22   21 1    
    33   28   21 2    
    34   23   22 2    
    35   24   22 am   
    36   25   24 1    
    37   36   24 1    
    38   26   25 1    
    39   27   25 2    
    40   37   26 1    
    41   38   26 1    
    42   28   27 1    
@<TRIPOS>SUBSTRUCTURE
     1 GDP401      1 GROUP   
@<TRIPOS>SET

