#    Name: 4KN0_1_CAVITY_N1_ALL.mol2
#    Modification time : Tue Mar 11 11:37:18 2014

@<TRIPOS>MOLECULE
4KN0_1_CAVITY_N1_ALL.mol2
  123     0     6     0     0
SMALL
NO_CHARGES


@<TRIPOS>ATOM
      1 CA         23.6080  -35.6958    6.2631 C.3       5 GLY6        0.0000 
      2 CA         23.1942  -37.1337    6.1575 C.3       5 GLY6        0.0000 
      3 O          22.4693  -35.3025    5.3694 O.2       2 ALA2        0.0000 
      4 O          23.3537  -35.4689    4.1693 O.2       2 ALA2        0.0000 
      5 O          22.0555  -36.7405    5.2638 O.2       2 ALA2        0.0000 
      6 DU         22.9399  -36.9069    4.0638 H         6 CUB7        0.0000 
      7 O          20.7573  -38.0120    6.3583 O.2       2 ALA2        0.0000 
      8 O          21.6417  -38.1784    5.1583 O.2       2 ALA2        0.0000 
      9 O          22.5261  -38.3448    3.9582 O.2       2 ALA2        0.0000 
     10 CZ         19.4591  -39.2835    7.4529 C.ar      4 PHE5        0.0000 
     11 O          20.3435  -39.4499    6.2528 O.2       2 ALA2        0.0000 
     12 O          21.2279  -39.6163    5.0527 O.2       2 ALA2        0.0000 
     13 O          22.1123  -39.7827    3.8527 O.2       2 ALA2        0.0000 
     14 CZ         18.1609  -40.5550    8.5474 C.ar      4 PHE5        0.0000 
     15 DU         19.0453  -40.7214    7.3473 H         6 CUB7        0.0000 
     16 DU         19.9297  -40.8878    6.1472 H         6 CUB7        0.0000 
     17 N          17.7472  -41.9929    8.4418 N.2       2 ALA2        0.0000 
     18 DU         18.6316  -42.1594    7.2418 H         6 CUB7        0.0000 
     19 CA         20.4003  -42.4922    4.8416 C.3       5 GLY6        0.0000 
     20 N          20.9168  -36.3472    4.3701 N.2       2 ALA2        0.0000 
     21 N          21.8012  -36.5136    3.1701 N.2       2 ALA2        0.0000 
     22 O          19.6186  -37.6187    5.4646 O.2       2 ALA2        0.0000 
     23 O          20.5030  -37.7851    4.2646 O.2       2 ALA2        0.0000 
     24 O          21.3874  -37.9515    3.0645 O.2       2 ALA2        0.0000 
     25 CZ         18.3204  -38.8902    6.5591 C.ar      4 PHE5        0.0000 
     26 CZ         19.2048  -39.0566    5.3591 C.ar      4 PHE5        0.0000 
     27 O          20.0892  -39.2230    4.1590 O.2       2 ALA2        0.0000 
     28 N          17.0223  -40.1617    7.6537 N.2       2 ALA2        0.0000 
     29 N          17.9066  -40.3281    6.4536 N.2       2 ALA2        0.0000 
     30 DU         18.7910  -40.4946    5.2535 H         6 CUB7        0.0000 
     31 CA         19.6754  -40.6610    4.0535 C.3       5 GLY6        0.0000 
     32 OD1        17.4929  -41.7661    6.3481 O.3       3 ASP3        0.0000 
     33 CA         18.3773  -41.9325    5.1480 C.3       5 GLY6        0.0000 
     34 OD1        17.0791  -43.2040    6.2425 O.3       3 ASP3        0.0000 
     35 OD1        17.9635  -43.3704    5.0424 O.3       3 ASP3        0.0000 
     36 O          18.8937  -35.7875    4.6765 O.2       2 ALA2        0.0000 
     37 CZ         18.4799  -37.2254    4.5709 C.ar      4 PHE5        0.0000 
     38 CZ         19.3643  -37.3918    3.3709 C.ar      4 PHE5        0.0000 
     39 CZ         20.2487  -37.5582    2.1708 C.ar      4 PHE5        0.0000 
     40 CZ         17.1817  -38.4969    5.6654 C.ar      4 PHE5        0.0000 
     41 DU         18.0661  -38.6633    4.4654 H         6 CUB7        0.0000 
     42 CZ         18.9505  -38.8298    3.2653 C.ar      4 PHE5        0.0000 
     43 CA         16.7680  -39.9349    5.5599 C.3       5 GLY6        0.0000 
     44 CZ         17.6524  -40.1013    4.3598 C.ar      4 PHE5        0.0000 
     45 CZ         16.3542  -41.3728    5.4543 C.ar      4 PHE5        0.0000 
     46 CZ         17.2386  -41.5392    4.2543 C.ar      4 PHE5        0.0000 
     47 CZ         16.8706  -35.2278    4.9828 C.ar      4 PHE5        0.0000 
     48 N          17.7550  -35.3942    3.7828 N.2       2 ALA2        0.0000 
     49 CZ         16.4568  -36.6657    4.8773 C.ar      4 PHE5        0.0000 
     50 DU         17.3412  -36.8321    3.6772 H         6 CUB7        0.0000 
     51 CZ         18.2256  -36.9986    2.4772 C.ar      4 PHE5        0.0000 
     52 CA         16.0431  -38.1037    4.7717 C.3       5 GLY6        0.0000 
     53 CZ         16.9274  -38.2701    3.5717 C.ar      4 PHE5        0.0000 
     54 CZ         16.5137  -39.7080    3.4661 C.ar      4 PHE5        0.0000 
     55 CZ         15.7319  -34.8345    4.0891 C.ar      4 PHE5        0.0000 
     56 N          16.6163  -35.0009    2.8891 N.2       2 ALA2        0.0000 
     57 CA         17.5007  -35.1673    1.6890 C.3       5 GLY6        0.0000 
     58 CZ         15.3181  -36.2724    3.9836 C.ar      4 PHE5        0.0000 
     59 DU         16.2025  -36.4389    2.7835 H         6 CUB7        0.0000 
     60 CZ         17.0869  -36.6053    1.5835 C.ar      4 PHE5        0.0000 
     61 CA         14.9044  -37.7104    3.8780 C.3       5 GLY6        0.0000 
     62 CZ         15.7888  -37.8768    2.6780 C.ar      4 PHE5        0.0000 
     63 CZ         15.3750  -39.3147    2.5724 C.ar      4 PHE5        0.0000 
     64 CZ         14.5932  -34.4412    3.1954 C.ar      4 PHE5        0.0000 
     65 CZ         15.4776  -34.6077    1.9954 C.ar      4 PHE5        0.0000 
     66 CA         16.3620  -34.7741    0.7953 C.3       5 GLY6        0.0000 
     67 CZ         13.2951  -35.7128    4.2899 C.ar      4 PHE5        0.0000 
     68 CZ         14.1795  -35.8792    3.0899 C.ar      4 PHE5        0.0000 
     69 CZ         15.0639  -36.0456    1.8898 C.ar      4 PHE5        0.0000 
     70 CZ         15.9482  -36.2120    0.6897 C.ar      4 PHE5        0.0000 
     71 CA         12.8813  -37.1507    4.1844 C.3       5 GLY6        0.0000 
     72 CZ         13.7657  -37.3171    2.9843 C.ar      4 PHE5        0.0000 
     73 DU         14.6501  -37.4835    1.7843 H         6 CUB7        0.0000 
     74 CZ         15.5345  -37.6499    0.5842 C.ar      4 PHE5        0.0000 
     75 CZ         14.2363  -38.9214    1.6787 C.ar      4 PHE5        0.0000 
     76 CZ         16.1077  -34.5472   -1.2985 C.ar      4 PHE5        0.0000 
     77 CZ         12.1564  -35.3195    3.3962 C.ar      4 PHE5        0.0000 
     78 CZ         13.0408  -35.4859    2.1962 C.ar      4 PHE5        0.0000 
     79 CZ         13.9252  -35.6523    0.9961 C.ar      4 PHE5        0.0000 
     80 CZ         14.8096  -35.8187   -0.2040 C.ar      4 PHE5        0.0000 
     81 O          15.6939  -35.9851   -1.4040 O.2       2 ALA2        0.0000 
     82 CA          9.9738  -36.4246    5.6908 C.3       5 GLY6        0.0000 
     83 CA         10.8582  -36.5910    4.4907 C.3       5 GLY6        0.0000 
     84 CZ         11.7426  -36.7574    3.2907 C.ar      4 PHE5        0.0000 
     85 CZ         12.6270  -36.9238    2.0906 C.ar      4 PHE5        0.0000 
     86 DU         13.5114  -37.0902    0.8906 H         6 CUB7        0.0000 
     87 CZ         14.3958  -37.2566   -0.3095 C.ar      4 PHE5        0.0000 
     88 O          15.2802  -37.4231   -1.5096 O.2       2 ALA2        0.0000 
     89 OG          9.5600  -37.8625    5.5853 O.2       1 SER1        0.0000 
     90 CZ         10.4444  -38.0289    4.3852 C.ar      4 PHE5        0.0000 
     91 CZ         13.0976  -38.5282    0.7850 C.ar      4 PHE5        0.0000 
     92 CZ         13.9820  -38.6946   -0.4151 C.ar      4 PHE5        0.0000 
     93 O          10.1333  -34.7598    3.7026 O.2       2 ALA2        0.0000 
     94 CZ         11.9021  -35.0926    1.3025 C.ar      4 PHE5        0.0000 
     95 CZ         12.7865  -35.2590    0.1024 C.ar      4 PHE5        0.0000 
     96 CZ         13.6709  -35.4254   -1.0977 C.ar      4 PHE5        0.0000 
     97 CZ         14.5553  -35.5918   -2.2977 C.ar      4 PHE5        0.0000 
     98 O          15.4397  -35.7583   -3.4978 O.2       2 ALA2        0.0000 
     99 CZ          8.8351  -36.0313    4.7971 C.ar      4 PHE5        0.0000 
    100 OG          9.7195  -36.1977    3.5970 O.2       1 SER1        0.0000 
    101 OG         10.6039  -36.3641    2.3970 O.2       1 SER1        0.0000 
    102 DU         11.4883  -36.5305    1.1969 H         6 CUB7        0.0000 
    103 DU         12.3727  -36.6969   -0.0031 H         6 CUB7        0.0000 
    104 CZ         13.2571  -36.8634   -1.2032 C.ar      4 PHE5        0.0000 
    105 CZ         14.1415  -37.0298   -2.4033 C.ar      4 PHE5        0.0000 
    106 OG          8.4213  -37.4692    4.6916 O.2       1 SER1        0.0000 
    107 CA          9.3057  -37.6356    3.4915 C.3       5 GLY6        0.0000 
    108 CZ         10.1901  -37.8021    2.2914 C.ar      4 PHE5        0.0000 
    109 CZ         11.0745  -37.9685    1.0914 C.ar      4 PHE5        0.0000 
    110 CZ         11.9589  -38.1349   -0.1087 C.ar      4 PHE5        0.0000 
    111 CZ         12.8433  -38.3013   -1.3088 C.ar      4 PHE5        0.0000 
    112 OG          9.8790  -34.5329    1.6088 O.2       1 SER1        0.0000 
    113 CZ         10.7634  -34.6993    0.4088 C.ar      4 PHE5        0.0000 
    114 CZ         11.6478  -34.8657   -0.7913 C.ar      4 PHE5        0.0000 
    115 CZ         12.5322  -35.0322   -1.9914 C.ar      4 PHE5        0.0000 
    116 CA         13.4166  -35.1986   -3.1914 C.3       5 GLY6        0.0000 
    117 CA         14.3010  -35.3650   -4.3915 C.3       5 GLY6        0.0000 
    118 OG         10.3496  -36.1373    0.3032 O.2       1 SER1        0.0000 
    119 CZ         11.2340  -36.3037   -0.8969 C.ar      4 PHE5        0.0000 
    120 CZ         12.1184  -36.4701   -2.0969 C.ar      4 PHE5        0.0000 
    121 CA          9.9358  -37.5752    0.1977 C.3       5 GLY6        0.0000 
    122 CA         10.0953  -35.9104   -1.7906 C.3       5 GLY6        0.0000 
    123 CZ         10.9797  -36.0768   -2.9906 C.ar      4 PHE5        0.0000 
@<TRIPOS>BOND
@<TRIPOS>SUBSTRUCTURE
     1 SER1       89 GROUP   
     2 ALA2        3 GROUP   
     3 ASP3       32 GROUP   
     4 PHE5       10 GROUP   
     5 GLY6        1 GROUP   
     6 CUB7        6 GROUP   
@<TRIPOS>SET

