#    Name: 4kn0_MTX_1_INTS_M
#    Modification time : Tue Mar 25 08:04:34 2014

@<TRIPOS>MOLECULE
4kn0_MTX_1_INTS_M
   51     0     9     0     0
SMALL
NO_CHARGES


@<TRIPOS>ATOM
      1 CA         14.2170  -33.8755   -3.9075 C.3       3 GLC5        0.0000 
      2 CA         13.2350  -35.3700   -3.9460 C.3       9 GLL5        0.0000 
      3 CA         15.1990  -32.3810   -3.8690 C.3       6 GLP5        0.0000 
      4 CA         14.0600  -34.3800   -5.7445 C.3       3 GLC5        0.0000 
      5 CA         14.8850  -33.3900   -7.5430 C.3       6 GLP5        0.0000 
      6 O          13.6790  -33.8080   -6.0685 O.2       1 ALC1        0.0000 
      7 O          13.4870  -35.0060   -5.1940 O.2       7 ALL1        0.0000 
      8 O          13.8710  -32.6100   -6.9430 O.2       4 ALP1        0.0000 
      9 CA         10.5425  -36.7015   -3.1070 C.3       3 GLC5        0.0000 
     10 CA         11.7390  -35.5410   -2.0960 C.3       9 GLL5        0.0000 
     11 CA          9.3460  -37.8620   -4.1180 C.3       6 GLP5        0.0000 
     12 O           9.7880  -34.0735   -1.9565 O.2       1 ALC1        0.0000 
     13 O          10.5320  -35.3640   -1.5670 O.2       7 ALL1        0.0000 
     14 O           9.0440  -32.7830   -2.3460 O.2       4 ALP1        0.0000 
     15 CA         12.6500  -38.8990    2.9750 C.3       3 GLC5        0.0000 
     16 CA         13.2920  -37.5980    2.1290 C.3       9 GLL5        0.0000 
     17 CA         12.0080  -40.2000    3.8210 C.3       6 GLP5        0.0000 
     18 CA         13.1280  -34.9405    4.8735 C.3       3 GLC5        0.0000 
     19 CA         13.3310  -35.3160    3.2070 C.3       9 GLL5        0.0000 
     20 CA         12.9250  -34.5650    6.5400 C.3       6 GLP5        0.0000 
     21 CA         13.1095  -33.8675    2.1140 C.3       3 GLC5        0.0000 
     22 CA         12.8880  -32.4190    1.0210 C.3       6 GLP5        0.0000 
     23 CA         18.0750  -34.4060    2.2905 C.3       3 GLC5        0.0000 
     24 CA         17.4750  -35.8600    3.8230 C.3       9 GLL5        0.0000 
     25 CA         18.6750  -32.9520    0.7580 C.3       6 GLP5        0.0000 
     26 O          20.2765  -35.2980    3.0450 O.2       1 ALC1        0.0000 
     27 O          20.3360  -36.3080    4.0360 O.2       7 ALL1        0.0000 
     28 O          20.2170  -34.2880    2.0540 O.2       4 ALP1        0.0000 
     29 CA         21.4465  -36.1470    6.4495 C.3       3 GLC5        0.0000 
     30 CA         21.7160  -36.3420    4.4840 C.3       9 GLL5        0.0000 
     31 CA         21.1770  -35.9520    8.4150 C.3       6 GLP5        0.0000 
     32 N          23.3135  -33.2015    4.4170 N.am      2 SEC2        0.0000 
     33 N          23.3550  -34.5690    4.6250 N.am      8 SEL2        0.0000 
     34 N          23.2720  -31.8340    4.2090 N.am      5 SEP2        0.0000 
     35 N          22.3465  -33.0140    4.8515 N.am      2 SEC2        0.0000 
     36 N          21.4210  -34.1940    5.4940 N.am      8 SEL2        0.0000 
     37 N          21.8295  -32.8915    6.1495 N.am      2 SEC2        0.0000 
     38 N          22.2380  -31.5890    6.8050 N.am      5 SEP2        0.0000 
     39 N          20.7755  -34.9760    6.5225 N.am      2 SEC2        0.0000 
     40 N          20.1300  -35.7580    7.5510 N.am      5 SEP2        0.0000 
     41 CA         21.7495  -40.1375    2.7025 C.3       3 GLC5        0.0000 
     42 CA         22.7220  -38.2970    3.3010 C.3       9 GLL5        0.0000 
     43 CA         20.7770  -41.9780    2.1040 C.3       6 GLP5        0.0000 
     44 N          22.6845  -38.8390   -0.0175 N.am      2 SEC2        0.0000 
     45 N          23.3020  -39.1540    1.1480 N.am      8 SEL2        0.0000 
     46 N          22.0670  -38.5240   -1.1830 N.am      5 SEP2        0.0000 
     47 N          22.0100  -39.9125    1.4080 N.am      2 SEC2        0.0000 
     48 N          20.7180  -40.6710    1.6680 N.am      5 SEP2        0.0000 
     49 CA         14.7744  -38.7009    4.6029 C.3       3 GLC5        0.0000 
     50 CA         17.1950  -38.2770    3.7460 C.3       9 GLL5        0.0000 
     51 CA         13.6370  -39.8860    5.7410 C.3       6 GLP5        0.0000 
@<TRIPOS>BOND
@<TRIPOS>SUBSTRUCTURE
     1 ALC1        6 GROUP        1 X    ALC  0     ROOT ALC X 1
     2 SEC2       32 GROUP        1 X    SEC  0     **** SEC X 2
     3 GLC5        1 GROUP        1 X    GLC  0     **** GLC X 6
     4 ALP1        8 GROUP        1 Y    ALP  0     ROOT ALP Y 8
     5 SEP2       34 GROUP        1 Y    SEP  0     **** SEP Y 9
     6 GLP5        3 GROUP        1 Y    GLP  0     **** GLP Y 13
     7 ALL1        7 GROUP        1 Z    ALL  0     ROOT ALL Z 15
     8 SEL2       33 GROUP        1 Z    SEL  0     **** SEL Z 16
     9 GLL5        2 GROUP        1 Z    GLL  0     **** GLL Z 20
@<TRIPOS>SET

