#    Name: 4kn0_MTX_1_ligand
#    Modification time : Tue Mar 25 08:04:35 2014

@<TRIPOS>MOLECULE
4kn0_MTX_1_ligand
   53    55     1     0     0
SMALL
NO_CHARGES


@<TRIPOS>ATOM
      1 N1         14.2280  -35.9790   -3.2100 N.ar      1 MTX301      0.0000 
      2 C2         13.2350  -35.3700   -3.9460 C.ar      1 MTX301      0.0000 
      3 NA2        13.4870  -35.0060   -5.1940 N.pl3     1 MTX301      0.0000 
      4 N3         11.9870  -35.1530   -3.3970 N.ar      1 MTX301      0.0000 
      5 C4         11.7390  -35.5410   -2.0960 C.ar      1 MTX301      0.0000 
      6 NA4        10.5320  -35.3640   -1.5670 N.pl3     1 MTX301      0.0000 
      7 C4A        12.7390  -36.1450   -1.3420 C.ar      1 MTX301      0.0000 
      8 N5         12.4900  -36.5450   -0.0350 N.ar      1 MTX301      0.0000 
      9 C6         13.5140  -37.1600    0.6980 C.ar      1 MTX301      0.0000 
     10 C7         14.7770  -37.3440    0.1340 C.ar      1 MTX301      0.0000 
     11 N8         15.0200  -36.9500   -1.1660 N.ar      1 MTX301      0.0000 
     12 C8A        13.9980  -36.3500   -1.9050 C.ar      1 MTX301      0.0000 
     13 C9         13.2920  -37.5980    2.1290 C.3       1 MTX301      0.0000 
     14 N10        13.9480  -36.6460    3.0240 N.pl3     1 MTX301      0.0000 
     15 CM         13.3310  -35.3160    3.2070 C.3       1 MTX301      0.0000 
     16 C11        18.0120  -37.1450    3.9300 C.ar      1 MTX301      0.0000 
     17 C12        17.1950  -38.2770    3.7460 C.ar      1 MTX301      0.0000 
     18 C13        15.8360  -38.1160    3.4430 C.ar      1 MTX301      0.0000 
     19 C14        15.3080  -36.8350    3.3350 C.ar      1 MTX301      0.0000 
     20 C15        16.1250  -35.7220    3.5240 C.ar      1 MTX301      0.0000 
     21 C16        17.4750  -35.8600    3.8230 C.ar      1 MTX301      0.0000 
     22 C          19.4720  -37.2910    4.2860 C.2       1 MTX301      0.0000 
     23 O          19.8680  -38.4750    4.9110 O.2       1 MTX301      0.0000 
     24 N          20.3360  -36.3080    4.0360 N.am      1 MTX301      0.0000 
     25 CA         21.7160  -36.3420    4.4840 C.3       1 MTX301      0.0000 
     26 CT         22.1880  -34.9680    4.8920 C.2       1 MTX301      0.0000 
     27 O1         23.3550  -34.5690    4.6250 O.co2     1 MTX301      0.0000 
     28 O2         21.4210  -34.1940    5.4940 O.co2     1 MTX301      0.0000 
     29 CB         22.5820  -36.7940    3.3130 C.3       1 MTX301      0.0000 
     30 CG         22.7220  -38.2970    3.3010 C.3       1 MTX301      0.0000 
     31 CD         23.7060  -38.6700    2.2230 C.2       1 MTX301      0.0000 
     32 OE1        24.9330  -38.4900    2.4060 O.co2     1 MTX301      0.0000 
     33 OE2        23.3020  -39.1540    1.1480 O.co2     1 MTX301      0.0000 
     34 H          13.3647  -34.0357   -5.4026 H         1 MTX301      0.0000 
     35 H          13.7768  -35.7344   -5.8148 H         1 MTX301      0.0000 
     36 H          10.0088  -34.5861   -1.9150 H         1 MTX301      0.0000 
     37 H          10.2564  -36.0247   -0.8688 H         1 MTX301      0.0000 
     38 H          15.5255  -37.7758    0.6953 H         1 MTX301      0.0000 
     39 H          13.7056  -38.5984    2.2574 H         1 MTX301      0.0000 
     40 H          12.2197  -37.6350    2.3218 H         1 MTX301      0.0000 
     41 H          17.5953  -39.2141    3.8339 H         1 MTX301      0.0000 
     42 H          15.2429  -38.9371    3.3036 H         1 MTX301      0.0000 
     43 H          15.7158  -34.7728    3.4395 H         1 MTX301      0.0000 
     44 H          18.0650  -35.0411    3.9622 H         1 MTX301      0.0000 
     45 H          20.0555  -35.4531    3.4970 H         1 MTX301      0.0000 
     46 H          21.8552  -37.0229    5.2873 H         1 MTX301      0.0000 
     47 H          23.5672  -36.3343    3.4006 H         1 MTX301      0.0000 
     48 H          22.1231  -36.4607    2.3814 H         1 MTX301      0.0000 
     49 H          21.7615  -38.7497    3.0916 H         1 MTX301      0.0000 
     50 H          23.0870  -38.6355    4.2620 H         1 MTX301      0.0000 
     51 H          13.8572  -34.7461    3.8382 H         1 MTX301      0.0000 
     52 H          13.2662  -34.8148    2.3441 H         1 MTX301      0.0000 
     53 H          12.4044  -35.3842    3.5767 H         1 MTX301      0.0000 
@<TRIPOS>BOND
     1    2    1 ar   
     2   12    1 ar   
     3    3    2 1    
     4    4    2 ar   
     5   34    3 1    
     6   35    3 1    
     7    5    4 ar   
     8    6    5 1    
     9    7    5 ar   
    10   36    6 1    
    11   37    6 1    
    12    8    7 ar   
    13   12    7 ar   
    14    9    8 ar   
    15   10    9 ar   
    16   13    9 1    
    17   11   10 ar   
    18   38   10 1    
    19   12   11 ar   
    20   14   13 1    
    21   39   13 1    
    22   40   13 1    
    23   15   14 1    
    24   19   14 1    
    25   51   15 1    
    26   52   15 1    
    27   53   15 1    
    28   17   16 ar   
    29   21   16 ar   
    30   22   16 1    
    31   18   17 ar   
    32   41   17 1    
    33   19   18 ar   
    34   42   18 1    
    35   20   19 ar   
    36   21   20 ar   
    37   43   20 1    
    38   44   21 1    
    39   23   22 2    
    40   24   22 am   
    41   25   24 1    
    42   45   24 1    
    43   26   25 1    
    44   29   25 1    
    45   46   25 1    
    46   27   26 ar   
    47   28   26 ar   
    48   30   29 1    
    49   47   29 1    
    50   48   29 1    
    51   31   30 1    
    52   49   30 1    
    53   50   30 1    
    54   32   31 ar   
    55   33   31 ar   
@<TRIPOS>SUBSTRUCTURE
     1 MTX301      1 GROUP   
@<TRIPOS>SET

