#    Name: 3vuc_HHE_1_INTS_M
#    Modification time : Tue Mar 25 01:37:03 2014

@<TRIPOS>MOLECULE
3vuc_HHE_1_INTS_M
   73     0     9     0     0
SMALL
NO_CHARGES


@<TRIPOS>ATOM
      1 CA        183.4250  200.5885  102.4185 C.3       3 GLC5        0.0000 
      2 CA        182.7800  200.1490  104.3010 C.3       9 GLL5        0.0000 
      3 CA        184.0700  201.0280  100.5360 C.3       6 GLP5        0.0000 
      4 CA        184.8360  197.6870  105.6555 C.3       3 GLC5        0.0000 
      5 CA        183.1360  198.9610  105.2020 C.3       9 GLL5        0.0000 
      6 CA        186.5360  196.4130  106.1090 C.3       6 GLP5        0.0000 
      7 CA        184.3525  201.7855  102.7375 C.3       3 GLC5        0.0000 
      8 CA        183.8690  201.2650  104.5360 C.3       9 GLL5        0.0000 
      9 CA        184.8360  202.3060  100.9390 C.3       6 GLP5        0.0000 
     10 O         181.9665  202.8260  102.9985 O.2       1 ALC1        0.0000 
     11 O         181.0440  201.7890  103.8030 O.2       7 ALL1        0.0000 
     12 O         182.8890  203.8630  102.1940 O.2       4 ALP1        0.0000 
     13 CA        177.7815  198.1965   93.5425 C.3       3 GLC5        0.0000 
     14 CA        177.5750  199.5210   94.7950 C.3       9 GLL5        0.0000 
     15 CA        177.9880  196.8720   92.2900 C.3       6 GLP5        0.0000 
     16 CA        180.5120  201.1030   93.6105 C.3       3 GLC5        0.0000 
     17 CA        179.8700  200.2460   95.2570 C.3       9 GLL5        0.0000 
     18 CA        181.1540  201.9600   91.9640 C.3       6 GLP5        0.0000 
     19 CA        181.4965  201.3450   95.5270 C.3       3 GLC5        0.0000 
     20 CA        183.1230  202.4440   95.7970 C.3       6 GLP5        0.0000 
     21 CA        179.7435  202.3615   94.8700 C.3       3 GLC5        0.0000 
     22 CA        179.6170  204.4770   94.4830 C.3       6 GLP5        0.0000 
     23 CA        179.7610  197.2655   97.8530 C.3       3 GLC5        0.0000 
     24 CA        179.0290  198.1260   96.2900 C.3       9 GLL5        0.0000 
     25 CA        180.4930  196.4050   99.4160 C.3       6 GLP5        0.0000 
     26 CA        178.3695  196.0115   96.0780 C.3       3 GLC5        0.0000 
     27 CA        177.7100  193.8970   95.8660 C.3       6 GLP5        0.0000 
     28 CA        178.5085  197.4990   94.2900 C.3       3 GLC5        0.0000 
     29 CA        174.9645  195.8380   91.8665 C.3       3 GLC5        0.0000 
     30 CA        173.9440  197.1980   93.2340 C.3       9 GLL5        0.0000 
     31 CA        175.9850  194.4780   90.4990 C.3       6 GLP5        0.0000 
     32 N         174.5505  199.0295   98.2580 N.am      2 SEC2        0.0000 
     33 N         174.8500  199.0340   97.0370 N.am      8 SEL2        0.0000 
     34 N         174.2510  199.0250   99.4790 N.am      5 SEP2        0.0000 
     35 CA        174.5685  195.2635   95.9940 C.3       3 GLC5        0.0000 
     36 CA        175.5760  196.2760   95.0430 C.3       9 GLL5        0.0000 
     37 CA        173.5610  194.2510   96.9450 C.3       6 GLP5        0.0000 
     38 CA        176.6430  195.0865   95.4545 C.3       3 GLC5        0.0000 
     39 CA        176.7820  196.5740   93.6665 C.3       3 GLC5        0.0000 
     40 N         177.6070  200.5110  103.8600 N.am      2 SEC2        0.0000 
     41 N         178.8650  201.4320  103.8320 N.am      8 SEL2        0.0000 
     42 N         176.3490  199.5900  103.8880 N.am      5 SEP2        0.0000 
     43 O         181.5700  202.0810   99.0155 O.2       1 ALC1        0.0000 
     44 O         180.8320  202.4490  100.0650 O.2       7 ALL1        0.0000 
     45 O         182.3080  201.7130   97.9660 O.2       4 ALP1        0.0000 
     46 CA        179.9690  206.0830  105.9205 C.3       3 GLC5        0.0000 
     47 CA        179.3790  204.7090  104.7070 C.3       9 GLL5        0.0000 
     48 CA        180.5590  207.4570  107.1340 C.3       6 GLP5        0.0000 
     49 CA        181.3067  199.4363  102.8715 C.3       3 GLC5        0.0000 
     50 CA        181.3610  200.6240  104.6390 C.3       9 GLL5        0.0000 
     51 CA        180.5430  198.4860  101.2730 C.3       6 GLP5        0.0000 
     52 CA        185.0130  198.4260  107.1655 C.3       3 GLC5        0.0000 
     53 CA        183.0880  199.3960  106.6890 C.3       9 GLL5        0.0000 
     54 CA        186.4030  196.9040  107.5300 C.3       6 GLP5        0.0000 
     55 CA        185.6430  202.5333  105.6268 C.3       3 GLC5        0.0000 
     56 CA        183.8770  201.7320  106.0050 C.3       9 GLL5        0.0000 
     57 CA        187.4130  203.5680  105.9830 C.3       6 GLP5        0.0000 
     58 CA        179.8275  199.8991  100.1029 C.3       3 GLC5        0.0000 
     59 CA        179.4740  202.0200  100.3570 C.3       9 GLL5        0.0000 
     60 CA        180.6901  198.1066   95.3496 C.3       3 GLC5        0.0000 
     61 CA        182.2360  197.1940   94.7630 C.3       6 GLP5        0.0000 
     62 CA        174.1460  199.6065   90.8072 C.3       3 GLC5        0.0000 
     63 CA        173.7290  199.5400   92.7430 C.3       9 GLL5        0.0000 
     64 CA        174.7530  200.3300   88.9900 C.3       6 GLP5        0.0000 
     65 CA        173.4215  195.9975   94.8785 C.3       3 GLC5        0.0000 
     66 CA        172.4210  194.6220   96.0600 C.3       6 GLP5        0.0000 
     67 CA        180.8888  204.0974  101.0060 C.3       3 GLC5        0.0000 
     68 CA        182.4950  205.2720  100.3140 C.3       6 GLP5        0.0000 
     69 CA        179.1592  206.2103  103.3918 C.3       3 GLC5        0.0000 
     70 CA        178.6260  204.3300  103.4020 C.3       9 GLL5        0.0000 
     71 CA        179.3160  207.9010  102.7290 C.3       6 GLP5        0.0000 
     72 CA        177.7212  204.9963  105.4183 C.3       3 GLC5        0.0000 
     73 CA        176.4400  205.4730  106.7820 C.3       6 GLP5        0.0000 
@<TRIPOS>BOND
@<TRIPOS>SUBSTRUCTURE
     1 ALC1       10 GROUP        1 X    ALC  0     ROOT ALC X 1
     2 SEC2       32 GROUP        1 X    SEC  0     **** SEC X 2
     3 GLC5        1 GROUP        1 X    GLC  0     **** GLC X 6
     4 ALP1       12 GROUP        1 Y    ALP  0     ROOT ALP Y 8
     5 SEP2       34 GROUP        1 Y    SEP  0     **** SEP Y 9
     6 GLP5        3 GROUP        1 Y    GLP  0     **** GLP Y 13
     7 ALL1       11 GROUP        1 Z    ALL  0     ROOT ALL Z 15
     8 SEL2       33 GROUP        1 Z    SEL  0     **** SEL Z 16
     9 GLL5        2 GROUP        1 Z    GLL  0     **** GLL Z 20
@<TRIPOS>SET

