#    Name: 3vuc_HHE_1_ligand
#    Modification time : Tue Mar 25 01:37:03 2014

@<TRIPOS>MOLECULE
3vuc_HHE_1_ligand
   83    87     1     0     0
SMALL
NO_CHARGES


@<TRIPOS>ATOM
      1 C1        181.3610  200.6240  104.6390 C.3       1 HHE402      0.0000 
      2 C2        182.7800  200.1490  104.3010 C.3       1 HHE402      0.0000 
      3 C3        181.3830  201.1180  106.0820 C.3       1 HHE402      0.0000 
      4 C4        183.1360  198.9610  105.2020 C.3       1 HHE402      0.0000 
      5 C5        181.6980  199.9620  107.0290 C.3       1 HHE402      0.0000 
      6 C6        183.0880  199.3960  106.6890 C.3       1 HHE402      0.0000 
      7 C7        182.4530  202.2570  106.2670 C.3       1 HHE402      0.0000 
      8 C8        183.8770  201.7320  106.0050 C.3       1 HHE402      0.0000 
      9 C9        183.8690  201.2650  104.5360 C.3       1 HHE402      0.0000 
     10 C10       184.1580  200.5000  106.9130 C.3       1 HHE402      0.0000 
     11 O11       183.2390  198.2400  107.5260 O.3       1 HHE402      0.0000 
     12 N12       181.0440  201.7890  103.8030 N.am      1 HHE402      0.0000 
     13 C13       179.4740  202.0200  100.3570 C.3       1 HHE402      0.0000 
     14 C14       178.6660  201.8430   99.0580 C.3       1 HHE402      0.0000 
     15 C15       179.1540  200.6930   98.1580 C.3       1 HHE402      0.0000 
     16 N16       178.7680  203.1200   98.3150 N.3       1 HHE402      0.0000 
     17 N17       178.1460  200.3700   97.1090 N.4       1 HHE402      0.0000 
     18 C18       176.9800  199.6990   97.6980 C.3       1 HHE402      0.0000 
     19 C19       175.9630  199.2990   96.6590 C.2       1 HHE402      0.0000 
     20 N20       176.2450  199.2080   95.3400 N.am      1 HHE402      0.0000 
     21 C21       177.5750  199.5210   94.7950 C.3       1 HHE402      0.0000 
     22 C22       178.6490  199.5790   95.9080 C.3       1 HHE402      0.0000 
     23 C23       179.8700  200.2460   95.2570 C.3       1 HHE402      0.0000 
     24 C24       179.0290  198.1260   96.2900 C.3       1 HHE402      0.0000 
     25 C25       175.2630  198.8500   94.4160 C.ar      1 HHE402      0.0000 
     26 C26       174.6600  199.8690   93.7030 C.ar      1 HHE402      0.0000 
     27 C27       173.7290  199.5400   92.7430 C.ar      1 HHE402      0.0000 
     28 C28       173.3490  198.2260   92.5060 C.ar      1 HHE402      0.0000 
     29 C29       173.9440  197.1980   93.2340 C.ar      1 HHE402      0.0000 
     30 C30       174.9000  197.5480   94.1600 C.ar      1 HHE402      0.0000 
     31 O31       174.8500  199.0340   97.0370 O.2       1 HHE402      0.0000 
     32 CL        175.5760  196.2760   95.0430 Cl        1 HHE402      0.0000 
     33 C33       178.7280  203.0250  101.2650 C.3       1 HHE402      0.0000 
     34 C34       179.4640  203.3230  102.5850 C.3       1 HHE402      0.0000 
     35 C35       179.7790  202.1090  103.4450 C.2       1 HHE402      0.0000 
     36 O36       178.8650  201.4320  103.8320 O.2       1 HHE402      0.0000 
     37 C37       178.6260  204.3300  103.4020 C.3       1 HHE402      0.0000 
     38 O38       180.8320  202.4490  100.0650 O.3       1 HHE402      0.0000 
     39 C39       179.3790  204.7090  104.7070 C.3       1 HHE402      0.0000 
     40 H         180.6807  199.8536  104.5307 H         1 HHE402      0.0000 
     41 H         182.8321  199.8357  103.2844 H         1 HHE402      0.0000 
     42 H         180.4218  201.5265  106.3352 H         1 HHE402      0.0000 
     43 H         184.1345  198.6162  104.9699 H         1 HHE402      0.0000 
     44 H         182.4234  198.1623  105.0474 H         1 HHE402      0.0000 
     45 H         180.9591  199.1830  106.9087 H         1 HHE402      0.0000 
     46 H         181.7005  200.3189  108.0488 H         1 HHE402      0.0000 
     47 H         182.3826  202.6291  107.2829 H         1 HHE402      0.0000 
     48 H         182.2247  203.0556  105.5702 H         1 HHE402      0.0000 
     49 H         184.5764  202.4733  106.1463 H         1 HHE402      0.0000 
     50 H         183.6423  202.1028  103.8879 H         1 HHE402      0.0000 
     51 H         184.8376  200.8542  104.2784 H         1 HHE402      0.0000 
     52 H         185.1349  200.1005  106.6727 H         1 HHE402      0.0000 
     53 H         184.1330  200.8126  107.9490 H         1 HHE402      0.0000 
     54 H         181.8591  202.3618  103.4977 H         1 HHE402      0.0000 
     55 H         179.4727  201.0597  100.8683 H         1 HHE402      0.0000 
     56 H         177.6330  201.6736   99.3192 H         1 HHE402      0.0000 
     57 H         179.3406  199.8193   98.7870 H         1 HHE402      0.0000 
     58 H         180.0982  200.9935   97.6974 H         1 HHE402      0.0000 
     59 H         177.7674  201.3522   96.6978 H         1 HHE402      0.0000 
     60 H         176.4906  200.3614   98.4334 H         1 HHE402      0.0000 
     61 H         177.2976  198.7949   98.2465 H         1 HHE402      0.0000 
     62 H         177.5690  200.4916   94.2843 H         1 HHE402      0.0000 
     63 H         177.8872  198.7620   94.0674 H         1 HHE402      0.0000 
     64 H         174.9015  200.8452   93.8860 H         1 HHE402      0.0000 
     65 H         173.2925  200.2994   92.1730 H         1 HHE402      0.0000 
     66 H         172.6365  198.0115   91.8015 H         1 HHE402      0.0000 
     67 H         173.6778  196.2331   93.0818 H         1 HHE402      0.0000 
     68 H         177.7337  202.6225  101.4940 H         1 HHE402      0.0000 
     69 H         178.5902  203.9632  100.7137 H         1 HHE402      0.0000 
     70 H         180.4036  203.8343  102.3392 H         1 HHE402      0.0000 
     71 H         177.6783  203.8807  103.6609 H         1 HHE402      0.0000 
     72 H         178.4676  205.2233  102.8156 H         1 HHE402      0.0000 
     73 H         180.6331  200.3299   95.8978 H         1 HHE402      0.0000 
     74 H         180.2030  199.7248   94.4713 H         1 HHE402      0.0000 
     75 H         179.6595  201.1672   94.9297 H         1 HHE402      0.0000 
     76 H         179.3602  197.6090   95.5007 H         1 HHE402      0.0000 
     77 H         179.7513  198.1005   96.9811 H         1 HHE402      0.0000 
     78 H         178.2487  197.6239   96.6629 H         1 HHE402      0.0000 
     79 H         180.2681  205.1247  104.5154 H         1 HHE402      0.0000 
     80 H         178.8616  205.3643  105.2574 H         1 HHE402      0.0000 
     81 H         179.5473  203.9099  105.2841 H         1 HHE402      0.0000 
     82 H         182.9978  197.4647  106.9423 H         1 HHE402      0.0000 
     83 H         181.0880  201.9513   99.2363 H         1 HHE402      0.0000 
@<TRIPOS>BOND
     1    2    1 1    
     2    3    1 1    
     3   12    1 1    
     4   40    1 1    
     5    4    2 1    
     6    9    2 1    
     7   41    2 1    
     8    5    3 1    
     9    7    3 1    
    10   42    3 1    
    11    6    4 1    
    12   43    4 1    
    13   44    4 1    
    14    6    5 1    
    15   45    5 1    
    16   46    5 1    
    17   10    6 1    
    18   11    6 1    
    19    8    7 1    
    20   47    7 1    
    21   48    7 1    
    22    9    8 1    
    23   10    8 1    
    24   49    8 1    
    25   50    9 1    
    26   51    9 1    
    27   52   10 1    
    28   53   10 1    
    29   82   11 1    
    30   35   12 am   
    31   54   12 1    
    32   14   13 1    
    33   33   13 1    
    34   38   13 1    
    35   55   13 1    
    36   15   14 1    
    37   16   14 1    
    38   56   14 1    
    39   17   15 1    
    40   57   15 1    
    41   58   15 1    
    42   18   17 1    
    43   22   17 1    
    44   59   17 1    
    45   19   18 1    
    46   60   18 1    
    47   61   18 1    
    48   20   19 am   
    49   31   19 2    
    50   21   20 1    
    51   25   20 1    
    52   22   21 1    
    53   62   21 1    
    54   63   21 1    
    55   23   22 1    
    56   24   22 1    
    57   73   23 1    
    58   74   23 1    
    59   75   23 1    
    60   76   24 1    
    61   77   24 1    
    62   78   24 1    
    63   26   25 ar   
    64   30   25 ar   
    65   27   26 ar   
    66   64   26 1    
    67   28   27 ar   
    68   65   27 1    
    69   29   28 ar   
    70   66   28 1    
    71   30   29 ar   
    72   67   29 1    
    73   32   30 1    
    74   34   33 1    
    75   68   33 1    
    76   69   33 1    
    77   35   34 1    
    78   37   34 1    
    79   70   34 1    
    80   36   35 2    
    81   39   37 1    
    82   71   37 1    
    83   72   37 1    
    84   83   38 1    
    85   79   39 1    
    86   80   39 1    
    87   81   39 1    
@<TRIPOS>SUBSTRUCTURE
     1 HHE402      1 GROUP   
@<TRIPOS>SET

