#    Name: 2xs0_ANP_1_INTS_M
#    Modification time : Tue Mar 25 06:32:59 2014

@<TRIPOS>MOLECULE
2xs0_ANP_1_INTS_M
   63     0    12     0     0
SMALL
NO_CHARGES


@<TRIPOS>ATOM
      1 NZ        -31.6760    6.7615    7.6320 N.4       3 LYC4        0.0000 
      2 NZ        -30.7920    5.1050    7.4000 N.4      11 LYL4        0.0000 
      3 NZ        -32.5600    8.4180    7.8640 N.4       7 LYP4        0.0000 
      4 N         -32.1730    5.5295    8.0420 N.am      2 SEC2        0.0000 
      5 N         -30.7920    5.1050    7.4000 N.am     10 SEL2        0.0000 
      6 N         -33.5540    5.9540    8.6840 N.am      6 SEP2        0.0000 
      7 NZ        -25.5785    5.5935    9.3100 N.4       3 LYC4        0.0000 
      8 NZ        -26.4070    6.7970    8.1460 N.4      11 LYL4        0.0000 
      9 NZ        -24.7500    4.3900   10.4740 N.4       7 LYP4        0.0000 
     10 NZ        -31.2350    8.6140    6.6675 N.4       3 LYC4        0.0000 
     11 NZ        -29.9100    8.8100    5.4710 N.4      11 LYL4        0.0000 
     12 NZ        -30.7630    8.9180    7.7980 N.4       3 LYC4        0.0000 
     13 NZ        -28.9660    9.4180    7.7320 N.4      11 LYL4        0.0000 
     14 CA        -27.5395    8.0155    2.4215 C.3       4 GLC5        0.0000 
     15 CA        -27.3150    8.8570    4.4550 C.3      12 GLL5        0.0000 
     16 CA        -27.7640    7.1740    0.3880 C.3       8 GLP5        0.0000 
     17 CA        -26.2485   10.1675    1.8550 C.3       4 GLC5        0.0000 
     18 CA        -26.3030    9.7620    3.9380 C.3      12 GLL5        0.0000 
     19 CA        -26.1940   10.5730   -0.2280 C.3       8 GLP5        0.0000 
     20 N         -22.8915    9.8040    4.8360 N.am      2 SEC2        0.0000 
     21 N         -24.2990    9.5350    5.2020 N.am     10 SEL2        0.0000 
     22 N         -21.4840   10.0730    4.4700 N.am      6 SEP2        0.0000 
     23 O         -23.9395    9.3175    6.5635 O.2       1 ALC1        0.0000 
     24 O         -24.2990    9.5350    5.2020 O.2       9 ALL1        0.0000 
     25 O         -23.5800    9.1000    7.9250 O.2       5 ALP1        0.0000 
     26 CA        -23.1350   11.6035    5.4495 C.3       4 GLC5        0.0000 
     27 CA        -25.1010   11.6070    4.5830 C.3      12 GLL5        0.0000 
     28 CA        -21.1690   11.6000    6.3160 C.3       8 GLP5        0.0000 
     29 CA        -24.6210   12.9550    6.0780 C.3       4 GLC5        0.0000 
     30 CA        -24.1410   14.3030    7.5730 C.3       8 GLP5        0.0000 
     31 N         -22.7385   10.8140    4.0930 N.am      2 SEC2        0.0000 
     32 N         -23.9930   11.5550    3.7160 N.am     10 SEL2        0.0000 
     33 CA        -26.2265   11.3075    1.7990 C.3       4 GLC5        0.0000 
     34 CA        -26.2590   12.0420    3.8260 C.3      12 GLL5        0.0000 
     35 O         -29.6020   17.8870    6.9115 O.2       1 ALC1        0.0000 
     36 O         -29.3000   16.4310    6.7370 O.2       9 ALL1        0.0000 
     37 O         -29.9040   19.3430    7.0860 O.2       5 ALP1        0.0000 
     38 N         -26.8225   18.2670    5.4695 N.am      2 SEC2        0.0000 
     39 N         -27.2540   16.8370    5.4690 N.am     10 SEL2        0.0000 
     40 N         -26.3910   19.6970    5.4700 N.am      6 SEP2        0.0000 
     41 CA        -27.1890   16.0410    3.0820 C.3       4 GLC5        0.0000 
     42 CA        -26.2350   16.4060    4.7070 C.3      12 GLL5        0.0000 
     43 CA        -28.1430   15.6760    1.4570 C.3       8 GLP5        0.0000 
     44 CA        -27.2260   17.8155    3.4705 C.3       4 GLC5        0.0000 
     45 CA        -28.2170   19.2250    2.2340 C.3       8 GLP5        0.0000 
     46 CA        -25.4165   17.6035    5.7965 C.3       4 GLC5        0.0000 
     47 CA        -24.5980   18.8010    6.8860 C.3       8 GLP5        0.0000 
     48 CA        -25.1880   15.3545    6.1400 C.3       4 GLC5        0.0000 
     49 CA        -25.9540   11.3180    6.6725 C.3       4 GLC5        0.0000 
     50 CA        -26.6340   11.6860    8.5370 C.3       8 GLP5        0.0000 
     51 CA        -29.1258   13.8320    3.8128 C.3       4 GLC5        0.0000 
     52 CA        -27.0270   14.2140    4.7790 C.3      12 GLL5        0.0000 
     53 CA        -30.6850   13.2470    2.4510 C.3       8 GLP5        0.0000 
     54 CA        -29.6088   16.3818    4.8383 C.3       4 GLC5        0.0000 
     55 CA        -28.1060   14.6200    5.5700 C.3      12 GLL5        0.0000 
     56 CA        -31.0680   17.4720    3.9380 C.3       8 GLP5        0.0000 
     57 CA        -30.2313   14.8392    6.0857 C.3       4 GLC5        0.0000 
     58 CA        -28.1930   15.9630    5.9070 C.3      12 GLL5        0.0000 
     59 CA        -32.3130   14.3870    6.4330 C.3       8 GLP5        0.0000 
     60 CA        -25.8537   14.3600    6.3738 C.3       4 GLC5        0.0000 
     61 CA        -28.0252   14.4727    7.5708 C.3       4 GLC5        0.0000 
     62 CA        -27.9010   13.6540    9.4030 C.3       8 GLP5        0.0000 
     63 CA        -27.8656   15.2144    3.3579 C.3       4 GLC5        0.0000 
@<TRIPOS>BOND
@<TRIPOS>SUBSTRUCTURE
     1 ALC1       23 GROUP        1 X    ALC  0     ROOT ALC X 1
     2 SEC2        4 GROUP        1 X    SEC  0     **** SEC X 2
     3 LYC4        1 GROUP        1 X    LYC  0     **** LYC X 4
     4 GLC5       14 GROUP        1 X    GLC  0     **** GLC X 6
     5 ALP1       25 GROUP        1 Y    ALP  0     ROOT ALP Y 8
     6 SEP2        6 GROUP        1 Y    SEP  0     **** SEP Y 9
     7 LYP4        3 GROUP        1 Y    LYP  0     **** LYP Y 11
     8 GLP5       16 GROUP        1 Y    GLP  0     **** GLP Y 13
     9 ALL1       24 GROUP        1 Z    ALL  0     ROOT ALL Z 15
    10 SEL2        5 GROUP        1 Z    SEL  0     **** SEL Z 16
    11 LYL4        2 GROUP        1 Z    LYL  0     **** LYL Z 18
    12 GLL5       15 GROUP        1 Z    GLL  0     **** GLL Z 20
@<TRIPOS>SET

