#    Name: 2xs0_ANP_1_ligand
#    Modification time : Tue Mar 25 06:32:59 2014

@<TRIPOS>MOLECULE
2xs0_ANP_1_ligand
   43    45     1     0     0
SMALL
NO_CHARGES


@<TRIPOS>ATOM
      1 PG        -29.6910    4.8620    8.4250 P.3       1 ANP1367     0.0000 
      2 O1G       -30.7920    5.1050    7.4000 O.co2     1 ANP1367     0.0000 
      3 O2G       -30.0020    3.5140    9.1040 O.co2     1 ANP1367     0.0000 
      4 O3G       -29.6420    5.9890    9.4660 O.co2     1 ANP1367     0.0000 
      5 PB        -27.5840    6.1770    7.2490 P.3       1 ANP1367     0.0000 
      6 O1B       -27.2840    5.7350    5.7570 O.co2     1 ANP1367     0.0000 
      7 O2B       -26.4070    6.7970    8.1460 O.co2     1 ANP1367     0.0000 
      8 N3B       -28.2670    4.6940    7.6590 N.4       1 ANP1367     0.0000 
      9 PA        -28.8180    8.5440    6.5230 P.3       1 ANP1367     0.0000 
     10 O1A       -29.9100    8.8100    5.4710 O.co2     1 ANP1367     0.0000 
     11 O2A       -28.9660    9.4180    7.7320 O.co2     1 ANP1367     0.0000 
     12 O3A       -28.9060    7.0410    6.9220 O.3       1 ANP1367     0.0000 
     13 O5'       -27.4350    8.7920    5.8430 O.3       1 ANP1367     0.0000 
     14 C5'       -27.3150    8.8570    4.4550 C.3       1 ANP1367     0.0000 
     15 C4'       -26.3030    9.7620    3.9380 C.3       1 ANP1367     0.0000 
     16 O4'       -26.9470   10.8550    3.3980 O.3       1 ANP1367     0.0000 
     17 C3'       -25.4470   10.2930    5.0330 C.3       1 ANP1367     0.0000 
     18 O3'       -24.2990    9.5350    5.2020 O.3       1 ANP1367     0.0000 
     19 C2'       -25.1010   11.6070    4.5830 C.3       1 ANP1367     0.0000 
     20 O2'       -23.9930   11.5550    3.7160 O.3       1 ANP1367     0.0000 
     21 C1'       -26.2590   12.0420    3.8260 C.3       1 ANP1367     0.0000 
     22 N9        -27.1660   12.8860    4.5990 N.pl3     1 ANP1367     0.0000 
     23 C8        -28.2670   12.4710    5.2410 C.2       1 ANP1367     0.0000 
     24 N7        -28.8450   13.5210    5.8330 N.2       1 ANP1367     0.0000 
     25 C5        -28.1060   14.6200    5.5700 C.ar      1 ANP1367     0.0000 
     26 C6        -28.1930   15.9630    5.9070 C.ar      1 ANP1367     0.0000 
     27 N6        -29.3000   16.4310    6.7370 N.pl3     1 ANP1367     0.0000 
     28 N1        -27.2540   16.8370    5.4690 N.ar      1 ANP1367     0.0000 
     29 C2        -26.2350   16.4060    4.7070 C.ar      1 ANP1367     0.0000 
     30 N3        -26.1120   15.1270    4.3610 N.ar      1 ANP1367     0.0000 
     31 C4        -27.0270   14.2140    4.7790 C.ar      1 ANP1367     0.0000 
     32 H         -28.3106    9.1340    3.9840 H         1 ANP1367     0.0000 
     33 H         -27.1179    7.8242    4.0257 H         1 ANP1367     0.0000 
     34 H         -25.6855    9.2695    3.2201 H         1 ANP1367     0.0000 
     35 H         -26.0443   10.3640    5.9199 H         1 ANP1367     0.0000 
     36 H         -24.9484   12.2583    5.4063 H         1 ANP1367     0.0000 
     37 H         -25.9216   12.5861    2.9409 H         1 ANP1367     0.0000 
     38 H         -28.5911   11.5540    5.2702 H         1 ANP1367     0.0000 
     39 H         -29.9312   15.7284    7.0655 H         1 ANP1367     0.0000 
     40 H         -29.3357   17.4155    6.9085 H         1 ANP1367     0.0000 
     41 H         -25.5143   17.1061    4.3761 H         1 ANP1367     0.0000 
     42 H         -24.1701    9.4779    6.1920 H         1 ANP1367     0.0000 
     43 H         -24.2070   10.8257    3.0662 H         1 ANP1367     0.0000 
@<TRIPOS>BOND
     1    2    1 ar   
     2    3    1 ar   
     3    4    1 ar   
     4    8    1 1    
     5    6    5 ar   
     6    7    5 ar   
     7    8    5 1    
     8   12    5 1    
     9   10    9 ar   
    10   11    9 ar   
    11   12    9 1    
    12   13    9 1    
    13   14   13 1    
    14   15   14 1    
    15   32   14 1    
    16   33   14 1    
    17   16   15 1    
    18   17   15 1    
    19   34   15 1    
    20   21   16 1    
    21   18   17 1    
    22   19   17 1    
    23   35   17 1    
    24   42   18 1    
    25   20   19 1    
    26   21   19 1    
    27   36   19 1    
    28   43   20 1    
    29   22   21 1    
    30   37   21 1    
    31   23   22 1    
    32   31   22 1    
    33   24   23 2    
    34   38   23 1    
    35   25   24 1    
    36   26   25 ar   
    37   31   25 ar   
    38   27   26 1    
    39   28   26 ar   
    40   39   27 1    
    41   40   27 1    
    42   29   28 ar   
    43   30   29 ar   
    44   41   29 1    
    45   31   30 ar   
@<TRIPOS>SUBSTRUCTURE
     1 ANP1367     1 GROUP   
@<TRIPOS>SET

