#    Name: 4lww_LWW_2_INTS_M
#    Modification time : Tue Mar 25 11:35:00 2014

@<TRIPOS>MOLECULE
4lww_LWW_2_INTS_M
   57     0     6     0     0
SMALL
NO_CHARGES


@<TRIPOS>ATOM
      1 CA         10.4455   -4.2585   48.5625 C.3       2 GLC5        0.0000 
      2 CA          8.8560   -2.8160   49.0450 C.3       6 GLL5        0.0000 
      3 CA         12.0350   -5.7010   48.0800 C.3       4 GLP5        0.0000 
      4 CA         10.3015   -4.0115   51.1790 C.3       2 GLC5        0.0000 
      5 CA          9.6400   -2.3770   50.0980 C.3       6 GLL5        0.0000 
      6 CA         10.9630   -5.6460   52.2600 C.3       4 GLP5        0.0000 
      7 CA         10.2770   -2.4380   43.3905 C.3       2 GLC5        0.0000 
      8 CA         10.0910   -3.4300   44.9310 C.3       6 GLL5        0.0000 
      9 CA         10.4630   -1.4460   41.8500 C.3       4 GLP5        0.0000 
     10 CA         12.5230   -8.7390   41.4930 C.3       2 GLC5        0.0000 
     11 CA         10.6550   -7.8940   40.6270 C.3       6 GLL5        0.0000 
     12 CA         14.3910   -9.5840   42.3590 C.3       4 GLP5        0.0000 
     13 CA          7.6990   -9.1850   40.7185 C.3       2 GLC5        0.0000 
     14 CA          9.6300   -8.4600   39.9480 C.3       6 GLL5        0.0000 
     15 CA          5.7680   -9.9100   41.4890 C.3       4 GLP5        0.0000 
     16 CA         13.8335   -7.8610   37.1460 C.3       2 GLC5        0.0000 
     17 CA         11.7570   -7.5110   37.2180 C.3       6 GLL5        0.0000 
     18 CA         15.9100   -8.2110   37.0740 C.3       4 GLP5        0.0000 
     19 CA         13.1115   -6.0385   38.1775 C.3       2 GLC5        0.0000 
     20 CA         14.4660   -4.5660   39.1370 C.3       4 GLP5        0.0000 
     21 CA          8.3200   -5.7010   47.9705 C.3       2 GLC5        0.0000 
     22 CA          8.9500   -5.2760   45.9310 C.3       6 GLL5        0.0000 
     23 CA          7.6900   -6.1260   50.0100 C.3       4 GLP5        0.0000 
     24 CA         10.6690   -8.1210   45.1110 C.3       2 GLC5        0.0000 
     25 CA          9.8590   -6.1380   45.3400 C.3       6 GLL5        0.0000 
     26 CA         11.4790  -10.1040   44.8820 C.3       4 GLP5        0.0000 
     27 CA         11.1620   -3.2855   42.7860 C.3       2 GLC5        0.0000 
     28 CA         10.9950   -4.2940   44.3480 C.3       6 GLL5        0.0000 
     29 CA         11.3290   -2.2770   41.2240 C.3       4 GLP5        0.0000 
     30 CA         13.1415   -8.0850   43.1420 C.3       2 GLC5        0.0000 
     31 CA         11.8920   -6.5860   43.9250 C.3       6 GLL5        0.0000 
     32 CA         11.9635   -6.1435   46.0025 C.3       2 GLC5        0.0000 
     33 CA         11.6855   -8.3450   44.4035 C.3       2 GLC5        0.0000 
     34 O          12.8530   -5.6990   41.9950 O.2       1 ALC1        0.0000 
     35 O          11.7130   -6.8490   42.4980 O.2       5 ALL1        0.0000 
     36 O          13.9930   -4.5490   41.4920 O.2       3 ALP1        0.0000 
     37 O          12.9115   -6.6780   41.4895 O.2       1 ALC1        0.0000 
     38 O          14.1100   -6.5070   40.4810 O.2       3 ALP1        0.0000 
     39 CA          9.3190   -6.6620   36.7865 C.3       2 GLC5        0.0000 
     40 CA          9.3060   -8.7630   37.3970 C.3       6 GLL5        0.0000 
     41 CA          9.3320   -4.5610   36.1760 C.3       4 GLP5        0.0000 
     42 O          12.8640   -6.9800   40.1155 O.2       1 ALC1        0.0000 
     43 O          11.6180   -7.4530   39.7500 O.2       5 ALL1        0.0000 
     44 CA          8.4690   -4.3613   49.7908 C.3       2 GLC5        0.0000 
     45 CA          9.6092    1.0590   47.7937 C.3       2 GLC5        0.0000 
     46 CA          9.8400   -1.1630   47.6150 C.3       6 GLL5        0.0000 
     47 CA          8.9850    3.0600   47.4490 C.3       4 GLP5        0.0000 
     48 CA         11.8279   -2.6508   49.3915 C.3       2 GLC5        0.0000 
     49 CA         10.6270   -0.7210   48.6620 C.3       6 GLL5        0.0000 
     50 CA         13.3010   -4.0140   49.4520 C.3       4 GLP5        0.0000 
     51 CA          8.8268   -7.3915   46.0027 C.3       2 GLC5        0.0000 
     52 CA          8.2490   -9.0760   46.3700 C.3       4 GLP5        0.0000 
     53 CA          7.7001   -4.3545   44.3985 C.3       2 GLC5        0.0000 
     54 CA          6.1370   -4.2350   43.1710 C.3       4 GLP5        0.0000 
     55 CA         10.3181   -6.1390   36.8753 C.3       2 GLC5        0.0000 
     56 CA         11.2070   -7.7250   38.4790 C.3       6 GLL5        0.0000 
     57 CA         11.0039   -5.2428   46.6076 C.3       2 GLC5        0.0000 
@<TRIPOS>BOND
@<TRIPOS>SUBSTRUCTURE
     1 ALC1       34 GROUP        1 X    ALC  0     ROOT ALC X 1
     2 GLC5        1 GROUP        1 X    GLC  0     **** GLC X 6
     3 ALP1       36 GROUP        1 Y    ALP  0     ROOT ALP Y 8
     4 GLP5        3 GROUP        1 Y    GLP  0     **** GLP Y 13
     5 ALL1       35 GROUP        1 Z    ALL  0     ROOT ALL Z 15
     6 GLL5        2 GROUP        1 Z    GLL  0     **** GLL Z 20
@<TRIPOS>SET

