#    Name: 4lww_LWW_2_ligand
#    Modification time : Tue Mar 25 11:35:01 2014

@<TRIPOS>MOLECULE
4lww_LWW_2_ligand
   45    48     1     0     0
SMALL
NO_CHARGES


@<TRIPOS>ATOM
      1 C4          8.9460   -2.2020   47.8110 C.ar      1 LWW601      0.0000 
      2 C5          8.8560   -2.8160   49.0450 C.ar      1 LWW601      0.0000 
      3 C6          9.6400   -2.3770   50.0980 C.ar      1 LWW601      0.0000 
      4 C10         9.0620   -3.9140   45.7110 C.ar      1 LWW601      0.0000 
      5 C13        10.8810   -5.6540   44.5420 C.ar      1 LWW601      0.0000 
      6 C15        10.0910   -3.4300   44.9310 C.ar      1 LWW601      0.0000 
      7 C20        10.6550   -7.8940   40.6270 C.2       1 LWW601      0.0000 
      8 C21         9.6300   -8.4600   39.9480 C.2       1 LWW601      0.0000 
      9 C22         9.9480   -8.3710   38.5730 C.ar      1 LWW601      0.0000 
     10 C26        11.7570   -7.5110   37.2180 C.ar      1 LWW601      0.0000 
     11 C1         10.5250   -1.3310   49.9020 C.ar      1 LWW601      0.0000 
     12 C2         10.6270   -0.7210   48.6620 C.ar      1 LWW601      0.0000 
     13 C3          9.8400   -1.1630   47.6150 C.ar      1 LWW601      0.0000 
     14 S7          7.9660   -2.7540   46.4520 S.o2      1 LWW601      0.0000 
     15 O8          6.8060   -3.4150   46.9290 O.2       1 LWW601      0.0000 
     16 O9          7.9090   -1.6630   45.5360 O.2       1 LWW601      0.0000 
     17 C11         8.9500   -5.2760   45.9310 C.ar      1 LWW601      0.0000 
     18 C12         9.8590   -6.1380   45.3400 C.ar      1 LWW601      0.0000 
     19 C14        10.9950   -4.2940   44.3480 C.ar      1 LWW601      0.0000 
     20 C16        11.8920   -6.5860   43.9250 C.3       1 LWW601      0.0000 
     21 N17        11.7130   -6.8490   42.4980 N.am      1 LWW601      0.0000 
     22 C18        10.7700   -7.7170   42.0740 C.2       1 LWW601      0.0000 
     23 O19        10.0110   -8.2700   42.8530 O.2       1 LWW601      0.0000 
     24 C23         9.3060   -8.7630   37.3970 C.ar      1 LWW601      0.0000 
     25 N24         9.8640   -8.5040   36.2300 N.ar      1 LWW601      0.0000 
     26 C25        11.0460   -7.9070   36.1220 C.ar      1 LWW601      0.0000 
     27 C27        11.2070   -7.7250   38.4790 C.ar      1 LWW601      0.0000 
     28 N28        11.6180   -7.4530   39.7500 N.pl3     1 LWW601      0.0000 
     29 H           8.2038   -3.6032   49.1835 H         1 LWW601      0.0000 
     30 H           9.5653   -2.8251   51.0198 H         1 LWW601      0.0000 
     31 H          10.1864   -2.4095   44.7813 H         1 LWW601      0.0000 
     32 H           8.8420   -8.8479   40.2913 H         1 LWW601      0.0000 
     33 H          12.6727   -7.0667   37.1283 H         1 LWW601      0.0000 
     34 H          11.1137   -1.0024   50.6849 H         1 LWW601      0.0000 
     35 H          11.2853    0.0565   48.5228 H         1 LWW601      0.0000 
     36 H           9.9180   -0.7196   46.6877 H         1 LWW601      0.0000 
     37 H           8.2000   -5.6445   46.5269 H         1 LWW601      0.0000 
     38 H           9.7723   -7.1585   45.4977 H         1 LWW601      0.0000 
     39 H          11.7610   -3.9192   43.7632 H         1 LWW601      0.0000 
     40 H          11.8721   -7.5479   44.4949 H         1 LWW601      0.0000 
     41 H          12.9115   -6.1654   44.1097 H         1 LWW601      0.0000 
     42 H          12.3340   -6.3449   41.8522 H         1 LWW601      0.0000 
     43 H           8.3951   -9.2539   37.4774 H         1 LWW601      0.0000 
     44 H          11.4609   -7.7266   35.1679 H         1 LWW601      0.0000 
     45 H          12.4403   -7.0256   39.9983 H         1 LWW601      0.0000 
@<TRIPOS>BOND
     1    2    1 ar   
     2   13    1 ar   
     3   14    1 1    
     4    3    2 ar   
     5   29    2 1    
     6   11    3 ar   
     7   30    3 1    
     8    6    4 ar   
     9   14    4 1    
    10   17    4 ar   
    11   18    5 ar   
    12   19    5 ar   
    13   20    5 1    
    14   19    6 ar   
    15   31    6 1    
    16    8    7 2    
    17   22    7 1    
    18   28    7 1    
    19    9    8 1    
    20   32    8 1    
    21   24    9 ar   
    22   27    9 ar   
    23   26   10 ar   
    24   27   10 ar   
    25   33   10 1    
    26   12   11 ar   
    27   34   11 1    
    28   13   12 ar   
    29   35   12 1    
    30   36   13 1    
    31   15   14 2    
    32   16   14 2    
    33   18   17 ar   
    34   37   17 1    
    35   38   18 1    
    36   39   19 1    
    37   21   20 1    
    38   40   20 1    
    39   41   20 1    
    40   22   21 am   
    41   42   21 1    
    42   23   22 2    
    43   25   24 ar   
    44   43   24 1    
    45   26   25 ar   
    46   44   26 1    
    47   28   27 1    
    48   45   28 1    
@<TRIPOS>SUBSTRUCTURE
     1 LWW601      1 GROUP   
@<TRIPOS>SET

