#    Name: 1pg0_MOD_1_INTS_M
#    Modification time : Mon Mar 24 21:22:17 2014

@<TRIPOS>MOLECULE
1pg0_MOD_1_INTS_M
   82     0    12     0     0
SMALL
NO_CHARGES


@<TRIPOS>ATOM
      1 OD1        13.1435    7.7415   18.5265 O.co2     3 ASC3        0.0000 
      2 OD1        13.5190    8.1690   19.7240 O.co2    11 ASL3        0.0000 
      3 OD1        12.7680    7.3140   17.3290 O.co2     7 ASP3        0.0000 
      4 O          12.8035    7.3395   20.5100 O.2       1 ALC1        0.0000 
      5 O          13.5190    8.1690   19.7240 O.2       9 ALL1        0.0000 
      6 O          12.0880    6.5100   21.2960 O.2       5 ALP1        0.0000 
      7 O          13.1435    7.7415   18.5265 O.2       1 ALC1        0.0000 
      8 O          12.7680    7.3140   17.3290 O.2       5 ALP1        0.0000 
      9 CA         14.6820    9.5765   19.3170 C.3       4 GLC5        0.0000 
     10 CA         13.0350    9.5080   20.1160 C.3      12 GLL5        0.0000 
     11 CA         16.3290    9.6450   18.5180 C.3       8 GLP5        0.0000 
     12 CA         10.3675    9.5375   22.1805 C.3       4 GLC5        0.0000 
     13 CA         11.5370    9.5750   20.4650 C.3      12 GLL5        0.0000 
     14 CA          9.1980    9.5000   23.8960 C.3       8 GLP5        0.0000 
     15 CA         10.6105   11.2000   21.5010 C.3       4 GLC5        0.0000 
     16 CA          9.6840   12.8250   22.5370 C.3       8 GLP5        0.0000 
     17 CA         10.1185    7.0955   19.9420 C.3       4 GLC5        0.0000 
     18 CA         10.5640    9.1060   19.3760 C.3      12 GLL5        0.0000 
     19 CA          9.6730    5.0850   20.5080 C.3       8 GLP5        0.0000 
     20 CA         10.1830    8.4905   17.3420 C.3       4 GLC5        0.0000 
     21 CA          9.8020    7.8750   15.3080 C.3       8 GLP5        0.0000 
     22 CA          9.0505    9.3955   21.9600 C.3       4 GLC5        0.0000 
     23 CA          8.9030    9.2910   20.0240 C.3      12 GLL5        0.0000 
     24 CA          9.2935   11.0580   21.2805 C.3       4 GLC5        0.0000 
     25 CA          8.8665    8.2880   16.9615 C.3       4 GLC5        0.0000 
     26 CA          7.9310    8.7010   18.6150 C.3      12 GLL5        0.0000 
     27 CA          6.6965    8.4850   17.2700 C.3       4 GLC5        0.0000 
     28 CA          5.4620    8.2690   15.9250 C.3       8 GLP5        0.0000 
     29 CA         15.3150    9.3835   20.4090 C.3       4 GLC5        0.0000 
     30 CA         13.8190   10.0120   21.3420 C.3      12 GLL5        0.0000 
     31 CA         16.8110    8.7550   19.4760 C.3       8 GLP5        0.0000 
     32 N          15.5535    6.8540   22.7835 N.am      2 SEC2        0.0000 
     33 N          15.6100    8.0610   23.8170 N.am     10 SEL2        0.0000 
     34 N          15.4970    5.6470   21.7500 N.am      6 SEP2        0.0000 
     35 N          16.0695    7.8880   25.3415 N.am      2 SEC2        0.0000 
     36 N          16.5290    7.7150   26.8660 N.am      6 SEP2        0.0000 
     37 CA         13.3555    7.2825   24.1140 C.3       4 GLC5        0.0000 
     38 CA         13.0750    9.3080   24.9530 C.3      12 GLL5        0.0000 
     39 CA         13.6360    5.2570   23.2750 C.3       8 GLP5        0.0000 
     40 CA         10.9225   12.2395   23.9570 C.3       4 GLC5        0.0000 
     41 CA         12.1610   11.6540   25.3770 C.3      12 GLL5        0.0000 
     42 N           9.9505   13.1570   26.0325 N.am      2 SEC2        0.0000 
     43 N          10.7800   11.9990   25.5070 N.am     10 SEL2        0.0000 
     44 N           9.1210   14.3150   26.5580 N.am      6 SEP2        0.0000 
     45 O          10.2350   11.5345   26.6855 O.2       1 ALC1        0.0000 
     46 O          10.7800   11.9990   25.5070 O.2       9 ALL1        0.0000 
     47 O           9.6900   11.0700   27.8640 O.2       5 ALP1        0.0000 
     48 CA         11.5395   13.9235   26.6660 C.3       4 GLC5        0.0000 
     49 CA         13.0810   12.5110   26.2280 C.3      12 GLL5        0.0000 
     50 CA          9.9980   15.3360   27.1040 C.3       8 GLP5        0.0000 
     51 O          12.8230   14.7480   25.4945 O.2       1 ALC1        0.0000 
     52 O          12.6260   13.8360   26.3770 O.2       9 ALL1        0.0000 
     53 O          13.0200   15.6600   24.6120 O.2       5 ALP1        0.0000 
     54 CA         14.3395    9.7605   27.5940 C.3       4 GLC5        0.0000 
     55 CA         13.2520   11.6850   27.5100 C.3      12 GLL5        0.0000 
     56 CA         15.4270    7.8360   27.6780 C.3       8 GLP5        0.0000 
     57 CA         15.4840   15.2320   31.6120 C.3       4 GLC5        0.0000 
     58 CA         16.4310   13.4020   30.7770 C.3      12 GLL5        0.0000 
     59 CA         14.5370   17.0620   32.4470 C.3       8 GLP5        0.0000 
     60 CA         15.2375   12.1310   32.0795 C.3       4 GLC5        0.0000 
     61 CA         14.1360   13.6320   31.3970 C.3      12 GLL5        0.0000 
     62 CA         16.3390   10.6300   32.7620 C.3       8 GLP5        0.0000 
     63 CA         12.7855   13.7185   33.1725 C.3       4 GLC5        0.0000 
     64 CA         11.4350   13.8050   34.9480 C.3       8 GLP5        0.0000 
     65 CA         12.1135   14.0760   31.2360 C.3       4 GLC5        0.0000 
     66 CA         10.0910   14.5200   31.0750 C.3       8 GLP5        0.0000 
     67 CA         14.3365   15.3470   31.9220 C.3       4 GLC5        0.0000 
     68 CA         14.4065   13.3475   33.4425 C.3       4 GLC5        0.0000 
     69 CA         14.6770   13.0630   35.4880 C.3       8 GLP5        0.0000 
     70 CA         11.2255   10.8184   18.9731 C.3       4 GLC5        0.0000 
     71 CA         11.0260   12.3130   18.1130 C.3       8 GLP5        0.0000 
     72 CA          8.2930    7.0530   19.7637 C.3       4 GLC5        0.0000 
     73 CA          8.1690    5.1100   20.2080 C.3       8 GLP5        0.0000 
     74 CA          9.2195   10.5085   18.2477 C.3       4 GLC5        0.0000 
     75 CA         10.0220   12.0210   17.1760 C.3       8 GLP5        0.0000 
     76 CA          6.6600    8.6650   20.0497 C.3       4 GLC5        0.0000 
     77 CA          4.9030    8.3340   20.7800 C.3       8 GLP5        0.0000 
     78 CA         14.0697    8.8027   26.5637 C.3       4 GLC5        0.0000 
     79 CA         12.3500   10.2310   25.9460 C.3      12 GLL5        0.0000 
     80 CA         10.8174   10.1059   24.6546 C.3       4 GLC5        0.0000 
     81 CA         15.9040   11.7458   31.2621 C.3       4 GLC5        0.0000 
     82 CA         16.0870   12.7880   29.5780 C.3      12 GLL5        0.0000 
@<TRIPOS>BOND
@<TRIPOS>SUBSTRUCTURE
     1 ALC1        4 GROUP        1 X    ALC  0     ROOT ALC X 1
     2 SEC2       32 GROUP        1 X    SEC  0     **** SEC X 2
     3 ASC3        1 GROUP        1 X    ASC  0     **** ASC X 3
     4 GLC5        9 GROUP        1 X    GLC  0     **** GLC X 6
     5 ALP1        6 GROUP        1 Y    ALP  0     ROOT ALP Y 8
     6 SEP2       34 GROUP        1 Y    SEP  0     **** SEP Y 9
     7 ASP3        3 GROUP        1 Y    ASP  0     **** ASP Y 10
     8 GLP5       11 GROUP        1 Y    GLP  0     **** GLP Y 13
     9 ALL1        5 GROUP        1 Z    ALL  0     ROOT ALL Z 15
    10 SEL2       33 GROUP        1 Z    SEL  0     **** SEL Z 16
    11 ASL3        2 GROUP        1 Z    ASL  0     **** ASL Z 17
    12 GLL5       10 GROUP        1 Z    GLL  0     **** GLL Z 20
@<TRIPOS>SET

