#    Name: 1pg0_MOD_1_ligand
#    Modification time : Mon Mar 24 21:22:17 2014

@<TRIPOS>MOLECULE
1pg0_MOD_1_ligand
   59    61     1     0     0
SMALL
NO_CHARGES


@<TRIPOS>ATOM
      1 N2         13.5190    8.1690   19.7240 N.4       1 MOD553      0.0000 
      2 CA         13.0350    9.5080   20.1160 C.3       1 MOD553      0.0000 
      3 CB         11.5370    9.5750   20.4650 C.3       1 MOD553      0.0000 
      4 CG         10.5640    9.1060   19.3760 C.3       1 MOD553      0.0000 
      5 SD          8.9030    9.2910   20.0240 S.3       1 MOD553      0.0000 
      6 CE          7.9310    8.7010   18.6150 C.3       1 MOD553      0.0000 
      7 C9         13.8190   10.0120   21.3420 C.3       1 MOD553      0.0000 
      8 O1         14.3720    8.9950   22.0660 O.3       1 MOD553      0.0000 
      9 P1         15.2040    9.3700   23.3870 P.3       1 MOD553      0.0000 
     10 O1S        15.6100    8.0610   23.8170 O.co2     1 MOD553      0.0000 
     11 O2S        16.2750   10.2850   23.0530 O.co2     1 MOD553      0.0000 
     12 O5'        14.2340   10.0130   24.4510 O.3       1 MOD553      0.0000 
     13 C5'        13.0750    9.3080   24.9530 C.3       1 MOD553      0.0000 
     14 C4'        12.3500   10.2310   25.9460 C.3       1 MOD553      0.0000 
     15 O4'        13.2490   10.3450   27.0450 O.3       1 MOD553      0.0000 
     16 C3'        12.1610   11.6540   25.3770 C.3       1 MOD553      0.0000 
     17 O3'        10.7800   11.9990   25.5070 O.3       1 MOD553      0.0000 
     18 C2'        13.0810   12.5110   26.2280 C.3       1 MOD553      0.0000 
     19 O2'        12.6260   13.8360   26.3770 O.3       1 MOD553      0.0000 
     20 C1'        13.2520   11.6850   27.5100 C.3       1 MOD553      0.0000 
     21 N9         14.5430   12.0170   28.1260 N.pl3     1 MOD553      0.0000 
     22 C8         15.8170   11.8250   27.6650 C.2       1 MOD553      0.0000 
     23 N7         16.7700   12.2710   28.5010 N.2       1 MOD553      0.0000 
     24 C5         16.0870   12.7880   29.5780 C.2       1 MOD553      0.0000 
     25 C6         16.4310   13.4020   30.7770 C.2       1 MOD553      0.0000 
     26 N6         17.7160   13.6100   31.0950 N.4       1 MOD553      0.0000 
     27 N1         15.4710   13.8150   31.6730 N.pl3     1 MOD553      0.0000 
     28 C2         14.1360   13.6320   31.3970 C.2       1 MOD553      0.0000 
     29 N3         13.7040   13.0410   30.2410 N.pl3     1 MOD553      0.0000 
     30 C4         14.6790   12.6280   29.3470 C.3       1 MOD553      0.0000 
     31 H          13.2204   10.2273   19.3151 H         1 MOD553      0.0000 
     32 H          11.2863   10.6220   20.7392 H         1 MOD553      0.0000 
     33 H          11.3622    8.9724   21.3818 H         1 MOD553      0.0000 
     34 H          10.6279    8.0767   19.1743 H         1 MOD553      0.0000 
     35 H          10.5587    9.7245   18.5265 H         1 MOD553      0.0000 
     36 H          13.1044   10.6315   21.9334 H         1 MOD553      0.0000 
     37 H          14.5757   10.7323   20.9510 H         1 MOD553      0.0000 
     38 H          13.3548    8.4014   25.4810 H         1 MOD553      0.0000 
     39 H          12.3799    9.0608   24.1563 H         1 MOD553      0.0000 
     40 H          11.4350    9.8195   26.2183 H         1 MOD553      0.0000 
     41 H          12.5087   11.6429   24.3798 H         1 MOD553      0.0000 
     42 H          14.0678   12.4659   25.7161 H         1 MOD553      0.0000 
     43 H          12.4414   11.8924   28.1440 H         1 MOD553      0.0000 
     44 H          16.0078   11.3918   26.7860 H         1 MOD553      0.0000 
     45 H          15.7564   14.2665   32.5608 H         1 MOD553      0.0000 
     46 H          13.4266   13.9580   32.0992 H         1 MOD553      0.0000 
     47 H          12.7219   12.9080   30.0407 H         1 MOD553      0.0000 
     48 H          14.7788   11.3255   29.9706 H         1 MOD553      0.0000 
     49 H          13.0015    7.4407   20.1734 H         1 MOD553      0.0000 
     50 H          13.4401    8.0194   18.7384 H         1 MOD553      0.0000 
     51 H          14.4806    8.0365   19.9645 H         1 MOD553      0.0000 
     52 H           8.2181    9.1317   17.7594 H         1 MOD553      0.0000 
     53 H           8.0201    7.7128   18.4900 H         1 MOD553      0.0000 
     54 H           6.9567    8.8954   18.7285 H         1 MOD553      0.0000 
     55 H          18.2294   12.7533   31.1458 H         1 MOD553      0.0000 
     56 H          18.1764   14.1881   30.4214 H         1 MOD553      0.0000 
     57 H          17.8106   14.0615   31.9822 H         1 MOD553      0.0000 
     58 H          10.5094   11.6494   26.4040 H         1 MOD553      0.0000 
     59 H          12.9332   14.3094   25.5514 H         1 MOD553      0.0000 
@<TRIPOS>BOND
     1    2    1 1    
     2   49    1 1    
     3   50    1 1    
     4   51    1 1    
     5    3    2 1    
     6    7    2 1    
     7   31    2 1    
     8    4    3 1    
     9   32    3 1    
    10   33    3 1    
    11    5    4 1    
    12   34    4 1    
    13   35    4 1    
    14    6    5 1    
    15   52    6 1    
    16   53    6 1    
    17   54    6 1    
    18    8    7 1    
    19   36    7 1    
    20   37    7 1    
    21    9    8 1    
    22   10    9 ar   
    23   11    9 ar   
    24   12    9 1    
    25   13   12 1    
    26   14   13 1    
    27   38   13 1    
    28   39   13 1    
    29   15   14 1    
    30   16   14 1    
    31   40   14 1    
    32   20   15 1    
    33   17   16 1    
    34   18   16 1    
    35   41   16 1    
    36   58   17 1    
    37   19   18 1    
    38   20   18 1    
    39   42   18 1    
    40   59   19 1    
    41   21   20 1    
    42   43   20 1    
    43   22   21 1    
    44   30   21 1    
    45   23   22 2    
    46   44   22 1    
    47   24   23 1    
    48   25   24 2    
    49   30   24 1    
    50   26   25 1    
    51   27   25 1    
    52   55   26 1    
    53   56   26 1    
    54   57   26 1    
    55   28   27 2    
    56   45   27 1    
    57   29   28 1    
    58   46   28 1    
    59   30   29 1    
    60   47   29 1    
    61   48   30 1    
@<TRIPOS>SUBSTRUCTURE
     1 MOD553      1 GROUP   
@<TRIPOS>SET

