#    Name: 3tda_PN0_2_INTS_M
#    Modification time : Mon Mar 24 19:33:17 2014

@<TRIPOS>MOLECULE
3tda_PN0_2_INTS_M
   51     0     6     0     0
SMALL
NO_CHARGES


@<TRIPOS>ATOM
      1 O           7.2535  -29.4645   67.1285 O.2       1 ALC1        0.0000 
      2 O           8.7530  -29.2010   67.4820 O.2       5 ALL1        0.0000 
      3 O           5.7540  -29.7280   66.7750 O.2       3 ALP1        0.0000 
      4 CA          6.7700  -24.3405   69.1735 C.3       2 GLC5        0.0000 
      5 CA          7.5410  -26.4200   69.1180 C.3       6 GLL5        0.0000 
      6 CA          5.9990  -22.2610   69.2290 C.3       4 GLP5        0.0000 
      7 CA          8.9160  -24.7955   70.9540 C.3       2 GLC5        0.0000 
      8 CA          8.8220  -25.7980   69.1550 C.3       6 GLL5        0.0000 
      9 CA          9.0100  -23.7930   72.7530 C.3       4 GLP5        0.0000 
     10 CA          5.2900  -24.9465   68.5465 C.3       2 GLC5        0.0000 
     11 CA          6.6640  -26.2590   68.0200 C.3       6 GLL5        0.0000 
     12 CA          3.9160  -23.6340   69.0730 C.3       4 GLP5        0.0000 
     13 CA          5.5125  -27.8640   67.3945 C.3       2 GLC5        0.0000 
     14 CA          4.3610  -29.4690   66.7690 C.3       4 GLP5        0.0000 
     15 CA          6.5500  -33.5275   69.1375 C.3       2 GLC5        0.0000 
     16 CA          7.7310  -32.3020   69.4820 C.3       6 GLL5        0.0000 
     17 CA          5.3690  -34.7530   68.7930 C.3       4 GLP5        0.0000 
     18 CA          8.0450  -32.4580   67.7810 C.3       2 GLC5        0.0000 
     19 CA          8.3590  -32.6140   66.0800 C.3       4 GLP5        0.0000 
     20 CA         10.7540  -32.3705   72.2125 C.3       2 GLC5        0.0000 
     21 CA          9.1640  -31.4450   71.6260 C.3       6 GLL5        0.0000 
     22 CA         12.3440  -33.2960   72.7990 C.3       4 GLP5        0.0000 
     23 CA         10.9425  -30.2240   72.0500 C.3       2 GLC5        0.0000 
     24 CA         12.7210  -29.0030   72.4740 C.3       4 GLP5        0.0000 
     25 CA          5.7070  -24.6320   65.7990 C.3       2 GLC5        0.0000 
     26 CA          7.0690  -25.4560   66.9500 C.3       6 GLL5        0.0000 
     27 CA          4.3450  -23.8080   64.6480 C.3       4 GLP5        0.0000 
     28 CA          8.3810  -21.5235   64.1800 C.3       2 GLC5        0.0000 
     29 CA          9.5040  -23.2290   63.9820 C.3       6 GLL5        0.0000 
     30 CA          7.2580  -19.8180   64.3780 C.3       4 GLP5        0.0000 
     31 O          10.2945  -30.1220   65.9575 O.2       1 ALC1        0.0000 
     32 O           9.6830  -29.0460   66.4320 O.2       5 ALL1        0.0000 
     33 O          10.9060  -31.1980   65.4830 O.2       3 ALP1        0.0000 
     34 CA          5.9660  -30.0720   72.8535 C.3       2 GLC5        0.0000 
     35 CA          6.4280  -31.1800   71.1690 C.3       6 GLL5        0.0000 
     36 CA          5.5040  -28.9640   74.5380 C.3       4 GLP5        0.0000 
     37 CA          5.8985  -32.9665   69.9810 C.3       2 GLC5        0.0000 
     38 CA          8.8145  -31.2632   73.9762 C.3       2 GLC5        0.0000 
     39 CA          8.5250  -31.8290   75.8230 C.3       4 GLP5        0.0000 
     40 CA         10.8810  -29.1517   72.3522 C.3       2 GLC5        0.0000 
     41 CA          9.0440  -29.9500   72.6330 C.3       6 GLL5        0.0000 
     42 CA          7.2725  -29.1322   73.3842 C.3       2 GLC5        0.0000 
     43 CA          9.0380  -28.6510   71.8280 C.3       6 GLL5        0.0000 
     44 CA          8.3647  -23.3753   62.3200 C.3       2 GLC5        0.0000 
     45 CA          6.9480  -23.4350   61.2970 C.3       4 GLP5        0.0000 
     46 CA          8.6698  -27.1322   63.1063 C.3       2 GLC5        0.0000 
     47 CA          9.9260  -25.7650   62.8710 C.3       6 GLL5        0.0000 
     48 CA          7.6970  -28.5390   62.6900 C.3       4 GLP5        0.0000 
     49 CA          6.9605  -23.7207   68.2326 C.3       2 GLC5        0.0000 
     50 CA          8.2695  -24.4155   62.4781 C.3       2 GLC5        0.0000 
     51 CA          9.3590  -25.6860   64.1740 C.3       6 GLL5        0.0000 
@<TRIPOS>BOND
@<TRIPOS>SUBSTRUCTURE
     1 ALC1        1 GROUP        1 X    ALC  0     ROOT ALC X 1
     2 GLC5        4 GROUP        1 X    GLC  0     **** GLC X 6
     3 ALP1        3 GROUP        1 Y    ALP  0     ROOT ALP Y 8
     4 GLP5        6 GROUP        1 Y    GLP  0     **** GLP Y 13
     5 ALL1        2 GROUP        1 Z    ALL  0     ROOT ALL Z 15
     6 GLL5        5 GROUP        1 Z    GLL  0     **** GLL Z 20
@<TRIPOS>SET

