#    Name: 3tda_PN0_2_ligand
#    Modification time : Mon Mar 24 19:33:17 2014

@<TRIPOS>MOLECULE
3tda_PN0_2_ligand
   49    51     1     0     0
SMALL
NO_CHARGES


@<TRIPOS>ATOM
      1 N1          8.0420  -28.6500   70.7070 N.pl3     1 PN0503      0.0000 
      2 N3          8.7530  -29.2010   67.4820 N.am      1 PN0503      0.0000 
      3 C4          9.0440  -29.9500   72.6330 C.3       1 PN0503      0.0000 
      4 C5          7.5410  -26.4200   69.1180 C.ar      1 PN0503      0.0000 
      5 C6          8.8220  -25.7980   69.1550 C.ar      1 PN0503      0.0000 
      6 C7          9.2170  -24.9930   68.0760 C.ar      1 PN0503      0.0000 
      7 C8          8.3330  -24.8170   66.9690 C.ar      1 PN0503      0.0000 
      8 C10         6.6640  -26.2590   68.0200 C.ar      1 PN0503      0.0000 
      9 C13        10.0590  -23.4020   62.7040 C.ar      1 PN0503      0.0000 
     10 C15         9.3590  -25.6860   64.1740 C.ar      1 PN0503      0.0000 
     11 C17         7.7310  -32.3020   69.4820 C.3       1 PN0503      0.0000 
     12 C1          7.8050  -31.1410   70.4770 C.3       1 PN0503      0.0000 
     13 C2          7.9280  -29.7650   69.7270 C.3       1 PN0503      0.0000 
     14 C3          9.0380  -28.6510   71.8280 C.3       1 PN0503      0.0000 
     15 S1          9.1640  -31.4450   71.6260 S.3       1 PN0503      0.0000 
     16 S2          7.0650  -27.3630   70.4640 S.o2      1 PN0503      0.0000 
     17 C9          7.0690  -25.4560   66.9500 C.ar      1 PN0503      0.0000 
     18 O1          8.6400  -24.0210   65.9140 O.3       1 PN0503      0.0000 
     19 C11         9.1530  -24.3680   64.7210 C.ar      1 PN0503      0.0000 
     20 C12         9.5040  -23.2290   63.9820 C.ar      1 PN0503      0.0000 
     21 N2         10.2650  -24.6450   62.1670 N.ar      1 PN0503      0.0000 
     22 C14         9.9260  -25.7650   62.8710 C.ar      1 PN0503      0.0000 
     23 O2          7.2450  -26.4530   71.5650 O.2       1 PN0503      0.0000 
     24 O3          5.7280  -27.8910   70.2290 O.2       1 PN0503      0.0000 
     25 C16         9.0890  -29.6720   68.7030 C.2       1 PN0503      0.0000 
     26 O4          9.6830  -29.0460   66.4320 O.3       1 PN0503      0.0000 
     27 O5         10.2460  -30.0060   68.9920 O.2       1 PN0503      0.0000 
     28 C18         6.4280  -31.1800   71.1690 C.3       1 PN0503      0.0000 
     29 H           7.7551  -28.9296   67.2793 H         1 PN0503      0.0000 
     30 H           8.1302  -30.1141   73.1847 H         1 PN0503      0.0000 
     31 H           9.8977  -30.0418   73.2881 H         1 PN0503      0.0000 
     32 H           9.4308  -25.9407   69.9520 H         1 PN0503      0.0000 
     33 H          10.1240  -24.5336   68.0720 H         1 PN0503      0.0000 
     34 H           5.7611  -26.7201   68.0164 H         1 PN0503      0.0000 
     35 H          10.3169  -22.5506   62.1598 H         1 PN0503      0.0000 
     36 H           9.1131  -26.4978   64.6908 H         1 PN0503      0.0000 
     37 H           6.9858  -29.6222   69.1656 H         1 PN0503      0.0000 
     38 H           8.8247  -27.8145   72.5145 H         1 PN0503      0.0000 
     39 H          10.0508  -28.4843   71.4245 H         1 PN0503      0.0000 
     40 H           6.4519  -25.3233   66.1408 H         1 PN0503      0.0000 
     41 H           9.3603  -22.2998   64.3620 H         1 PN0503      0.0000 
     42 H          10.0761  -26.7104   62.4665 H         1 PN0503      0.0000 
     43 H           8.5437  -32.3455   68.9010 H         1 PN0503      0.0000 
     44 H           7.6548  -33.1845   69.9460 H         1 PN0503      0.0000 
     45 H           6.9406  -32.2209   68.8748 H         1 PN0503      0.0000 
     46 H           6.2703  -32.0515   71.6334 H         1 PN0503      0.0000 
     47 H           6.3379  -30.4604   71.8575 H         1 PN0503      0.0000 
     48 H           5.6806  -31.0563   70.5162 H         1 PN0503      0.0000 
     49 H          10.3567  -29.7712   66.5740 H         1 PN0503      0.0000 
@<TRIPOS>BOND
     1   13    1 1    
     2   14    1 1    
     3   16    1 1    
     4   25    2 am   
     5   26    2 1    
     6   29    2 1    
     7   14    3 1    
     8   15    3 1    
     9   30    3 1    
    10   31    3 1    
    11    5    4 ar   
    12    8    4 ar   
    13   16    4 1    
    14    6    5 ar   
    15   32    5 1    
    16    7    6 ar   
    17   33    6 1    
    18   17    7 ar   
    19   18    7 1    
    20   17    8 ar   
    21   34    8 1    
    22   20    9 ar   
    23   21    9 ar   
    24   35    9 1    
    25   19   10 ar   
    26   22   10 ar   
    27   36   10 1    
    28   12   11 1    
    29   43   11 1    
    30   44   11 1    
    31   45   11 1    
    32   13   12 1    
    33   15   12 1    
    34   28   12 1    
    35   25   13 1    
    36   37   13 1    
    37   38   14 1    
    38   39   14 1    
    39   23   16 2    
    40   24   16 2    
    41   40   17 1    
    42   19   18 1    
    43   20   19 ar   
    44   41   20 1    
    45   22   21 ar   
    46   42   22 1    
    47   27   25 2    
    48   49   26 1    
    49   46   28 1    
    50   47   28 1    
    51   48   28 1    
@<TRIPOS>SUBSTRUCTURE
     1 PN0503      1 GROUP   
@<TRIPOS>SET

