#    Name: 1grq_CLK_1_INTS_M
#    Modification time : Tue Mar 25 03:41:00 2014

@<TRIPOS>MOLECULE
1grq_CLK_1_INTS_M
   29     0     3     0     0
SMALL
NO_CHARGES


@<TRIPOS>ATOM
      1 CA         15.4345   46.5045   33.5680 C.3       1 GLC5        0.0000 
      2 CA         13.8710   46.0010   34.3880 C.3       3 GLL5        0.0000 
      3 CA         16.9980   47.0080   32.7480 C.3       2 GLP5        0.0000 
      4 CA         13.8790   45.2890   35.9265 C.3       1 GLC5        0.0000 
      5 CA         13.8870   44.5770   37.4650 C.3       2 GLP5        0.0000 
      6 CA         15.9285   49.5300   32.5050 C.3       1 GLC5        0.0000 
      7 CA         14.7750   50.6650   32.8760 C.3       3 GLL5        0.0000 
      8 CA         17.0820   48.3950   32.1340 C.3       2 GLP5        0.0000 
      9 CA         15.3880   51.4255   31.5150 C.3       1 GLC5        0.0000 
     10 CA         16.0010   52.1860   30.1540 C.3       2 GLP5        0.0000 
     11 CA         17.6235   52.5760   38.3370 C.3       1 GLC5        0.0000 
     12 CA         15.9750   52.1630   37.0010 C.3       3 GLL5        0.0000 
     13 CA         19.2720   52.9890   39.6730 C.3       2 GLP5        0.0000 
     14 CA         17.0515   53.4855   38.7475 C.3       1 GLC5        0.0000 
     15 CA         15.2610   52.5510   38.1260 C.3       3 GLL5        0.0000 
     16 CA         18.8420   54.4200   39.3690 C.3       2 GLP5        0.0000 
     17 CA         12.3815   52.3655   39.0960 C.3       1 GLC5        0.0000 
     18 CA         13.8120   52.6830   38.1510 C.3       3 GLL5        0.0000 
     19 CA         10.9510   52.0480   40.0410 C.3       2 GLP5        0.0000 
     20 CA         12.8648   45.5983   36.1512 C.3       1 GLC5        0.0000 
     21 CA         12.5710   47.0750   34.8850 C.3       3 GLL5        0.0000 
     22 CA         14.3215   47.5235   36.1778 C.3       1 GLC5        0.0000 
     23 CA         15.4220   48.5090   37.7190 C.3       2 GLP5        0.0000 
     24 CA         12.3000   51.1078   37.4805 C.3       1 GLC5        0.0000 
     25 CA         13.7500   51.9960   35.7600 C.3       3 GLL5        0.0000 
     26 CA         11.1860   50.0170   38.6000 C.3       2 GLP5        0.0000 
     27 CA         14.9640   50.2233   36.7500 C.3       1 GLC5        0.0000 
     28 CA         15.5230   50.8290   38.3011 C.3       1 GLC5        0.0000 
     29 CA         16.3310   49.1380   38.7450 C.3       2 GLP5        0.0000 
@<TRIPOS>BOND
@<TRIPOS>SUBSTRUCTURE
     1 GLC5        1 GROUP        1 X    GLC  0     ROOT GLC X 6
     2 GLP5        3 GROUP        1 Y    GLP  0     ROOT GLP Y 13
     3 GLL5        2 GROUP        1 Z    GLL  0     ROOT GLL Z 20
@<TRIPOS>SET

