#    Name: 1grq_CLK_1_ligand
#    Modification time : Tue Mar 25 03:41:00 2014

@<TRIPOS>MOLECULE
1grq_CLK_1_ligand
   32    32     1     0     0
SMALL
NO_CHARGES


@<TRIPOS>ATOM
      1 C1         12.5710   47.0750   34.8850 C.3       1 CLK999      0.0000 
      2 CL1A       11.1140   46.1640   34.7900 Cl        1 CLK999      0.0000 
      3 CL1B       13.8710   46.0010   34.3880 Cl        1 CLK999      0.0000 
      4 C2         12.6240   48.2080   33.7720 C.2       1 CLK999      0.0000 
      5 O2         12.1900   47.9910   32.6370 O.2       1 CLK999      0.0000 
      6 N2         13.2110   49.3220   34.2610 N.am      1 CLK999      0.0000 
      7 C3         13.3910   50.5800   33.5190 C.3       1 CLK999      0.0000 
      8 C4         14.7750   50.6650   32.8760 C.3       1 CLK999      0.0000 
      9 O4         14.9620   49.4340   32.0830 O.3       1 CLK999      0.0000 
     10 C5         12.9830   51.8070   34.3970 C.3       1 CLK999      0.0000 
     11 O5         13.1260   52.9930   33.6110 O.3       1 CLK999      0.0000 
     12 C6         13.7500   51.9960   35.7600 C.ar      1 CLK999      0.0000 
     13 C7         15.2620   51.8790   35.8020 C.ar      1 CLK999      0.0000 
     14 C8         15.9750   52.1630   37.0010 C.ar      1 CLK999      0.0000 
     15 C9         15.2610   52.5510   38.1260 C.ar      1 CLK999      0.0000 
     16 N9         15.8740   52.8850   39.4480 N.pl3     1 CLK999      0.0000 
     17 C10        13.8120   52.6830   38.1510 C.ar      1 CLK999      0.0000 
     18 C11        13.0780   52.4010   36.9620 C.ar      1 CLK999      0.0000 
     19 H          12.7610   47.3720   35.7949 H         1 CLK999      0.0000 
     20 H          13.5868   49.3391   35.2517 H         1 CLK999      0.0000 
     21 H          12.6456   50.5651   32.6681 H         1 CLK999      0.0000 
     22 H          15.5167   50.7359   33.6569 H         1 CLK999      0.0000 
     23 H          14.8109   51.5390   32.2438 H         1 CLK999      0.0000 
     24 H          11.9137   51.6783   34.6503 H         1 CLK999      0.0000 
     25 H          15.7266   51.5959   34.9558 H         1 CLK999      0.0000 
     26 H          16.9858   52.0785   37.0161 H         1 CLK999      0.0000 
     27 H          16.8714   52.8318   39.4966 H         1 CLK999      0.0000 
     28 H          15.2374   53.1349   40.1776 H         1 CLK999      0.0000 
     29 H          13.3515   52.9676   38.9947 H         1 CLK999      0.0000 
     30 H          12.0603   52.4870   36.9610 H         1 CLK999      0.0000 
     31 H          14.1169   48.9144   32.2088 H         1 CLK999      0.0000 
     32 H          13.7225   53.5895   34.1479 H         1 CLK999      0.0000 
@<TRIPOS>BOND
     1    2    1 1    
     2    3    1 1    
     3    4    1 1    
     4   19    1 1    
     5    5    4 2    
     6    6    4 am   
     7    7    6 1    
     8   20    6 1    
     9    8    7 1    
    10   10    7 1    
    11   21    7 1    
    12    9    8 1    
    13   22    8 1    
    14   23    8 1    
    15   31    9 1    
    16   11   10 1    
    17   12   10 1    
    18   24   10 1    
    19   32   11 1    
    20   13   12 ar   
    21   18   12 ar   
    22   14   13 ar   
    23   25   13 1    
    24   15   14 ar   
    25   26   14 1    
    26   16   15 1    
    27   17   15 ar   
    28   27   16 1    
    29   28   16 1    
    30   18   17 ar   
    31   29   17 1    
    32   30   18 1    
@<TRIPOS>SUBSTRUCTURE
     1 CLK999      1 GROUP   
@<TRIPOS>SET

