#    Name: 2oxw_ILE_ALA_GLY_1_INTS_M
#    Modification time : Mon Mar 24 17:59:57 2014

@<TRIPOS>MOLECULE
2oxw_ILE_ALA_GLY_1_INTS_M
   33     0    12     0     0
SMALL
NO_CHARGES


@<TRIPOS>ATOM
      1 OD1         1.5180   -3.4545    8.0570 O.co2     3 ASC3        0.0000 
      2 OD1         1.4790   -4.7810    7.7100 O.co2    11 ASL3        0.0000 
      3 OD1         1.5570   -2.1280    8.4040 O.co2     7 ASP3        0.0000 
      4 O           1.5180   -3.4545    8.0570 O.2       1 ALC1        0.0000 
      5 O           1.4790   -4.7810    7.7100 O.2       9 ALL1        0.0000 
      6 O           1.5570   -2.1280    8.4040 O.2       5 ALP1        0.0000 
      7 N          -1.3260   -6.3270    5.9630 N.am      2 SEC2        0.0000 
      8 N          -0.0200   -5.9820    5.6660 N.am     10 SEL2        0.0000 
      9 N          -2.6320   -6.6720    6.2600 N.am      6 SEP2        0.0000 
     10 CA          1.8845   -8.1945    7.7570 C.3       4 GLC5        0.0000 
     11 CA          3.4920   -7.0760    7.5210 C.3      12 GLL5        0.0000 
     12 CA          0.2770   -9.3130    7.9930 C.3       8 GLP5        0.0000 
     13 CA          3.6210   -8.7760    7.7745 C.3       4 GLC5        0.0000 
     14 CA          3.7500  -10.4760    8.0280 C.3       8 GLP5        0.0000 
     15 CA          5.2890   -8.4140    5.7565 C.3       4 GLC5        0.0000 
     16 CA          4.8800   -7.5290    7.7580 C.3      12 GLL5        0.0000 
     17 CA          5.6980   -9.2990    3.7550 C.3       8 GLP5        0.0000 
     18 CA          5.0080   -8.9580    7.5600 C.3       4 GLC5        0.0000 
     19 CA          5.1360  -10.3870    7.3620 C.3       8 GLP5        0.0000 
     20 CA         -0.0340   -8.4865    5.8300 C.3       4 GLC5        0.0000 
     21 CA          1.0160   -8.1120    4.1430 C.3      12 GLL5        0.0000 
     22 CA         -1.0840   -8.8610    7.5170 C.3       8 GLP5        0.0000 
     23 N           3.7555   -9.9010    5.3980 N.am      2 SEC2        0.0000 
     24 N           2.5160   -9.8590    4.8200 N.am     10 SEL2        0.0000 
     25 N           4.9950   -9.9430    5.9760 N.am      6 SEP2        0.0000 
     26 O          -0.9580   -9.7535    4.1895 O.2       1 ALC1        0.0000 
     27 O           0.3800  -10.4330    4.3950 O.2       9 ALL1        0.0000 
     28 O          -2.2960   -9.0740    3.9840 O.2       5 ALP1        0.0000 
     29 CA          0.4395  -10.5830    6.3020 C.3       4 GLC5        0.0000 
     30 CA          0.6020  -11.8530    4.6110 C.3      12 GLL5        0.0000 
     31 CA          4.2350   -3.7609    7.3031 C.3       4 GLC5        0.0000 
     32 CA          4.3320   -4.8730    7.3060 C.3      12 GLL5        0.0000 
     33 CA          4.9000   -2.3160    7.6850 C.3       8 GLP5        0.0000 
@<TRIPOS>BOND
@<TRIPOS>SUBSTRUCTURE
     1 ALC1        4 GROUP        1 X    ALC  0     ROOT ALC X 1
     2 SEC2        7 GROUP        1 X    SEC  0     **** SEC X 2
     3 ASC3        1 GROUP        1 X    ASC  0     **** ASC X 3
     4 GLC5       10 GROUP        1 X    GLC  0     **** GLC X 6
     5 ALP1        6 GROUP        1 Y    ALP  0     ROOT ALP Y 8
     6 SEP2        9 GROUP        1 Y    SEP  0     **** SEP Y 9
     7 ASP3        3 GROUP        1 Y    ASP  0     **** ASP Y 10
     8 GLP5       12 GROUP        1 Y    GLP  0     **** GLP Y 13
     9 ALL1        5 GROUP        1 Z    ALL  0     ROOT ALL Z 15
    10 SEL2        8 GROUP        1 Z    SEL  0     **** SEL Z 16
    11 ASL3        2 GROUP        1 Z    ASL  0     **** ASL Z 17
    12 GLL5       11 GROUP        1 Z    GLL  0     **** GLL Z 20
@<TRIPOS>SET

