#    Name: 2oxw_ILE_ALA_GLY_1_ligand
#    Modification time : Mon Mar 24 17:59:57 2014

@<TRIPOS>MOLECULE
2oxw_ILE_ALA_GLY_1_ligand
   39    38     3     0     0
SMALL
NO_CHARGES


@<TRIPOS>ATOM
      1 N           1.4790   -4.7810    7.7100 N.4       1 ILE207      0.0000
      2 CA          2.1080   -5.2380    6.4300 C.3       1 ILE207      0.0000
      3 C           1.1930   -6.1840    5.6540 C.2       1 ILE207      0.0000
      4 O          -0.0200   -5.9820    5.6660 O.2       1 ILE207      0.0000
      5 CB          3.5080   -5.8390    6.6430 C.3       1 ILE207      0.0000
      6 CG1         3.4920   -7.0760    7.5210 C.3       1 ILE207      0.0000
      7 CG2         4.3320   -4.8730    7.3060 C.3       1 ILE207      0.0000
      8 CD1         4.8800   -7.5290    7.7580 C.3       1 ILE207      0.0000
      9 HA          2.2490   -4.3352    5.7850 H         1 ILE207      0.0000
     10 HB          3.9238   -6.0958    5.6870 H         1 ILE207      0.0000
     11 HG12        2.9180   -7.8557    7.0212 H         1 ILE207      0.0000
     12 HG13        3.0056   -6.8321    8.4650 H         1 ILE207      0.0000
     13 HNCA        1.7904   -3.8674    7.9714 H         1 ILE207      0.0000
     14 H           0.4821   -4.7422    7.6409 H         1 ILE207      0.0000
     15 H           1.6965   -5.3934    8.4700 H         1 ILE207      0.0000
     16 HG21        5.2562   -5.2200    7.4654 H         1 ILE207      0.0000
     17 HG22        4.4226   -4.0327    6.7715 H         1 ILE207      0.0000
     18 HG23        3.9582   -4.6149    8.1969 H         1 ILE207      0.0000
     19 HD11        5.3475   -7.7561    6.9037 H         1 ILE207      0.0000
     20 HD12        5.4271   -6.8269    8.2139 H         1 ILE207      0.0000
     21 HD13        4.9109   -8.3452    8.3350 H         1 ILE207      0.0000
     22 N           1.7670   -7.1770    4.9660 N.am      2 ALA208      0.0000
     23 CA          1.0160   -8.1120    4.1430 C.3       2 ALA208      0.0000
     24 C           1.3700   -9.5530    4.4880 C.2       2 ALA208      0.0000
     25 O           2.5160   -9.8590    4.8200 O.2       2 ALA208      0.0000
     26 CB          1.3050   -7.8490    2.6890 C.3       2 ALA208      0.0000
     27 H           2.8056   -7.3293    4.9894 H         2 ALA208      0.0000
     28 HA         -0.0498   -7.9800    4.3055 H         2 ALA208      0.0000
     29 HB1         2.2760   -7.9603    2.4773 H         2 ALA208      0.0000
     30 HB2         0.8013   -8.4729    2.0915 H         2 ALA208      0.0000
     31 HB3         1.0515   -6.9192    2.4222 H         2 ALA208      0.0000
     32 N           0.3800  -10.4330    4.3950 N.am      3 GLY209      0.0000
     33 CA          0.6020  -11.8530    4.6110 C.3       3 GLY209      0.0000
     34 C           1.3820  -12.4680    3.4640 C.2       3 GLY209      0.0000
     35 O           2.1350  -13.4220    3.6500 O.2       3 GLY209      0.0000
     36 HNCA       -0.5958  -10.1539    4.1650 H         3 GLY209      0.0000
     37 HA2        -0.3544  -12.3888    4.7040 H         3 GLY209      0.0000
     38 HA3         1.1642  -12.0240    5.5411 H         3 GLY209      0.0000
     39 H           1.1901  -11.9844    2.5533 H         3 GLY209      0.0000
@<TRIPOS>BOND
     1    2    1 1
     2   13    1 1
     3   14    1 1
     4   15    1 1
     5    3    2 1
     6    5    2 1
     7    9    2 1
     8    4    3 2
     9    6    5 1
    10    7    5 1
    11   10    5 1
    12    8    6 1
    13   11    6 1
    14   12    6 1
    15   16    7 1
    16   17    7 1
    17   18    7 1
    18   19    8 1
    19   20    8 1
    20   21    8 1
    21   23   22 1
    22   27   22 1
    23   24   23 1
    24   26   23 1
    25   28   23 1
    26   25   24 2
    27   29   26 1
    28   30   26 1
    29   31   26 1
    30   33   32 1
    31   36   32 1
    32   34   33 1
    33   37   33 1
    34   38   33 1
    35   35   34 2
    36   39   34 1
    37   22    3 am
    38   32   24 am
@<TRIPOS>SUBSTRUCTURE
     1 ILE207      1 RESIDUE
     2 ALA208     22 RESIDUE
     3 GLY209     32 RESIDUE
@<TRIPOS>SET

