#    Name: 3ee2_NZO_1_INTS_M
#    Modification time : Tue Mar 25 01:35:41 2014

@<TRIPOS>MOLECULE
3ee2_NZO_1_INTS_M
   24     0     3     0     0
SMALL
NO_CHARGES


@<TRIPOS>ATOM
      1 CA         18.6365    4.8985   46.9685 C.3       1 GLC5        0.0000 
      2 CA         20.2910    5.7100   46.9480 C.3       3 GLL5        0.0000 
      3 CA         16.9820    4.0870   46.9890 C.3       2 GLP5        0.0000 
      4 CA         20.4800    7.8105   49.5235 C.3       1 GLC5        0.0000 
      5 CA         19.8880    7.3240   47.4340 C.3       3 GLL5        0.0000 
      6 CA         21.0720    8.2970   51.6130 C.3       2 GLP5        0.0000 
      7 CA         17.5988   10.7003   40.7503 C.3       1 GLC5        0.0000 
      8 CA         18.4980   11.5170   42.6420 C.3       3 GLL5        0.0000 
      9 CA         16.1520   10.0500   39.2590 C.3       2 GLP5        0.0000 
     10 CA         21.8223    8.8505   43.2007 C.3       1 GLC5        0.0000 
     11 CA         20.2460    9.5260   43.4380 C.3       3 GLL5        0.0000 
     12 CA         23.2900    7.8430   43.5610 C.3       2 GLP5        0.0000 
     13 CA         20.6586   10.7995   45.0250 C.3       1 GLC5        0.0000 
     14 CA         21.8330   11.6660   46.3070 C.3       2 GLP5        0.0000 
     15 CA         17.6910    7.0087   47.0687 C.3       1 GLC5        0.0000 
     16 CA         19.4660    7.6870   45.7770 C.3       3 GLL5        0.0000 
     17 CA         15.7050    6.5120   47.5320 C.3       2 GLP5        0.0000 
     18 CA         18.5168    5.0292   45.3503 C.3       1 GLC5        0.0000 
     19 CA         19.6250    6.6270   44.9190 C.3       3 GLL5        0.0000 
     20 CA         17.1680    3.9830   45.4470 C.3       2 GLP5        0.0000 
     21 CA         21.5579    7.0918   44.5145 C.3       1 GLC5        0.0000 
     22 CA         20.1060    5.5240   45.5880 C.3       3 GLL5        0.0000 
     23 CA         19.3987    5.2660   48.5985 C.3       1 GLC5        0.0000 
     24 CA         18.7080    4.0150   50.0060 C.3       2 GLP5        0.0000 
@<TRIPOS>BOND
@<TRIPOS>SUBSTRUCTURE
     1 GLC5        1 GROUP        1 X    GLC  0     ROOT GLC X 6
     2 GLP5        3 GROUP        1 Y    GLP  0     ROOT GLP Y 13
     3 GLL5        2 GROUP        1 Z    GLL  0     ROOT GLL Z 20
@<TRIPOS>SET

