#    Name: 3ee2_NZO_1_ligand
#    Modification time : Tue Mar 25 01:35:41 2014

@<TRIPOS>MOLECULE
3ee2_NZO_1_ligand
   32    34     1     0     0
SMALL
NO_CHARGES


@<TRIPOS>ATOM
      1 O2         16.0330   14.2250   40.0370 O.2       1 NZO201      0.0000 
      2 C13        17.2130   14.5730   40.0600 C.2       1 NZO201      0.0000 
      3 O3         17.5510   15.9890   40.2520 O.3       1 NZO201      0.0000 
      4 C14        16.7870   17.0560   39.6730 C.3       1 NZO201      0.0000 
      5 N3         18.1990   13.6800   39.9140 N.am      1 NZO201      0.0000 
      6 C12        18.5210   12.7430   40.8720 C.2       1 NZO201      0.0000 
      7 N1         17.8240   12.5090   42.0050 N.pl3     1 NZO201      0.0000 
      8 C8         18.4980   11.5170   42.6420 C.ar      1 NZO201      0.0000 
      9 C7         18.2820   10.8450   43.8500 C.ar      1 NZO201      0.0000 
     10 N2         19.5960   11.9580   40.7320 N.2       1 NZO201      0.0000 
     11 C9         19.5930   11.1840   41.8410 C.ar      1 NZO201      0.0000 
     12 C10        20.4630   10.1900   42.2430 C.ar      1 NZO201      0.0000 
     13 C11        20.2460    9.5260   43.4380 C.ar      1 NZO201      0.0000 
     14 C6         19.1630    9.8350   44.2460 C.ar      1 NZO201      0.0000 
     15 C5         18.9810    9.0740   45.5410 C.2       1 NZO201      0.0000 
     16 O1         18.4090    9.6020   46.4570 O.2       1 NZO201      0.0000 
     17 C4         19.4660    7.6870   45.7770 C.2       1 NZO201      0.0000 
     18 C3         19.6250    6.6270   44.9190 C.2       1 NZO201      0.0000 
     19 C2         20.1060    5.5240   45.5880 C.2       1 NZO201      0.0000 
     20 C1         20.2910    5.7100   46.9480 C.2       1 NZO201      0.0000 
     21 S          19.8880    7.3240   47.4340 S.3       1 NZO201      0.0000 
     22 H          18.7726   13.6799   39.0197 H         1 NZO201      0.0000 
     23 H          17.0362   12.9403   42.2960 H         1 NZO201      0.0000 
     24 H          17.4833   11.0921   44.4397 H         1 NZO201      0.0000 
     25 H          21.2722    9.9420   41.6560 H         1 NZO201      0.0000 
     26 H          20.9069    8.7818   43.7357 H         1 NZO201      0.0000 
     27 H          19.4258    6.6500   43.9685 H         1 NZO201      0.0000 
     28 H          20.3058    4.6615   45.1352 H         1 NZO201      0.0000 
     29 H          20.5765    5.1746   47.6419 H         1 NZO201      0.0000 
     30 H          17.1637   17.9522   39.9074 H         1 NZO201      0.0000 
     31 H          16.7662   16.9987   38.6749 H         1 NZO201      0.0000 
     32 H          15.8376   17.0459   39.9870 H         1 NZO201      0.0000 
@<TRIPOS>BOND
     1    2    1 2    
     2    3    2 1    
     3    5    2 am   
     4    4    3 1    
     5   30    4 1    
     6   31    4 1    
     7   32    4 1    
     8    6    5 1    
     9   22    5 1    
    10    7    6 1    
    11   10    6 2    
    12    8    7 1    
    13   23    7 1    
    14    9    8 ar   
    15   11    8 ar   
    16   14    9 ar   
    17   24    9 1    
    18   11   10 1    
    19   12   11 ar   
    20   13   12 ar   
    21   25   12 1    
    22   14   13 ar   
    23   26   13 1    
    24   15   14 1    
    25   16   15 2    
    26   17   15 1    
    27   18   17 2    
    28   21   17 1    
    29   19   18 1    
    30   27   18 1    
    31   20   19 2    
    32   28   19 1    
    33   21   20 1    
    34   29   20 1    
@<TRIPOS>SUBSTRUCTURE
     1 NZO201      1 GROUP   
@<TRIPOS>SET

