#    Name: 1w05_W05_1_INTS_M
#    Modification time : Tue Mar 25 08:18:38 2014

@<TRIPOS>MOLECULE
1w05_W05_1_INTS_M
   54     0     9     0     0
SMALL
NO_CHARGES


@<TRIPOS>ATOM
      1 CA         43.6460   16.3140   15.1820 C.3       3 GLC5        0.0000 
      2 CA         44.3320   17.4850   16.5770 C.3       9 GLL5        0.0000 
      3 CA         42.9600   15.1430   13.7870 C.3       6 GLP5        0.0000 
      4 CA         42.4655   16.6545   16.8345 C.3       3 GLC5        0.0000 
      5 CA         40.5990   15.8240   17.0920 C.3       6 GLP5        0.0000 
      6 CA         45.8575   19.9920   17.8745 C.3       3 GLC5        0.0000 
      7 CA         44.5460   18.4510   17.7530 C.3       9 GLL5        0.0000 
      8 CA         47.1690   21.5330   17.9960 C.3       6 GLP5        0.0000 
      9 CA         45.4705   19.4920   21.8020 C.3       3 GLC5        0.0000 
     10 CA         44.5560   18.6270   20.3420 C.3       9 GLL5        0.0000 
     11 CA         46.3850   20.3570   23.2620 C.3       6 GLP5        0.0000 
     12 CA         44.2120   17.7210   25.1215 C.3       3 GLC5        0.0000 
     13 CA         42.8150   18.0390   23.7050 C.3       9 GLL5        0.0000 
     14 CA         45.6090   17.4030   26.5380 C.3       6 GLP5        0.0000 
     15 CA         43.7355   18.7075   25.8905 C.3       3 GLC5        0.0000 
     16 CA         42.7010   19.2900   24.5050 C.3       9 GLL5        0.0000 
     17 CA         44.7700   18.1250   27.2760 C.3       6 GLP5        0.0000 
     18 CA         40.9770   20.9225   22.0550 C.3       3 GLC5        0.0000 
     19 CA         41.6810   20.6420   23.7860 C.3       9 GLL5        0.0000 
     20 CA         40.2730   21.2030   20.3240 C.3       6 GLP5        0.0000 
     21 NZ         45.0695   19.1990   13.4845 N.4       2 LYC4        0.0000 
     22 NZ         45.5710   17.9020   14.5260 N.4       8 LYL4        0.0000 
     23 NZ         45.6670   20.1840   11.7700 N.4       5 LYP4        0.0000 
     24 N          46.0435   18.5930   13.3995 N.am      1 SEC2        0.0000 
     25 N          45.5710   17.9020   14.5260 N.am      7 SEL2        0.0000 
     26 N          46.5160   19.2840   12.2730 N.am      4 SEP2        0.0000 
     27 N          45.0695   19.1990   13.4845 N.am      1 SEC2        0.0000 
     28 N          44.5680   20.4960   12.4430 N.am      4 SEP2        0.0000 
     29 NZ         43.9530   19.3220   15.0800 N.4       8 LYL4        0.0000 
     30 N          44.2605   19.9090   13.7615 N.am      1 SEC2        0.0000 
     31 N          43.9530   19.3220   15.0800 N.am      7 SEL2        0.0000 
     32 N          42.6860   19.2610   14.7855 N.am      1 SEC2        0.0000 
     33 N          41.4190   19.2000   14.4910 N.am      4 SEP2        0.0000 
     34 CA         39.1210   15.6095   23.1245 C.3       3 GLC5        0.0000 
     35 CA         39.0680   17.1970   24.0660 C.3       9 GLL5        0.0000 
     36 CA         39.1740   14.0220   22.1830 C.3       6 GLP5        0.0000 
     37 CA         38.3975   17.1975   22.0980 C.3       3 GLC5        0.0000 
     38 CA         37.7270   17.1980   20.1300 C.3       6 GLP5        0.0000 
     39 CA         36.0670   18.1805   23.2220 C.3       3 GLC5        0.0000 
     40 CA         37.9040   18.2460   23.9290 C.3       9 GLL5        0.0000 
     41 CA         34.2300   18.1150   22.5150 C.3       6 GLP5        0.0000 
     42 CA         37.4670   18.3800   22.0255 C.3       3 GLC5        0.0000 
     43 CA         37.0300   18.5140   20.1220 C.3       6 GLP5        0.0000 
     44 N          39.1695   14.6310   26.2525 N.am      1 SEC2        0.0000 
     45 N          38.1080   15.6000   25.6840 N.am      7 SEL2        0.0000 
     46 N          40.2310   13.6620   26.8210 N.am      4 SEP2        0.0000 
     47 N          37.1015   15.4890   24.9475 N.am      1 SEC2        0.0000 
     48 N          36.0950   15.3780   24.2110 N.am      4 SEP2        0.0000 
     49 CA         42.5766   18.8120   19.1760 C.3       3 GLC5        0.0000 
     50 CA         44.3590   17.7550   19.0950 C.3       9 GLL5        0.0000 
     51 CA         40.6490   19.2590   18.9690 C.3       6 GLP5        0.0000 
     52 CA         44.5715   19.5108   23.6835 C.3       3 GLC5        0.0000 
     53 CA         42.8915   21.0805   25.3743 C.3       3 GLC5        0.0000 
     54 CA         43.5920   22.1950   26.6030 C.3       6 GLP5        0.0000 
@<TRIPOS>BOND
@<TRIPOS>SUBSTRUCTURE
     1 SEC2       24 GROUP        1 X    SEC  0     ROOT SEC X 2
     2 LYC4       21 GROUP        1 X    LYC  0     **** LYC X 4
     3 GLC5        1 GROUP        1 X    GLC  0     **** GLC X 6
     4 SEP2       26 GROUP        1 Y    SEP  0     ROOT SEP Y 9
     5 LYP4       23 GROUP        1 Y    LYP  0     **** LYP Y 11
     6 GLP5        3 GROUP        1 Y    GLP  0     **** GLP Y 13
     7 SEL2       25 GROUP        1 Z    SEL  0     ROOT SEL Z 16
     8 LYL4       22 GROUP        1 Z    LYL  0     **** LYL Z 18
     9 GLL5        2 GROUP        1 Z    GLL  0     **** GLL Z 20
@<TRIPOS>SET

