#    Name: 1w05_W05_1_ligand
#    Modification time : Tue Mar 25 08:18:38 2014

@<TRIPOS>MOLECULE
1w05_W05_1_ligand
   41    40     1     0     0
SMALL
NO_CHARGES


@<TRIPOS>ATOM
      1 C1         44.6480   18.2960   15.2880 C.2       1 W051332     0.0000 
      2 C2         44.3320   17.4850   16.5770 C.3       1 W051332     0.0000 
      3 C3         44.5460   18.4510   17.7530 C.3       1 W051332     0.0000 
      4 C4         44.3590   17.7550   19.0950 C.3       1 W051332     0.0000 
      5 C7         44.5560   18.6270   20.3420 C.3       1 W051332     0.0000 
      6 C10        44.2070   17.8870   21.6780 C.2       1 W051332     0.0000 
      7 N11        43.2260   18.3870   22.3780 N.am      1 W051332     0.0000 
      8 C12        42.8150   18.0390   23.7050 C.3       1 W051332     0.0000 
      9 C13        41.5660   17.1870   23.7600 C.2       1 W051332     0.0000 
     10 N14        45.1570   16.2640   16.6520 N.4       1 W051332     0.0000 
     11 O15        44.8290   16.9030   22.0350 O.2       1 W051332     0.0000 
     12 C16        42.7010   19.2900   24.5050 C.3       1 W051332     0.0000 
     13 S17        41.6810   20.6420   23.7860 S.3       1 W051332     0.0000 
     14 O18        41.7260   15.9290   23.8960 O.2       1 W051332     0.0000 
     15 O19        45.5710   17.9020   14.5260 O.co2     1 W051332     0.0000 
     16 O20        43.9530   19.3220   15.0800 O.co2     1 W051332     0.0000 
     17 N29        40.4020   17.8360   23.7210 N.am      1 W051332     0.0000 
     18 C30        39.0680   17.1970   24.0660 C.3       1 W051332     0.0000 
     19 C31        39.0120   16.4950   25.4660 C.2       1 W051332     0.0000 
     20 C32        37.9040   18.2460   23.9290 C.3       1 W051332     0.0000 
     21 O42        39.9250   16.8810   26.2560 O.co2     1 W051332     0.0000 
     22 O43        38.1080   15.6000   25.6840 O.co2     1 W051332     0.0000 
     23 H          43.2761   17.2420   16.5369 H         1 W051332     0.0000 
     24 H          43.8334   19.2742   17.6684 H         1 W051332     0.0000 
     25 H          45.5564   18.8610   17.6942 H         1 W051332     0.0000 
     26 H          45.0601   16.8940   19.1540 H         1 W051332     0.0000 
     27 H          43.3388   17.3142   19.1321 H         1 W051332     0.0000 
     28 H          43.9226   19.5169   20.2687 H         1 W051332     0.0000 
     29 H          45.5987   18.9562   20.3960 H         1 W051332     0.0000 
     30 H          42.6101   19.1770   21.9348 H         1 W051332     0.0000 
     31 H          43.6380   17.4403   24.1781 H         1 W051332     0.0000 
     32 H          43.6510   19.8111   24.6668 H         1 W051332     0.0000 
     33 H          42.2166   19.1609   25.4791 H         1 W051332     0.0000 
     34 H          40.3237   18.8431   23.4469 H         1 W051332     0.0000 
     35 H          38.8518   16.4159   23.3074 H         1 W051332     0.0000 
     36 H          45.7688   16.1803   15.8654 H         1 W051332     0.0000 
     37 H          45.7300   16.2526   17.4715 H         1 W051332     0.0000 
     38 H          44.5952   15.4371   16.6756 H         1 W051332     0.0000 
     39 H          38.0362   19.0290   24.5368 H         1 W051332     0.0000 
     40 H          37.8358   18.6056   22.9984 H         1 W051332     0.0000 
     41 H          37.0155   17.8465   24.1547 H         1 W051332     0.0000 
@<TRIPOS>BOND
     1    2    1 1    
     2   15    1 ar   
     3   16    1 ar   
     4    3    2 1    
     5   10    2 1    
     6   23    2 1    
     7    4    3 1    
     8   24    3 1    
     9   25    3 1    
    10    5    4 1    
    11   26    4 1    
    12   27    4 1    
    13    6    5 1    
    14   28    5 1    
    15   29    5 1    
    16    7    6 am   
    17   11    6 2    
    18    8    7 1    
    19   30    7 1    
    20    9    8 1    
    21   12    8 1    
    22   31    8 1    
    23   14    9 2    
    24   17    9 am   
    25   36   10 1    
    26   37   10 1    
    27   38   10 1    
    28   13   12 1    
    29   32   12 1    
    30   33   12 1    
    31   18   17 1    
    32   34   17 1    
    33   19   18 1    
    34   20   18 1    
    35   35   18 1    
    36   21   19 ar   
    37   22   19 ar   
    38   39   20 1    
    39   40   20 1    
    40   41   20 1    
@<TRIPOS>SUBSTRUCTURE
     1 W051332     1 GROUP   
@<TRIPOS>SET

