#    Name: 2c98_ADP_1_INTS_M
#    Modification time : Mon Mar 24 23:17:30 2014

@<TRIPOS>MOLECULE
2c98_ADP_1_INTS_M
   54     0    12     0     0
SMALL
NO_CHARGES


@<TRIPOS>ATOM
      1 NZ         32.0005   -6.6640   -2.1170 N.4       3 LYC4        0.0000 
      2 NZ         31.6300   -8.0840   -1.9940 N.4      11 LYL4        0.0000 
      3 NZ         32.5400   -4.9830   -3.5090 N.4       7 LYP4        0.0000 
      4 N          32.2675   -7.7055   -0.7260 N.am      2 SEC2        0.0000 
      5 N          31.6300   -8.0840   -1.9940 N.am     10 SEL2        0.0000 
      6 N          32.9050   -7.3270    0.5420 N.am      6 SEP2        0.0000 
      7 N          32.0005   -6.6640   -2.1170 N.am      2 SEC2        0.0000 
      8 N          32.3710   -5.2440   -2.2400 N.am      6 SEP2        0.0000 
      9 N          31.9230   -6.9860   -3.2035 N.am      2 SEC2        0.0000 
     10 N          32.2160   -5.8880   -4.4130 N.am      6 SEP2        0.0000 
     11 N          31.6230  -11.7670   -3.7175 N.am      2 SEC2        0.0000 
     12 N          31.3210  -10.3470   -3.1510 N.am     10 SEL2        0.0000 
     13 N          31.9250  -13.1870   -4.2840 N.am      6 SEP2        0.0000 
     14 N          34.1455  -10.6955   -1.0120 N.am      2 SEC2        0.0000 
     15 N          32.7880  -10.1530   -1.1970 N.am     10 SEL2        0.0000 
     16 N          35.5030  -11.2380   -0.8270 N.am      6 SEP2        0.0000 
     17 N          33.1135  -11.5200   -1.5200 N.am      2 SEC2        0.0000 
     18 N          33.4390  -12.8870   -1.8430 N.am      6 SEP2        0.0000 
     19 N          34.2540  -12.2790   -5.2345 N.am      2 SEC2        0.0000 
     20 N          34.3190  -10.9880   -4.5700 N.am     10 SEL2        0.0000 
     21 N          34.1890  -13.5700   -5.8990 N.am      6 SEP2        0.0000 
     22 N          32.7770   -7.4160   -3.8600 N.am      2 SEC2        0.0000 
     23 N          33.3380   -8.9440   -3.3070 N.am     10 SEL2        0.0000 
     24 CA         34.9775   -7.3040   -1.8175 C.3       4 GLC5        0.0000 
     25 CA         35.6870   -7.4990   -3.7540 C.3      12 GLL5        0.0000 
     26 CA         34.2680   -7.1090    0.1190 C.3       8 GLP5        0.0000 
     27 CA         38.4560  -10.6200   -6.0245 C.3       4 GLC5        0.0000 
     28 CA         38.0660   -8.5400   -5.8400 C.3      12 GLL5        0.0000 
     29 CA         38.8460  -12.7000   -6.2090 C.3       8 GLP5        0.0000 
     30 CA         39.7120   -7.4530   -3.0535 C.3       4 GLC5        0.0000 
     31 CA         38.8920   -8.1870   -4.6380 C.3      12 GLL5        0.0000 
     32 CA         40.5320   -6.7190   -1.4690 C.3       8 GLP5        0.0000 
     33 CA         42.8645  -13.2930   -4.0260 C.3       4 GLC5        0.0000 
     34 CA         42.0310  -11.6160   -3.0240 C.3      12 GLL5        0.0000 
     35 CA         43.6980  -14.9700   -5.0280 C.3       8 GLP5        0.0000 
     36 O          43.6030  -12.8085   -1.6535 O.2       1 ALC1        0.0000 
     37 O          42.2320  -12.6270   -2.1930 O.2       9 ALL1        0.0000 
     38 O          44.9740  -12.9900   -1.1140 O.2       5 ALP1        0.0000 
     39 N          44.3130  -11.8835   -3.7485 N.am      2 SEC2        0.0000 
     40 N          43.1080  -11.1210   -3.7130 N.am     10 SEL2        0.0000 
     41 N          45.5180  -12.6460   -3.7840 N.am      6 SEP2        0.0000 
     42 CA         43.8470  -12.0090   -5.0870 C.3       4 GLC5        0.0000 
     43 CA         43.0070  -10.0490   -4.5490 C.3      12 GLL5        0.0000 
     44 CA         44.6870  -13.9690   -5.6250 C.3       8 GLP5        0.0000 
     45 CA         44.9100  -10.0020   -4.2610 C.3       4 GLC5        0.0000 
     46 CA         46.8130   -9.9550   -3.9730 C.3       8 GLP5        0.0000 
     47 CA         40.6340   -8.2705   -2.7305 C.3       4 GLC5        0.0000 
     48 CA         40.7360   -9.8220   -3.9920 C.3      12 GLL5        0.0000 
     49 CA         39.8115  -11.5430   -4.8930 C.3       4 GLC5        0.0000 
     50 CA         42.4947  -10.5835   -1.4845 C.3       4 GLC5        0.0000 
     51 CA         40.8180  -10.9500   -3.1620 C.3      12 GLL5        0.0000 
     52 CA         43.5650   -9.8840    0.1240 C.3       8 GLP5        0.0000 
     53 CA         40.7137  -10.3440   -1.4675 C.3       4 GLC5        0.0000 
     54 CA         40.0030   -9.4050    0.1580 C.3       8 GLP5        0.0000 
@<TRIPOS>BOND
@<TRIPOS>SUBSTRUCTURE
     1 ALC1       36 GROUP        1 X    ALC  0     ROOT ALC X 1
     2 SEC2        4 GROUP        1 X    SEC  0     **** SEC X 2
     3 LYC4        1 GROUP        1 X    LYC  0     **** LYC X 4
     4 GLC5       24 GROUP        1 X    GLC  0     **** GLC X 6
     5 ALP1       38 GROUP        1 Y    ALP  0     ROOT ALP Y 8
     6 SEP2        6 GROUP        1 Y    SEP  0     **** SEP Y 9
     7 LYP4        3 GROUP        1 Y    LYP  0     **** LYP Y 11
     8 GLP5       26 GROUP        1 Y    GLP  0     **** GLP Y 13
     9 ALL1       37 GROUP        1 Z    ALL  0     ROOT ALL Z 15
    10 SEL2        5 GROUP        1 Z    SEL  0     **** SEL Z 16
    11 LYL4        2 GROUP        1 Z    LYL  0     **** LYL Z 18
    12 GLL5       25 GROUP        1 Z    GLL  0     **** GLL Z 20
@<TRIPOS>SET

