#    Name: 2c98_ADP_1_ligand
#    Modification time : Mon Mar 24 23:17:31 2014

@<TRIPOS>MOLECULE
2c98_ADP_1_ligand
   39    41     1     0     0
SMALL
NO_CHARGES


@<TRIPOS>ATOM
      1 PB         32.2270   -9.4680   -2.3460 P.3       1 ADP400      0.0000 
      2 O1B        31.6300   -8.0840   -1.9940 O.co2     1 ADP400      0.0000 
      3 O2B        31.3210  -10.3470   -3.1510 O.co2     1 ADP400      0.0000 
      4 O3B        32.7880  -10.1530   -1.1970 O.co2     1 ADP400      0.0000 
      5 PA         34.2030   -9.5110   -4.4770 P.3       1 ADP400      0.0000 
      6 O1A        33.5700   -8.8420   -5.5690 O.co2     1 ADP400      0.0000 
      7 O2A        34.3190  -10.9880   -4.5700 O.co2     1 ADP400      0.0000 
      8 O3A        33.3380   -8.9440   -3.3070 O.3       1 ADP400      0.0000 
      9 O5'        35.6260   -8.8730   -4.0450 O.3       1 ADP400      0.0000 
     10 C5'        35.6870   -7.4990   -3.7540 C.3       1 ADP400      0.0000 
     11 C4'        36.9310   -6.9490   -4.4310 C.3       1 ADP400      0.0000 
     12 O4'        38.0410   -7.4810   -3.7740 O.3       1 ADP400      0.0000 
     13 C3'        37.0870   -7.3970   -5.8850 C.3       1 ADP400      0.0000 
     14 O3'        37.6640   -6.3100   -6.5860 O.3       1 ADP400      0.0000 
     15 C2'        38.0660   -8.5400   -5.8400 C.3       1 ADP400      0.0000 
     16 O2'        38.9400   -8.6630   -6.9380 O.3       1 ADP400      0.0000 
     17 C1'        38.8920   -8.1870   -4.6380 C.3       1 ADP400      0.0000 
     18 N9         39.4330   -9.3550   -3.9370 N.pl3     1 ADP400      0.0000 
     19 C8         38.7400  -10.1810   -3.0770 C.2       1 ADP400      0.0000 
     20 N7         39.5760  -11.1400   -2.6140 N.2       1 ADP400      0.0000 
     21 C5         40.8180  -10.9500   -3.1620 C.ar      1 ADP400      0.0000 
     22 C6         42.0310  -11.6160   -3.0240 C.ar      1 ADP400      0.0000 
     23 N6         42.2320  -12.6270   -2.1930 N.pl3     1 ADP400      0.0000 
     24 N1         43.1080  -11.1210   -3.7130 N.ar      1 ADP400      0.0000 
     25 C2         43.0070  -10.0490   -4.5490 C.ar      1 ADP400      0.0000 
     26 N3         41.8250   -9.3640   -4.6790 N.ar      1 ADP400      0.0000 
     27 C4         40.7360   -9.8220   -3.9920 C.ar      1 ADP400      0.0000 
     28 H          35.7743   -7.3032   -2.6854 H         1 ADP400      0.0000 
     29 H          34.8271   -6.9527   -4.1413 H         1 ADP400      0.0000 
     30 H          36.9255   -5.8866   -4.3960 H         1 ADP400      0.0000 
     31 H          36.1696   -7.7093   -6.2490 H         1 ADP400      0.0000 
     32 H          37.5385   -9.4380   -5.6005 H         1 ADP400      0.0000 
     33 H          39.7032   -7.5439   -4.9660 H         1 ADP400      0.0000 
     34 H          37.8089  -10.0795   -2.8509 H         1 ADP400      0.0000 
     35 H          43.1682  -12.7449   -1.8619 H         1 ADP400      0.0000 
     36 H          41.4294  -13.1810   -1.9717 H         1 ADP400      0.0000 
     37 H          43.8375   -9.7419   -5.0993 H         1 ADP400      0.0000 
     38 H          38.5695   -6.6320   -6.8625 H         1 ADP400      0.0000 
     39 H          39.7357   -9.1529   -6.5817 H         1 ADP400      0.0000 
@<TRIPOS>BOND
     1    2    1 ar   
     2    3    1 ar   
     3    4    1 ar   
     4    8    1 1    
     5    6    5 ar   
     6    7    5 ar   
     7    8    5 1    
     8    9    5 1    
     9   10    9 1    
    10   11   10 1    
    11   28   10 1    
    12   29   10 1    
    13   12   11 1    
    14   13   11 1    
    15   30   11 1    
    16   17   12 1    
    17   14   13 1    
    18   15   13 1    
    19   31   13 1    
    20   38   14 1    
    21   16   15 1    
    22   17   15 1    
    23   32   15 1    
    24   39   16 1    
    25   18   17 1    
    26   33   17 1    
    27   19   18 1    
    28   27   18 1    
    29   20   19 2    
    30   34   19 1    
    31   21   20 1    
    32   22   21 ar   
    33   27   21 ar   
    34   23   22 1    
    35   24   22 ar   
    36   35   23 1    
    37   36   23 1    
    38   25   24 ar   
    39   26   25 ar   
    40   37   25 1    
    41   27   26 ar   
@<TRIPOS>SUBSTRUCTURE
     1 ADP400      1 GROUP   
@<TRIPOS>SET

