#    Name: 1nqu_RDL_3_INTS_M
#    Modification time : Mon Mar 24 18:40:12 2014

@<TRIPOS>MOLECULE
1nqu_RDL_3_INTS_M
   57     0     9     0     0
SMALL
NO_CHARGES


@<TRIPOS>ATOM
      1 N         158.0210  -17.3205  128.9800 N.am      2 SEC2        0.0000 
      2 N         157.4870  -18.3000  129.8830 N.am      8 SEL2        0.0000 
      3 N         158.5550  -16.3410  128.0770 N.am      5 SEP2        0.0000 
      4 O         156.2655  -18.6895  129.6425 O.2       1 ALC1        0.0000 
      5 O         157.4870  -18.3000  129.8830 O.2       7 ALL1        0.0000 
      6 O         155.0440  -19.0790  129.4020 O.2       4 ALP1        0.0000 
      7 CA        157.8400  -18.9195  128.5125 C.3       3 GLC5        0.0000 
      8 CA        158.2140  -19.2390  130.6600 C.3       9 GLL5        0.0000 
      9 CA        157.4660  -18.6000  126.3650 C.3       6 GLP5        0.0000 
     10 CA        158.8105  -17.3040  129.7100 C.3       3 GLC5        0.0000 
     11 CA        159.4070  -15.3690  128.7600 C.3       6 GLP5        0.0000 
     12 CA        159.5600  -20.0260  129.3350 C.3       3 GLC5        0.0000 
     13 CA        160.9060  -20.8130  128.0100 C.3       6 GLP5        0.0000 
     14 CA        157.5185  -20.7715  129.5600 C.3       3 GLC5        0.0000 
     15 CA        156.8230  -22.3040  128.4600 C.3       6 GLP5        0.0000 
     16 O         159.7180  -17.0895  131.3620 O.2       1 ALC1        0.0000 
     17 O         158.7840  -17.5590  132.3440 O.2       7 ALL1        0.0000 
     18 O         160.6520  -16.6200  130.3800 O.2       4 ALP1        0.0000 
     19 O         155.0040  -19.9370  131.7895 O.2       1 ALC1        0.0000 
     20 O         156.1330  -20.0920  132.4970 O.2       7 ALL1        0.0000 
     21 O         153.8750  -19.7820  131.0820 O.2       4 ALP1        0.0000 
     22 O         155.5885  -19.5855  130.9495 O.2       1 ALC1        0.0000 
     23 N         153.9825  -17.4035  134.0110 N.am      2 SEC2        0.0000 
     24 N         155.2800  -18.0720  134.4880 N.am      8 SEL2        0.0000 
     25 N         152.6850  -16.7350  133.5340 N.am      5 SEP2        0.0000 
     26 CA        157.2295  -20.8360  136.1295 C.3       3 GLC5        0.0000 
     27 CA        157.2140  -19.2760  135.0520 C.3       9 GLL5        0.0000 
     28 CA        157.2450  -22.3960  137.2070 C.3       6 GLP5        0.0000 
     29 N         160.7060  -16.5795  137.3610 N.am      2 SEC2        0.0000 
     30 N         160.4010  -17.9350  138.3320 N.am      8 SEL2        0.0000 
     31 N         161.0110  -15.2240  136.3900 N.am      5 SEP2        0.0000 
     32 CA        156.9385  -20.6705  137.2885 C.3       3 GLC5        0.0000 
     33 CA        156.6320  -18.9450  137.3700 C.3       9 GLL5        0.0000 
     34 CA        157.1015  -16.9955  136.6890 C.3       3 GLC5        0.0000 
     35 CA        157.5710  -15.0460  136.0080 C.3       6 GLP5        0.0000 
     36 CA        157.3240  -20.2385  139.3125 C.3       3 GLC5        0.0000 
     37 CA        157.0130  -18.6120  138.7220 C.3       9 GLL5        0.0000 
     38 CA        157.6350  -21.8650  139.9030 C.3       6 GLP5        0.0000 
     39 N         155.7715  -17.8890  142.3200 N.am      2 SEC2        0.0000 
     40 N         156.2990  -18.4650  140.9510 N.am      8 SEL2        0.0000 
     41 N         155.2440  -17.3130  143.6890 N.am      5 SEP2        0.0000 
     42 O         153.7960  -19.4140  140.3275 O.2       1 ALC1        0.0000 
     43 O         154.7620  -19.0940  139.3600 O.2       7 ALL1        0.0000 
     44 O         152.8300  -19.7340  141.2950 O.2       4 ALP1        0.0000 
     45 N         152.7585  -19.2475  136.4975 N.am      2 SEC2        0.0000 
     46 N         153.2510  -19.6040  137.7990 N.am      8 SEL2        0.0000 
     47 N         152.2660  -18.8910  135.1960 N.am      5 SEP2        0.0000 
     48 N         152.1715  -18.6660  137.7325 N.am      2 SEC2        0.0000 
     49 N         151.0920  -17.7280  137.6660 N.am      5 SEP2        0.0000 
     50 CA        155.5367  -17.2960  132.6538 C.3       3 GLC5        0.0000 
     51 CA        156.6390  -18.2780  134.0990 C.3       9 GLL5        0.0000 
     52 CA        154.3850  -16.0580  131.9290 C.3       6 GLP5        0.0000 
     53 CA        157.2488  -16.9115  135.2917 C.3       3 GLC5        0.0000 
     54 CA        155.0546  -19.8900  134.1761 C.3       3 GLC5        0.0000 
     55 CA        153.1580  -20.8750  134.1370 C.3       6 GLP5        0.0000 
     56 CA        155.6587  -17.1773  138.7305 C.3       3 GLC5        0.0000 
     57 CA        154.4950  -15.5760  139.4150 C.3       6 GLP5        0.0000 
@<TRIPOS>BOND
@<TRIPOS>SUBSTRUCTURE
     1 ALC1        4 GROUP        1 X    ALC  0     ROOT ALC X 1
     2 SEC2        1 GROUP        1 X    SEC  0     **** SEC X 2
     3 GLC5        7 GROUP        1 X    GLC  0     **** GLC X 6
     4 ALP1        6 GROUP        1 Y    ALP  0     ROOT ALP Y 8
     5 SEP2        3 GROUP        1 Y    SEP  0     **** SEP Y 9
     6 GLP5        9 GROUP        1 Y    GLP  0     **** GLP Y 13
     7 ALL1        5 GROUP        1 Z    ALL  0     ROOT ALL Z 15
     8 SEL2        2 GROUP        1 Z    SEL  0     **** SEL Z 16
     9 GLL5        8 GROUP        1 Z    GLL  0     **** GLL Z 20
@<TRIPOS>SET

