#    Name: 1nqu_RDL_3_ligand
#    Modification time : Mon Mar 24 18:40:12 2014

@<TRIPOS>MOLECULE
1nqu_RDL_3_ligand
   37    38     1     0     0
SMALL
NO_CHARGES


@<TRIPOS>ATOM
      1 O15       157.4870  -18.3000  129.8830 O.3       1 RDL3201     0.0000 
      2 C15       158.2140  -19.2390  130.6600 C.3       1 RDL3201     0.0000 
      3 C14       158.1730  -18.8380  132.1440 C.3       1 RDL3201     0.0000 
      4 O14       158.7840  -17.5590  132.3440 O.3       1 RDL3201     0.0000 
      5 C13       156.7380  -18.7900  132.6580 C.3       1 RDL3201     0.0000 
      6 O13       156.1330  -20.0920  132.4970 O.3       1 RDL3201     0.0000 
      7 C12       156.6390  -18.2780  134.0990 C.3       1 RDL3201     0.0000 
      8 O12       155.2800  -18.0720  134.4880 O.3       1 RDL3201     0.0000 
      9 C11       157.2140  -19.2760  135.0520 C.3       1 RDL3201     0.0000 
     10 N9        157.5520  -18.8580  136.4070 N.am      1 RDL3201     0.0000 
     11 C8        158.8200  -18.5200  136.6750 C.2       1 RDL3201     0.0000 
     12 O8        159.7070  -18.4450  135.7910 O.2       1 RDL3201     0.0000 
     13 C7        159.2080  -18.2200  138.0660 C.2       1 RDL3201     0.0000 
     14 O7        160.4010  -17.9350  138.3320 O.2       1 RDL3201     0.0000 
     15 C10       156.6320  -18.9450  137.3700 C.2       1 RDL3201     0.0000 
     16 C5        157.0130  -18.6120  138.7220 C.2       1 RDL3201     0.0000 
     17 N6        158.2940  -18.2650  139.0230 N.am      1 RDL3201     0.0000 
     18 C4        156.0040  -18.7140  139.7400 C.2       1 RDL3201     0.0000 
     19 O4        156.2990  -18.4650  140.9510 O.2       1 RDL3201     0.0000 
     20 N3        154.7620  -19.0940  139.3600 N.am      1 RDL3201     0.0000 
     21 C2        154.4350  -19.3020  138.0840 C.2       1 RDL3201     0.0000 
     22 N1        155.3420  -19.2320  137.1210 N.am      1 RDL3201     0.0000 
     23 O2        153.2510  -19.6040  137.7990 O.2       1 RDL3201     0.0000 
     24 H         159.2696  -19.2910  130.3642 H         1 RDL3201     0.0000 
     25 H         157.7962  -20.2509  130.5829 H         1 RDL3201     0.0000 
     26 H         158.6998  -19.6048  132.7087 H         1 RDL3201     0.0000 
     27 H         156.1974  -18.0642  132.0164 H         1 RDL3201     0.0000 
     28 H         157.2045  -17.3636  134.1780 H         1 RDL3201     0.0000 
     29 H         158.1331  -19.7343  134.5618 H         1 RDL3201     0.0000 
     30 H         156.4998  -20.1607  135.1008 H         1 RDL3201     0.0000 
     31 H         158.5389  -18.0376  140.0119 H         1 RDL3201     0.0000 
     32 H         154.0261  -19.2294  140.1124 H         1 RDL3201     0.0000 
     33 H         155.0490  -19.4071  136.1153 H         1 RDL3201     0.0000 
     34 H         156.5944  -18.7249  129.7321 H         1 RDL3201     0.0000 
     35 H         159.4172  -17.4521  131.5774 H         1 RDL3201     0.0000 
     36 H         155.2946  -19.9253  131.9780 H         1 RDL3201     0.0000 
     37 H         155.3221  -17.4048  135.2317 H         1 RDL3201     0.0000 
@<TRIPOS>BOND
     1    2    1 1    
     2   34    1 1    
     3    3    2 1    
     4   24    2 1    
     5   25    2 1    
     6    4    3 1    
     7    5    3 1    
     8   26    3 1    
     9   35    4 1    
    10    6    5 1    
    11    7    5 1    
    12   27    5 1    
    13   36    6 1    
    14    8    7 1    
    15    9    7 1    
    16   28    7 1    
    17   37    8 1    
    18   10    9 1    
    19   29    9 1    
    20   30    9 1    
    21   11   10 am   
    22   15   10 1    
    23   12   11 2    
    24   13   11 1    
    25   14   13 2    
    26   17   13 am   
    27   16   15 2    
    28   22   15 1    
    29   17   16 1    
    30   18   16 1    
    31   31   17 1    
    32   19   18 2    
    33   20   18 1    
    34   21   20 1    
    35   32   20 1    
    36   22   21 1    
    37   23   21 2    
    38   33   22 1    
@<TRIPOS>SUBSTRUCTURE
     1 RDL3201     1 GROUP   
@<TRIPOS>SET

