#    Name: 4ho9_GDU_3_INTS_M
#    Modification time : Tue Mar 25 01:34:03 2014

@<TRIPOS>MOLECULE
4ho9_GDU_3_INTS_M
   83     0    12     0     0
SMALL
NO_CHARGES


@<TRIPOS>ATOM
      1 O          50.8985  -41.5520   29.9910 O.2       1 ALC1        0.0000 
      2 O          51.1080  -40.1700   30.1620 O.2       9 ALL1        0.0000 
      3 O          50.6890  -42.9340   29.8200 O.2       5 ALP1        0.0000 
      4 CA         52.7370  -39.9765   32.1700 C.3       4 GLC5        0.0000 
      5 CA         52.7360  -38.4690   30.5680 C.3      12 GLL5        0.0000 
      6 CA         52.7380  -41.4840   33.7720 C.3       8 GLP5        0.0000 
      7 CA         54.5420  -39.1000   29.8505 C.3       4 GLC5        0.0000 
      8 CA         56.3480  -39.7310   29.1330 C.3       8 GLP5        0.0000 
      9 N          47.4655  -39.9805   29.9960 N.am      2 SEC2        0.0000 
     10 N          48.8940  -39.6190   29.9980 N.am     10 SEL2        0.0000 
     11 N          46.0370  -40.3420   29.9940 N.am      6 SEP2        0.0000 
     12 N          53.0140  -42.0065   29.5915 N.am      2 SEC2        0.0000 
     13 N          53.3010  -40.7080   30.2730 N.am     10 SEL2        0.0000 
     14 N          52.7270  -43.3050   28.9100 N.am      6 SEP2        0.0000 
     15 N          54.7190  -40.8480   30.0810 N.am      2 SEC2        0.0000 
     16 N          56.1370  -40.9880   29.8890 N.am      6 SEP2        0.0000 
     17 CA         50.0240  -37.9135   28.5215 C.3       4 GLC5        0.0000 
     18 CA         49.3680  -36.8850   30.3850 C.3      12 GLL5        0.0000 
     19 CA         50.6800  -38.9420   26.6580 C.3       8 GLP5        0.0000 
     20 O          46.5055  -33.7985   31.0765 O.2       1 ALC1        0.0000 
     21 O          47.3080  -34.8870   31.0980 O.2       9 ALL1        0.0000 
     22 O          45.7030  -32.7100   31.0550 O.2       5 ALP1        0.0000 
     23 CA         51.9820  -34.8405   28.7865 C.3       4 GLC5        0.0000 
     24 CA         50.5030  -33.6860   29.8740 C.3      12 GLL5        0.0000 
     25 CA         53.4610  -35.9950   27.6990 C.3       8 GLP5        0.0000 
     26 NZ         56.4875  -30.8200   31.6430 N.4       3 LYC4        0.0000 
     27 NZ         55.3400  -31.4660   31.4610 N.4      11 LYL4        0.0000 
     28 NZ         57.6350  -30.1740   31.8250 N.4       7 LYP4        0.0000 
     29 NZ         56.3085  -32.5810   32.0685 N.4       3 LYC4        0.0000 
     30 NZ         58.2000  -33.9600   31.7250 N.4       7 LYP4        0.0000 
     31 N          56.4875  -30.8200   31.6430 N.am      2 SEC2        0.0000 
     32 N          55.3400  -31.4660   31.4610 N.am     10 SEL2        0.0000 
     33 N          57.6350  -30.1740   31.8250 N.am      6 SEP2        0.0000 
     34 N          56.3085  -32.5810   32.0685 N.am      2 SEC2        0.0000 
     35 N          57.2770  -33.6960   32.6760 N.am      6 SEP2        0.0000 
     36 NZ         56.4955  -33.7035   30.1865 N.4       3 LYC4        0.0000 
     37 NZ         55.0700  -33.6220   29.9420 N.4      11 LYL4        0.0000 
     38 N          56.4955  -33.7035   30.1865 N.am      2 SEC2        0.0000 
     39 N          55.0700  -33.6220   29.9420 N.am     10 SEL2        0.0000 
     40 N          57.9210  -33.7850   30.4310 N.am      6 SEP2        0.0000 
     41 CA         56.0665  -32.2345   25.2805 C.3       4 GLC5        0.0000 
     42 CA         55.5990  -31.3050   26.8090 C.3      12 GLL5        0.0000 
     43 CA         56.5340  -33.1640   23.7520 C.3       8 GLP5        0.0000 
     44 CA         56.1055  -27.9575   27.8235 C.3       4 GLC5        0.0000 
     45 CA         55.7200  -29.7920   26.7450 C.3      12 GLL5        0.0000 
     46 CA         56.4910  -26.1230   28.9020 C.3       8 GLP5        0.0000 
     47 CA         57.2210  -28.2550   26.3160 C.3       4 GLC5        0.0000 
     48 CA         58.7220  -26.7180   25.8870 C.3       8 GLP5        0.0000 
     49 CA         50.7565  -30.8500   26.5870 C.3       4 GLC5        0.0000 
     50 CA         51.9030  -29.2170   26.6710 C.3      12 GLL5        0.0000 
     51 CA         49.6100  -32.4830   26.5030 C.3       8 GLP5        0.0000 
     52 CA         51.5200  -28.0535   24.8315 C.3       4 GLC5        0.0000 
     53 CA         51.1370  -26.8900   22.9920 C.3       8 GLP5        0.0000 
     54 CA         50.8235  -29.8335   25.0380 C.3       4 GLC5        0.0000 
     55 CA         49.7440  -30.4500   23.4050 C.3       8 GLP5        0.0000 
     56 CA         50.5125  -27.8165   26.2920 C.3       4 GLC5        0.0000 
     57 CA         49.1220  -26.4160   25.9130 C.3       8 GLP5        0.0000 
     58 N          58.0395  -32.2960   26.8555 N.am      2 SEC2        0.0000 
     59 N          56.8350  -31.8150   27.3560 N.am     10 SEL2        0.0000 
     60 N          59.2440  -32.7770   26.3550 N.am      6 SEP2        0.0000 
     61 O          57.5600  -31.0335   28.1005 O.2       1 ALC1        0.0000 
     62 O          56.8350  -31.8150   27.3560 O.2       9 ALL1        0.0000 
     63 O          58.2850  -30.2520   28.8450 O.2       5 ALP1        0.0000 
     64 N          57.2215  -28.1860   26.3775 N.am      2 SEC2        0.0000 
     65 N          56.7440  -29.4770   25.8310 N.am     10 SEL2        0.0000 
     66 N          57.6990  -26.8950   26.9240 N.am      6 SEP2        0.0000 
     67 O          57.9835  -29.6400   26.3660 O.2       1 ALC1        0.0000 
     68 O          56.7440  -29.4770   25.8310 O.2       9 ALL1        0.0000 
     69 O          59.2230  -29.8030   26.9010 O.2       5 ALP1        0.0000 
     70 O          57.5145  -29.8645   27.3380 O.2       1 ALC1        0.0000 
     71 N          53.5720  -30.7405   24.3465 N.am      2 SEC2        0.0000 
     72 N          54.1250  -29.5690   24.8960 N.am     10 SEL2        0.0000 
     73 N          53.0190  -31.9120   23.7970 N.am      6 SEP2        0.0000 
     74 CA         51.4495  -38.4705   28.6133 C.3       4 GLC5        0.0000 
     75 CA         51.7020  -37.5290   30.5690 C.3      12 GLL5        0.0000 
     76 CA         52.8400  -36.9970   29.1337 C.3       4 GLC5        0.0000 
     77 CA         49.7557  -33.3092   28.1833 C.3       4 GLC5        0.0000 
     78 CA         54.2067  -33.1097   26.4105 C.3       4 GLC5        0.0000 
     79 CA         54.4680  -31.7080   27.7450 C.3      12 GLL5        0.0000 
     80 CA         53.3800  -34.7130   25.5440 C.3       8 GLP5        0.0000 
     81 CA         53.0233  -27.7318   27.8450 C.3       4 GLC5        0.0000 
     82 CA         53.2670  -29.6960   27.1720 C.3      12 GLL5        0.0000 
     83 CA         53.1820  -26.1380   28.9920 C.3       8 GLP5        0.0000 
@<TRIPOS>BOND
@<TRIPOS>SUBSTRUCTURE
     1 ALC1        1 GROUP        1 X    ALC  0     ROOT ALC X 1
     2 SEC2        9 GROUP        1 X    SEC  0     **** SEC X 2
     3 LYC4       26 GROUP        1 X    LYC  0     **** LYC X 4
     4 GLC5        4 GROUP        1 X    GLC  0     **** GLC X 6
     5 ALP1        3 GROUP        1 Y    ALP  0     ROOT ALP Y 8
     6 SEP2       11 GROUP        1 Y    SEP  0     **** SEP Y 9
     7 LYP4       28 GROUP        1 Y    LYP  0     **** LYP Y 11
     8 GLP5        6 GROUP        1 Y    GLP  0     **** GLP Y 13
     9 ALL1        2 GROUP        1 Z    ALL  0     ROOT ALL Z 15
    10 SEL2       10 GROUP        1 Z    SEL  0     **** SEL Z 16
    11 LYL4       27 GROUP        1 Z    LYL  0     **** LYL Z 18
    12 GLL5        5 GROUP        1 Z    GLL  0     **** GLL Z 20
@<TRIPOS>SET

