#    Name: 4ho9_GDU_3_ligand
#    Modification time : Tue Mar 25 01:34:03 2014

@<TRIPOS>MOLECULE
4ho9_GDU_3_ligand
   58    60     1     0     0
SMALL
NO_CHARGES


@<TRIPOS>ATOM
      1 N1         50.4340  -37.9140   30.3860 N.am      1 GDU300      0.0000 
      2 C2         50.1330  -39.2170   30.2060 C.2       1 GDU300      0.0000 
      3 N3         51.1080  -40.1700   30.1620 N.am      1 GDU300      0.0000 
      4 C4         52.3760  -39.7910   30.3230 C.2       1 GDU300      0.0000 
      5 C5         52.7360  -38.4690   30.5680 C.2       1 GDU300      0.0000 
      6 C6         51.7020  -37.5290   30.5690 C.2       1 GDU300      0.0000 
      7 O2         48.8940  -39.6190   29.9980 O.2       1 GDU300      0.0000 
      8 O4         53.3010  -40.7080   30.2730 O.2       1 GDU300      0.0000 
      9 C1D        49.3680  -36.8850   30.3850 C.3       1 GDU300      0.0000 
     10 C2D        49.3050  -36.0900   31.6820 C.3       1 GDU300      0.0000 
     11 O2D        48.5220  -36.7510   32.6580 O.3       1 GDU300      0.0000 
     12 C3D        48.7130  -34.7430   31.2560 C.3       1 GDU300      0.0000 
     13 C4D        49.3000  -34.5850   29.8530 C.3       1 GDU300      0.0000 
     14 O4D        49.7180  -35.9110   29.4210 O.3       1 GDU300      0.0000 
     15 O3D        47.3080  -34.8870   31.0980 O.3       1 GDU300      0.0000 
     16 C5D        50.5030  -33.6860   29.8740 C.3       1 GDU300      0.0000 
     17 O5D        51.4210  -34.0710   30.9280 O.3       1 GDU300      0.0000 
     18 PA         52.1760  -32.9070   31.7160 P.3       1 GDU300      0.0000 
     19 O1A        51.1950  -31.8820   32.1760 O.co2     1 GDU300      0.0000 
     20 O2A        52.9920  -33.5540   32.8170 O.co2     1 GDU300      0.0000 
     21 O3A        53.0410  -32.1250   30.6330 O.3       1 GDU300      0.0000 
     22 PB         54.6310  -32.2110   30.3300 P.3       1 GDU300      0.0000 
     23 O1B        55.3400  -31.4660   31.4610 O.co2     1 GDU300      0.0000 
     24 O2B        55.0700  -33.6220   29.9420 O.co2     1 GDU300      0.0000 
     25 O3B        54.7560  -31.2320   29.0790 O.3       1 GDU300      0.0000 
     26 C1'        54.4680  -31.7080   27.7450 C.3       1 GDU300      0.0000 
     27 C2'        55.5990  -31.3050   26.8090 C.3       1 GDU300      0.0000 
     28 C3'        55.7200  -29.7920   26.7450 C.3       1 GDU300      0.0000 
     29 C4'        54.3850  -29.1720   26.2780 C.3       1 GDU300      0.0000 
     30 C5'        53.2670  -29.6960   27.1720 C.3       1 GDU300      0.0000 
     31 C6'        51.9030  -29.2170   26.6710 C.3       1 GDU300      0.0000 
     32 O2'        56.8350  -31.8150   27.3560 O.3       1 GDU300      0.0000 
     33 O3'        56.7440  -29.4770   25.8310 O.3       1 GDU300      0.0000 
     34 O4'        54.1250  -29.5690   24.8960 O.3       1 GDU300      0.0000 
     35 O5'        53.2250  -31.1230   27.3070 O.3       1 GDU300      0.0000 
     36 O6'        51.0730  -29.1900   27.8650 O.3       1 GDU300      0.0000 
     37 H          50.8549  -41.1586   30.0068 H         1 GDU300      0.0000 
     38 H          53.6883  -38.2019   30.7356 H         1 GDU300      0.0000 
     39 H          51.9474  -36.5292   30.7153 H         1 GDU300      0.0000 
     40 H          48.4214  -37.3008   30.1850 H         1 GDU300      0.0000 
     41 H          50.3181  -35.9100   31.9958 H         1 GDU300      0.0000 
     42 H          49.0334  -33.9985   31.8602 H         1 GDU300      0.0000 
     43 H          48.5556  -34.1946   29.2075 H         1 GDU300      0.0000 
     44 H          50.1633  -32.6478   30.0138 H         1 GDU300      0.0000 
     45 H          50.9963  -33.7363   28.8907 H         1 GDU300      0.0000 
     46 H          54.3993  -32.7840   27.7425 H         1 GDU300      0.0000 
     47 H          55.4158  -31.6891   25.8411 H         1 GDU300      0.0000 
     48 H          55.9328  -29.4263   27.7306 H         1 GDU300      0.0000 
     49 H          54.4477  -28.1165   26.3766 H         1 GDU300      0.0000 
     50 H          53.3977  -29.2331   28.1713 H         1 GDU300      0.0000 
     51 H          51.5377  -29.9202   25.9511 H         1 GDU300      0.0000 
     52 H          52.0187  -28.2406   26.2475 H         1 GDU300      0.0000 
     53 H          47.6776  -36.2185   32.7163 H         1 GDU300      0.0000 
     54 H          46.9497  -33.9534   31.1061 H         1 GDU300      0.0000 
     55 H          57.2238  -31.0518   27.8721 H         1 GDU300      0.0000 
     56 H          57.5949  -29.6746   26.3177 H         1 GDU300      0.0000 
     57 H          55.0136  -29.5168   24.4403 H         1 GDU300      0.0000 
     58 H          50.1322  -29.1857   27.5260 H         1 GDU300      0.0000 
@<TRIPOS>BOND
     1    2    1 1    
     2    6    1 1    
     3    9    1 1    
     4    3    2 1    
     5    7    2 2    
     6    4    3 1    
     7   37    3 1    
     8    5    4 1    
     9    8    4 2    
    10    6    5 2    
    11   38    5 1    
    12   39    6 1    
    13   10    9 1    
    14   14    9 1    
    15   40    9 1    
    16   11   10 1    
    17   12   10 1    
    18   41   10 1    
    19   53   11 1    
    20   13   12 1    
    21   15   12 1    
    22   42   12 1    
    23   14   13 1    
    24   16   13 1    
    25   43   13 1    
    26   54   15 1    
    27   17   16 1    
    28   44   16 1    
    29   45   16 1    
    30   18   17 1    
    31   19   18 ar   
    32   20   18 ar   
    33   21   18 1    
    34   22   21 1    
    35   23   22 ar   
    36   24   22 ar   
    37   25   22 1    
    38   26   25 1    
    39   27   26 1    
    40   35   26 1    
    41   46   26 1    
    42   28   27 1    
    43   32   27 1    
    44   47   27 1    
    45   29   28 1    
    46   33   28 1    
    47   48   28 1    
    48   30   29 1    
    49   34   29 1    
    50   49   29 1    
    51   31   30 1    
    52   35   30 1    
    53   50   30 1    
    54   36   31 1    
    55   51   31 1    
    56   52   31 1    
    57   55   32 1    
    58   56   33 1    
    59   57   34 1    
    60   58   36 1    
@<TRIPOS>SUBSTRUCTURE
     1 GDU300      1 GROUP   
@<TRIPOS>SET

