#    Name: 1W0Y_1_CAVITY_N1_6.mol2
#    Modification time : Mon Mar 10 14:55:40 2014

@<TRIPOS>MOLECULE
1W0Y_1_CAVITY_N1_6.mol2
   68     0     4     0     0
SMALL
NO_CHARGES


@<TRIPOS>ATOM
      1 CA         37.9171    8.8164    9.8802 C.3       3 GLY6        0.0000 
      2 N          38.2133    9.1873    6.5599 N.2       2 ALA2        0.0000 
      3 N          35.0842    5.7510   10.6404 N.2       2 ALA2        0.0000 
      4 N          33.0969    3.5837   12.2539 N.2       2 ALA2        0.0000 
      5 N          33.6678    4.2182   11.0205 N.2       2 ALA2        0.0000 
      6 N          32.2514    2.6855   11.4005 N.2       2 ALA2        0.0000 
      7 DU         32.8222    3.3200   10.1671 H         4 CUB7        0.0000 
      8 DU         33.3931    3.9546    8.9336 H         4 CUB7        0.0000 
      9 CA         30.8349    1.1528   11.7806 C.3       3 GLY6        0.0000 
     10 CA         31.4058    1.7873   10.5471 C.3       3 GLY6        0.0000 
     11 CA         31.9767    2.4218    9.3137 C.3       3 GLY6        0.0000 
     12 O          34.3436   11.6131    7.8409 O.2       2 ALA2        0.0000 
     13 N          30.0728    6.9077   14.3884 N.2       2 ALA2        0.0000 
     14 N          30.6437    7.5422   13.1549 N.2       2 ALA2        0.0000 
     15 N          32.9272   10.0804    8.2210 N.2       2 ALA2        0.0000 
     16 CA         29.2272    6.0095   13.5350 C.3       3 GLY6        0.0000 
     17 O          29.7981    6.6440   12.3015 O.2       2 ALA2        0.0000 
     18 CA         30.3690    7.2785   11.0680 C.3       3 GLY6        0.0000 
     19 N          30.9399    7.9131    9.8346 N.2       2 ALA2        0.0000 
     20 N          31.5107    8.5476    8.6011 N.2       2 ALA2        0.0000 
     21 OG         30.0943    7.0149    8.9812 O.2       1 SER1        0.0000 
     22 N          30.6652    7.6494    7.7477 N.2       2 ALA2        0.0000 
     23 CA         29.8196    6.7512    6.8943 C.3       3 GLY6        0.0000 
     24 N          29.5441    8.5623   13.1708 N.2       2 ALA2        0.0000 
     25 CA         35.4011    8.3038   10.2762 C.3       3 GLY6        0.0000 
     26 CA         35.9719    8.9383    9.0427 C.3       3 GLY6        0.0000 
     27 CA         36.5428    9.5729    7.8092 C.3       3 GLY6        0.0000 
     28 N          37.1137   10.2074    6.5758 N.2       2 ALA2        0.0000 
     29 N          33.9846    6.7711   10.6562 N.2       2 ALA2        0.0000 
     30 CA         34.5555    7.4056    9.4228 C.3       3 GLY6        0.0000 
     31 DU         35.1264    8.0401    8.1893 H         4 CUB7        0.0000 
     32 DU         35.6973    8.6747    6.9558 H         4 CUB7        0.0000 
     33 CA         36.2681    9.3092    5.7224 C.3       3 GLY6        0.0000 
     34 N          31.9973    4.6038   12.2698 N.2       2 ALA2        0.0000 
     35 N          32.5682    5.2383   11.0363 N.2       2 ALA2        0.0000 
     36 DU         33.1391    5.8729    9.8029 H         4 CUB7        0.0000 
     37 DU         33.7099    6.5074    8.5694 H         4 CUB7        0.0000 
     38 DU         34.2808    7.1420    7.3359 H         4 CUB7        0.0000 
     39 CA         31.1518    3.7056   11.4164 C.3       3 GLY6        0.0000 
     40 CA         31.7226    4.3401   10.1829 C.3       3 GLY6        0.0000 
     41 CA         32.2935    4.9747    8.9495 C.3       3 GLY6        0.0000 
     42 DU         32.8644    5.6092    7.7160 H         4 CUB7        0.0000 
     43 CA         30.3062    2.8074   10.5630 C.3       3 GLY6        0.0000 
     44 CA         31.4480    4.0765    8.0961 C.3       3 GLY6        0.0000 
     45 CA         32.0188    4.7110    6.8626 C.3       3 GLY6        0.0000 
     46 CA         36.2888   11.4912    8.6785 C.3       3 GLY6        0.0000 
     47 CA         34.8723    9.9584    9.0586 C.3       3 GLY6        0.0000 
     48 N          35.4432   10.5930    7.8251 N.2       2 ALA2        0.0000 
     49 N          36.0141   11.2275    6.5916 N.2       2 ALA2        0.0000 
     50 N          31.1724    5.8875   14.3725 N.2       2 ALA2        0.0000 
     51 O          31.7433    6.5221   13.1391 O.2       2 ALA2        0.0000 
     52 CA         32.3141    7.1566   11.9056 C.3       3 GLY6        0.0000 
     53 CA         32.8850    7.7912   10.6721 C.3       3 GLY6        0.0000 
     54 N          33.4559    8.4257    9.4386 N.2       2 ALA2        0.0000 
     55 N          34.0268    9.0602    8.2052 N.2       2 ALA2        0.0000 
     56 CA         34.5976    9.6948    6.9717 C.3       3 GLY6        0.0000 
     57 CA         35.1685   10.3293    5.7382 C.3       3 GLY6        0.0000 
     58 N          30.3268    4.9894   13.5191 N.2       2 ALA2        0.0000 
     59 O          30.8977    5.6239   12.2857 O.2       2 ALA2        0.0000 
     60 CA         31.4686    6.2584   11.0522 C.3       3 GLY6        0.0000 
     61 N          32.0395    6.8930    9.8187 N.2       2 ALA2        0.0000 
     62 N          32.6103    7.5275    8.5852 N.2       2 ALA2        0.0000 
     63 N          33.1812    8.1621    7.3518 N.2       2 ALA2        0.0000 
     64 CA         33.7521    8.7966    6.1183 C.3       3 GLY6        0.0000 
     65 CA         30.6230    5.3603   10.1988 C.3       3 GLY6        0.0000 
     66 CA         31.1939    5.9948    8.9653 C.3       3 GLY6        0.0000 
     67 CA         31.7648    6.6293    7.7318 C.3       3 GLY6        0.0000 
     68 N          32.3357    7.2639    6.4984 N.2       2 ALA2        0.0000 
@<TRIPOS>BOND
@<TRIPOS>SUBSTRUCTURE
     1 SER1       21 GROUP   
     2 ALA2        2 GROUP   
     3 GLY6        1 GROUP   
     4 CUB7        7 GROUP   
@<TRIPOS>SET

