#    Name: 1w0y_771_1_INTS_M
#    Modification time : Tue Mar 25 08:26:06 2014

@<TRIPOS>MOLECULE
1w0y_771_1_INTS_M
   65     0     6     0     0
SMALL
NO_CHARGES


@<TRIPOS>ATOM
      1 CA         30.4460    7.7695   16.8985 C.3       2 GLC5        0.0000 
      2 CA         29.8940    6.6810   15.0960 C.3       6 GLL5        0.0000 
      3 CA         30.9980    8.8580   18.7010 C.3       4 GLP5        0.0000 
      4 O          28.8940    7.2035   17.2055 O.2       1 ALC1        0.0000 
      5 O          29.3940    7.6860   15.8290 O.2       5 ALL1        0.0000 
      6 O          28.3940    6.7210   18.5820 O.2       3 ALP1        0.0000 
      7 O          29.9635    5.3060   17.0230 O.2       1 ALC1        0.0000 
      8 O          30.2260    5.5920   15.8250 O.2       5 ALL1        0.0000 
      9 O          29.7010    5.0200   18.2210 O.2       3 ALP1        0.0000 
     10 O          29.3100    6.1565   17.2035 O.2       1 ALC1        0.0000 
     11 O          31.1410    4.4100   15.2415 O.2       1 ALC1        0.0000 
     12 O          32.0560    3.2280   14.6580 O.2       3 ALP1        0.0000 
     13 CA         30.0790   10.3040   11.6410 C.3       2 GLC5        0.0000 
     14 CA         29.6280    8.1420   11.6330 C.3       6 GLL5        0.0000 
     15 CA         30.5300   12.4660   11.6490 C.3       4 GLP5        0.0000 
     16 O          29.6135    8.3485    9.0235 O.2       1 ALC1        0.0000 
     17 O          30.7790    7.5770    9.5560 O.2       5 ALL1        0.0000 
     18 O          28.4480    9.1200    8.4910 O.2       3 ALP1        0.0000 
     19 CA         30.3580    5.5305    8.0990 C.3       2 GLC5        0.0000 
     20 CA         31.7020    6.6900    8.7660 C.3       6 GLL5        0.0000 
     21 CA         29.0140    4.3710    7.4320 C.3       4 GLP5        0.0000 
     22 CA         38.0505    9.6630   10.0635 C.3       2 GLC5        0.0000 
     23 CA         38.1770    7.7270    9.5410 C.3       6 GLL5        0.0000 
     24 CA         37.9240   11.5990   10.5860 C.3       4 GLP5        0.0000 
     25 CA         36.9785    5.1290   14.3325 C.3       2 GLC5        0.0000 
     26 CA         38.0040    6.3000   13.0250 C.3       6 GLL5        0.0000 
     27 CA         35.9530    3.9580   15.6400 C.3       4 GLP5        0.0000 
     28 CA         38.7255    4.5850   14.7225 C.3       2 GLC5        0.0000 
     29 CA         39.0420    5.3970   13.0020 C.3       6 GLL5        0.0000 
     30 CA         38.4090    3.7730   16.4430 C.3       4 GLP5        0.0000 
     31 CA         33.0770   11.4105    7.0930 C.3       2 GLC5        0.0000 
     32 CA         34.3570   11.2760    8.3370 C.3       6 GLL5        0.0000 
     33 CA         31.7970   11.5450    5.8490 C.3       4 GLP5        0.0000 
     34 CA         36.1405   11.4375    9.4615 C.3       2 GLC5        0.0000 
     35 CA         34.3305   10.6695   10.1530 C.3       2 GLC5        0.0000 
     36 CA         34.3040   10.0630   11.9690 C.3       4 GLP5        0.0000 
     37 CA         30.0915    4.2270   13.2015 C.3       2 GLC5        0.0000 
     38 CA         31.1120    6.1260   12.9430 C.3       6 GLL5        0.0000 
     39 CA         29.0710    2.3280   13.4600 C.3       4 GLP5        0.0000 
     40 CA         31.3790    8.5575   12.9173 C.3       2 GLC5        0.0000 
     41 CA         30.2090    6.9370   13.6710 C.3       6 GLL5        0.0000 
     42 CA         32.9150    9.6700   12.5020 C.3       4 GLP5        0.0000 
     43 CA         28.2391    6.0300   13.4514 C.3       2 GLC5        0.0000 
     44 CA         29.4770    7.9530   12.9940 C.3       6 GLL5        0.0000 
     45 CA         26.7140    4.6790   13.2140 C.3       4 GLP5        0.0000 
     46 CA         28.0188    9.1043   12.6062 C.3       2 GLC5        0.0000 
     47 CA         26.4850   10.1610   12.8990 C.3       4 GLP5        0.0000 
     48 CA         31.4917    8.7003   11.8900 C.3       2 GLC5        0.0000 
     49 CA         30.5090    7.3190   10.9230 C.3       6 GLL5        0.0000 
     50 CA         39.4845    8.5835   11.1605 C.3       2 GLC5        0.0000 
     51 CA         40.6430    9.8280   12.1650 C.3       4 GLP5        0.0000 
     52 CA         39.4415    7.7293   12.8172 C.3       2 GLC5        0.0000 
     53 CA         37.7260    7.0730   11.9080 C.3       6 GLL5        0.0000 
     54 CA         41.0180    8.7720   13.1680 C.3       4 GLP5        0.0000 
     55 CA         40.2395    7.2334   12.3803 C.3       2 GLC5        0.0000 
     56 CA         36.6070   10.0345    9.8705 C.3       2 GLC5        0.0000 
     57 CA         34.7970    8.9390    8.9920 C.3       6 GLL5        0.0000 
     58 CA         29.3494    6.0596   10.5500 C.3       2 GLC5        0.0000 
     59 CA         31.2490    6.3180   11.5960 C.3       6 GLL5        0.0000 
     60 CA         28.0400    5.0950    9.6630 C.3       4 GLP5        0.0000 
     61 CA         32.0478    7.9460   12.3857 C.3       2 GLC5        0.0000 
     62 CA         32.3319    6.8567   14.4221 C.3       2 GLC5        0.0000 
     63 CA         34.0820    7.2460   15.1810 C.3       4 GLP5        0.0000 
     64 CA         34.5749    8.9554   10.5548 C.3       2 GLC5        0.0000 
     65 CA         35.7830    8.0010    9.3180 C.3       6 GLL5        0.0000 
@<TRIPOS>BOND
@<TRIPOS>SUBSTRUCTURE
     1 ALC1        4 GROUP        1 X    ALC  0     ROOT ALC X 1
     2 GLC5        1 GROUP        1 X    GLC  0     **** GLC X 6
     3 ALP1        6 GROUP        1 Y    ALP  0     ROOT ALP Y 8
     4 GLP5        3 GROUP        1 Y    GLP  0     **** GLP Y 13
     5 ALL1        5 GROUP        1 Z    ALL  0     ROOT ALL Z 15
     6 GLL5        2 GROUP        1 Z    GLL  0     **** GLL Z 20
@<TRIPOS>SET

