#    Name: 1w0y_771_1_ligand
#    Modification time : Tue Mar 25 08:26:06 2014

@<TRIPOS>MOLECULE
1w0y_771_1_ligand
   59    61     1     0     0
SMALL
NO_CHARGES


@<TRIPOS>ATOM
      1 C1         29.8940    6.6810   15.0960 C.2       1 7711258     0.0000 
      2 N1         29.3940    7.6860   15.8290 N.pl3     1 7711258     0.0000 
      3 N2         30.2260    5.5920   15.8250 N.pl3     1 7711258     0.0000 
      4 C2         30.2090    6.9370   13.6710 C.ar      1 7711258     0.0000 
      5 C3         29.4770    7.9530   12.9940 C.ar      1 7711258     0.0000 
      6 C4         29.6280    8.1420   11.6330 C.ar      1 7711258     0.0000 
      7 C5         30.5090    7.3190   10.9230 C.ar      1 7711258     0.0000 
      8 N3         30.7790    7.5770    9.5560 N.pl3     1 7711258     0.0000 
      9 C8         31.7020    6.6900    8.7660 C.3       1 7711258     0.0000 
     10 C15        38.1770    7.7270    9.5410 C.3       1 7711258     0.0000 
     11 C16        38.4750    6.9510   10.7710 C.ar      1 7711258     0.0000 
     12 C17        37.7260    7.0730   11.9080 C.ar      1 7711258     0.0000 
     13 C18        38.0040    6.3000   13.0250 C.ar      1 7711258     0.0000 
     14 C19        39.0420    5.3970   13.0020 C.ar      1 7711258     0.0000 
     15 C21        39.5050    6.0500   10.7570 C.ar      1 7711258     0.0000 
     16 C20        39.7920    5.2820   11.8540 C.ar      1 7711258     0.0000 
     17 C9         33.1490    7.1280    8.8990 C.ar      1 7711258     0.0000 
     18 C13        35.4970    6.6340    9.4050 C.ar      1 7711258     0.0000 
     19 C14        34.2010    6.2070    9.1790 C.ar      1 7711258     0.0000 
     20 N4         33.9440    4.8440    9.3400 N.pl3     1 7711258     0.0000 
     21 S1         33.7020    3.8520    7.9700 S.o2      1 7711258     0.0000 
     22 C22        35.3440    3.5370    7.3820 C.3       1 7711258     0.0000 
     23 O5         32.9530    4.5850    6.9730 O.2       1 7711258     0.0000 
     24 O4         33.1670    2.5920    8.3100 O.2       1 7711258     0.0000 
     25 C12        35.7830    8.0010    9.3180 C.ar      1 7711258     0.0000 
     26 O3         37.0110    8.5270    9.6310 O.3       1 7711258     0.0000 
     27 C10        33.4640    8.5070    8.7960 C.ar      1 7711258     0.0000 
     28 C11        34.7970    8.9390    8.9920 C.ar      1 7711258     0.0000 
     29 O2         35.2390   10.2440    8.7780 O.3       1 7711258     0.0000 
     30 C23        34.3570   11.2760    8.3370 C.3       1 7711258     0.0000 
     31 C6         31.2490    6.3180   11.5960 C.ar      1 7711258     0.0000 
     32 C7         31.1120    6.1260   12.9430 C.ar      1 7711258     0.0000 
     33 H          29.1397    8.5126   15.3270 H         1 7711258     0.0000 
     34 H          29.3200    7.5191   16.8122 H         1 7711258     0.0000 
     35 H          30.0287    5.6411   16.8041 H         1 7711258     0.0000 
     36 H          30.6394    4.8340   15.3204 H         1 7711258     0.0000 
     37 H          28.8339    8.5429   13.5390 H         1 7711258     0.0000 
     38 H          29.1055    8.8725   11.1439 H         1 7711258     0.0000 
     39 H          30.3620    8.3621    9.0691 H         1 7711258     0.0000 
     40 H          31.4172    6.7133    7.7080 H         1 7711258     0.0000 
     41 H          31.6077    5.6562    9.1173 H         1 7711258     0.0000 
     42 H          38.1002    7.0076    8.6860 H         1 7711258     0.0000 
     43 H          39.0724    8.3555    9.3008 H         1 7711258     0.0000 
     44 H          36.9393    7.7488   11.9442 H         1 7711258     0.0000 
     45 H          37.4270    6.4059   13.8753 H         1 7711258     0.0000 
     46 H          39.2522    4.8220   13.8228 H         1 7711258     0.0000 
     47 H          40.0832    5.9458    9.8939 H         1 7711258     0.0000 
     48 H          40.5799    4.6078   11.8222 H         1 7711258     0.0000 
     49 H          36.2372    5.9694    9.6318 H         1 7711258     0.0000 
     50 H          33.8760    4.3311   10.1768 H         1 7711258     0.0000 
     51 H          32.7330    9.1820    8.5819 H         1 7711258     0.0000 
     52 H          31.8988    5.7327   11.0416 H         1 7711258     0.0000 
     53 H          31.6473    5.4087   13.4398 H         1 7711258     0.0000 
     54 H          35.8209    4.3824    7.1415 H         1 7711258     0.0000 
     55 H          35.9016    3.0712    8.0691 H         1 7711258     0.0000 
     56 H          35.3417    2.9594    6.5657 H         1 7711258     0.0000 
     57 H          34.8309   12.1505    8.2334 H         1 7711258     0.0000 
     58 H          33.9449   11.0593    7.4520 H         1 7711258     0.0000 
     59 H          33.6067   11.4238    8.9814 H         1 7711258     0.0000 
@<TRIPOS>BOND
     1    2    1 1    
     2    3    1 1    
     3    4    1 1    
     4   33    2 1    
     5   34    2 1    
     6   35    3 1    
     7   36    3 1    
     8    5    4 ar   
     9   32    4 ar   
    10    6    5 ar   
    11   37    5 1    
    12    7    6 ar   
    13   38    6 1    
    14    8    7 1    
    15   31    7 ar   
    16    9    8 1    
    17   39    8 1    
    18   17    9 1    
    19   40    9 1    
    20   41    9 1    
    21   11   10 1    
    22   26   10 1    
    23   42   10 1    
    24   43   10 1    
    25   12   11 ar   
    26   15   11 ar   
    27   13   12 ar   
    28   44   12 1    
    29   14   13 ar   
    30   45   13 1    
    31   16   14 ar   
    32   46   14 1    
    33   16   15 ar   
    34   47   15 1    
    35   48   16 1    
    36   19   17 ar   
    37   27   17 ar   
    38   19   18 ar   
    39   25   18 ar   
    40   49   18 1    
    41   20   19 1    
    42   21   20 1    
    43   50   20 1    
    44   22   21 1    
    45   23   21 2    
    46   24   21 2    
    47   54   22 1    
    48   55   22 1    
    49   56   22 1    
    50   26   25 1    
    51   28   25 ar   
    52   28   27 ar   
    53   51   27 1    
    54   29   28 1    
    55   30   29 1    
    56   57   30 1    
    57   58   30 1    
    58   59   30 1    
    59   32   31 ar   
    60   52   31 1    
    61   53   32 1    
@<TRIPOS>SUBSTRUCTURE
     1 7711258     1 GROUP   
@<TRIPOS>SET

