#    Name: 3gqi_ACP_1_INTS_M
#    Modification time : Tue Mar 25 12:49:53 2014

@<TRIPOS>MOLECULE
3gqi_ACP_1_INTS_M
   65     0    15     0     0
SMALL
NO_CHARGES


@<TRIPOS>ATOM
      1 N         -37.9080   35.5180   44.3305 N.am      2 SEC2        0.0000 
      2 N         -36.8260   34.5390   43.7550 N.am     12 SEL2        0.0000 
      3 N         -38.9900   36.4970   44.9060 N.am      7 SEP2        0.0000 
      4 NZ        -32.1785   33.9805   40.7715 N.4       3 LYC4        0.0000 
      5 NZ        -32.8260   33.1360   42.2010 N.4      13 LYL4        0.0000 
      6 NZ        -31.5310   34.8250   39.3420 N.4       8 LYP4        0.0000 
      7 N         -31.8135   32.2220   42.1695 N.am      2 SEC2        0.0000 
      8 N         -32.8260   33.1360   42.2010 N.am     12 SEL2        0.0000 
      9 N         -30.8010   31.3080   42.1380 N.am      7 SEP2        0.0000 
     10 Zn        -33.0820   30.2500   42.6955 Zn        4 ZIC7        0.0000 
     11 Zn        -33.8790   30.8300   42.3600 Zn       14 ZIL7        0.0000 
     12 Zn        -32.2850   29.6700   43.0310 Zn        9 ZIP7        0.0000 
     13 CA        -37.2310   32.5200   42.8125 C.3       5 GLC5        0.0000 
     14 CA        -35.4630   32.9450   41.9850 C.3      15 GLL5        0.0000 
     15 CA        -38.9990   32.0950   43.6400 C.3      10 GLP5        0.0000 
     16 Zn        -32.2685   29.8585   41.7550 Zn        4 ZIC7        0.0000 
     17 Zn        -32.2520   30.0470   40.4790 Zn       14 ZIL7        0.0000 
     18 NZ        -31.7695   33.1815   38.8900 N.4       3 LYC4        0.0000 
     19 NZ        -32.0080   31.5380   38.4380 N.4      13 LYL4        0.0000 
     20 N         -31.7695   33.1815   38.8900 N.am      2 SEC2        0.0000 
     21 N         -32.0080   31.5380   38.4380 N.am     12 SEL2        0.0000 
     22 N         -31.5310   34.8250   39.3420 N.am      7 SEP2        0.0000 
     23 CA        -37.2820   28.2785   37.9555 C.3       5 GLC5        0.0000 
     24 CA        -35.4530   28.0610   38.4950 C.3      15 GLL5        0.0000 
     25 CA        -39.1110   28.4960   37.4160 C.3      10 GLP5        0.0000 
     26 N         -34.5945   24.6705   39.4285 N.am      2 SEC2        0.0000 
     27 N         -34.1930   26.1930   39.3470 N.am     12 SEL2        0.0000 
     28 N         -34.9960   23.1480   39.5100 N.am      7 SEP2        0.0000 
     29 O         -32.9420   25.8595   39.9975 O.2       1 ALC1        0.0000 
     30 O         -34.1930   26.1930   39.3470 O.2      11 ALL1        0.0000 
     31 O         -31.6910   25.5260   40.6480 O.2       6 ALP1        0.0000 
     32 N         -35.5730   24.3345   38.5795 N.am      2 SEC2        0.0000 
     33 N         -36.1500   25.5210   37.6490 N.am     12 SEL2        0.0000 
     34 CA        -36.9155   27.7870   34.5985 C.3       5 GLC5        0.0000 
     35 CA        -35.5960   27.4280   36.2570 C.3      15 GLL5        0.0000 
     36 CA        -38.2350   28.1460   32.9400 C.3      10 GLP5        0.0000 
     37 CA        -37.3535   27.9620   36.8365 C.3       5 GLC5        0.0000 
     38 CA        -33.0930   29.5070   31.1795 C.3       5 GLC5        0.0000 
     39 CA        -32.7700   28.0030   32.3770 C.3      15 GLL5        0.0000 
     40 CA        -33.4160   31.0110   29.9820 C.3      10 GLP5        0.0000 
     41 CA        -31.6275   26.3200   31.7680 C.3       5 GLC5        0.0000 
     42 CA        -30.4850   24.6370   31.1590 C.3      10 GLP5        0.0000 
     43 O         -30.8255   29.0480   30.6925 O.2       1 ALC1        0.0000 
     44 O         -31.7900   28.7420   31.8320 O.2      11 ALL1        0.0000 
     45 O         -29.8610   29.3540   29.5530 O.2       6 ALP1        0.0000 
     46 N         -32.3280   26.4615   30.4945 N.am      2 SEC2        0.0000 
     47 N         -33.2830   26.9680   31.6690 N.am     12 SEL2        0.0000 
     48 N         -31.3730   25.9550   29.3200 N.am      7 SEP2        0.0000 
     49 CA        -35.6910   27.5900   31.5230 C.3       5 GLC5        0.0000 
     50 CA        -34.2530   26.2420   32.1990 C.3      15 GLL5        0.0000 
     51 CA        -37.1290   28.9380   30.8470 C.3      10 GLP5        0.0000 
     52 CA        -32.3690   25.4395   31.6790 C.3       5 GLC5        0.0000 
     53 CA        -36.2465   27.8240   33.5440 C.3       5 GLC5        0.0000 
     54 CA        -34.2580   27.5020   34.1480 C.3      15 GLL5        0.0000 
     55 CA        -32.6710   26.5380   34.9805 C.3       5 GLC5        0.0000 
     56 CA        -31.0840   25.5740   35.8130 C.3      10 GLP5        0.0000 
     57 CA        -33.7480   24.8083   38.1268 C.3       5 GLC5        0.0000 
     58 CA        -35.0650   26.2620   37.1000 C.3      15 GLL5        0.0000 
     59 CA        -32.7860   22.9620   38.6020 C.3      10 GLP5        0.0000 
     60 CA        -32.8970   26.1142   36.7323 C.3       5 GLC5        0.0000 
     61 CA        -34.5375   29.7565   33.6525 C.3       5 GLC5        0.0000 
     62 CA        -35.3260   31.6170   33.4210 C.3      10 GLP5        0.0000 
     63 CA        -31.4335   27.6382   33.6508 C.3       5 GLC5        0.0000 
     64 CA        -33.2400   28.2900   33.6200 C.3      15 GLL5        0.0000 
     65 CA        -29.8620   27.1300   34.3030 C.3      10 GLP5        0.0000 
@<TRIPOS>BOND
@<TRIPOS>SUBSTRUCTURE
     1 ALC1       29 GROUP        1 X    ALC  0     ROOT ALC X 1
     2 SEC2        1 GROUP        1 X    SEC  0     **** SEC X 2
     3 LYC4        4 GROUP        1 X    LYC  0     **** LYC X 4
     4 ZIC7       10 GROUP        1 X    ZIC  0     **** ZIC X 5
     5 GLC5       13 GROUP        1 X    GLC  0     **** GLC X 6
     6 ALP1       31 GROUP        1 Y    ALP  0     ROOT ALP Y 8
     7 SEP2        3 GROUP        1 Y    SEP  0     **** SEP Y 9
     8 LYP4        6 GROUP        1 Y    LYP  0     **** LYP Y 11
     9 ZIP7       12 GROUP        1 Y    ZIP  0     **** ZIP Y 12
    10 GLP5       15 GROUP        1 Y    GLP  0     **** GLP Y 13
    11 ALL1       30 GROUP        1 Z    ALL  0     ROOT ALL Z 15
    12 SEL2        2 GROUP        1 Z    SEL  0     **** SEL Z 16
    13 LYL4        5 GROUP        1 Z    LYL  0     **** LYL Z 18
    14 ZIL7       11 GROUP        1 Z    ZIL  0     **** ZIL Z 19
    15 GLL5       14 GROUP        1 Z    GLL  0     **** GLL Z 20
@<TRIPOS>SET

