#    Name: 3gqi_ACP_1_ligand
#    Modification time : Tue Mar 25 12:49:53 2014

@<TRIPOS>MOLECULE
3gqi_ACP_1_ligand
   45    47     1     0     0
SMALL
NO_CHARGES


@<TRIPOS>ATOM
      1 PG        -35.5250   33.8650   43.5420 P.3       1 ACP775      0.0000 
      2 O1G       -35.2090   32.7950   44.7070 O.co2     1 ACP775      0.0000 
      3 O2G       -34.2950   34.9060   43.5360 O.co2     1 ACP775      0.0000 
      4 O3G       -36.8260   34.5390   43.7550 O.co2     1 ACP775      0.0000 
      5 PB        -33.8360   32.1790   41.7370 P.3       1 ACP775      0.0000 
      6 O1B       -32.8260   33.1360   42.2010 O.co2     1 ACP775      0.0000 
      7 O2B       -33.8790   30.8300   42.3600 O.co2     1 ACP775      0.0000 
      8 C3B       -35.4630   32.9450   41.9850 C.3       1 ACP775      0.0000 
      9 PA        -32.8850   30.8890   39.4150 P.3       1 ACP775      0.0000 
     10 O1A       -32.2520   30.0470   40.4790 O.co2     1 ACP775      0.0000 
     11 O2A       -32.0080   31.5380   38.4380 O.co2     1 ACP775      0.0000 
     12 O3A       -33.7510   32.0420   40.1290 O.3       1 ACP775      0.0000 
     13 O5'       -33.9790   30.0010   38.6380 O.3       1 ACP775      0.0000 
     14 C5'       -34.9700   29.2430   39.3400 C.3       1 ACP775      0.0000 
     15 C4'       -35.4530   28.0610   38.4950 C.3       1 ACP775      0.0000 
     16 O4'       -35.9460   28.4590   37.1990 O.3       1 ACP775      0.0000 
     17 C3'       -34.3550   27.0470   38.2030 C.3       1 ACP775      0.0000 
     18 O3'       -34.1930   26.1930   39.3470 O.3       1 ACP775      0.0000 
     19 C2'       -35.0650   26.2620   37.1000 C.3       1 ACP775      0.0000 
     20 O2'       -36.1500   25.5210   37.6490 O.3       1 ACP775      0.0000 
     21 C1'       -35.5960   27.4280   36.2570 C.3       1 ACP775      0.0000 
     22 N9        -34.5490   27.9480   35.3540 N.pl3     1 ACP775      0.0000 
     23 C8        -33.7470   28.9940   35.6100 C.2       1 ACP775      0.0000 
     24 N7        -32.9640   29.2070   34.5580 N.2       1 ACP775      0.0000 
     25 C5        -33.2400   28.2900   33.6200 C.ar      1 ACP775      0.0000 
     26 C6        -32.7700   28.0030   32.3770 C.ar      1 ACP775      0.0000 
     27 N6        -31.7900   28.7420   31.8320 N.pl3     1 ACP775      0.0000 
     28 N1        -33.2830   26.9680   31.6690 N.ar      1 ACP775      0.0000 
     29 C2        -34.2530   26.2420   32.1990 C.ar      1 ACP775      0.0000 
     30 N3        -34.7390   26.4840   33.3850 N.ar      1 ACP775      0.0000 
     31 C4        -34.2580   27.5020   34.1480 C.ar      1 ACP775      0.0000 
     32 H         -35.5863   33.6319   41.2250 H         1 ACP775      0.0000 
     33 H         -36.1447   32.1744   42.0639 H         1 ACP775      0.0000 
     34 H         -35.8490   29.8564   39.5877 H         1 ACP775      0.0000 
     35 H         -34.5768   28.8384   40.2844 H         1 ACP775      0.0000 
     36 H         -36.2382   27.5357   39.0371 H         1 ACP775      0.0000 
     37 H         -33.5337   27.5024   37.8412 H         1 ACP775      0.0000 
     38 H         -34.3734   25.7339   36.5544 H         1 ACP775      0.0000 
     39 H         -36.4440   27.0988   35.7179 H         1 ACP775      0.0000 
     40 H         -33.7457   29.5092   36.4376 H         1 ACP775      0.0000 
     41 H         -31.4689   28.4512   30.9308 H         1 ACP775      0.0000 
     42 H         -31.4689   29.5171   32.3762 H         1 ACP775      0.0000 
     43 H         -34.6484   25.4281   31.6279 H         1 ACP775      0.0000 
     44 H         -33.2120   26.2036   39.5409 H         1 ACP775      0.0000 
     45 H         -36.7779   25.3767   36.8842 H         1 ACP775      0.0000 
@<TRIPOS>BOND
     1    2    1 ar   
     2    3    1 ar   
     3    4    1 ar   
     4    8    1 1    
     5    6    5 ar   
     6    7    5 ar   
     7    8    5 1    
     8   12    5 1    
     9   32    8 1    
    10   33    8 1    
    11   10    9 ar   
    12   11    9 ar   
    13   12    9 1    
    14   13    9 1    
    15   14   13 1    
    16   15   14 1    
    17   34   14 1    
    18   35   14 1    
    19   16   15 1    
    20   17   15 1    
    21   36   15 1    
    22   21   16 1    
    23   18   17 1    
    24   19   17 1    
    25   37   17 1    
    26   44   18 1    
    27   20   19 1    
    28   21   19 1    
    29   38   19 1    
    30   45   20 1    
    31   22   21 1    
    32   39   21 1    
    33   23   22 1    
    34   31   22 1    
    35   24   23 2    
    36   40   23 1    
    37   25   24 1    
    38   26   25 ar   
    39   31   25 ar   
    40   27   26 1    
    41   28   26 ar   
    42   41   27 1    
    43   42   27 1    
    44   29   28 ar   
    45   30   29 ar   
    46   43   29 1    
    47   31   30 ar   
@<TRIPOS>SUBSTRUCTURE
     1 ACP775      1 GROUP   
@<TRIPOS>SET

