#    Name: 3u9f_CLM_13_INTS_M
#    Modification time : Mon Mar 24 22:01:16 2014

@<TRIPOS>MOLECULE
3u9f_CLM_13_INTS_M
   52     0     9     0     0
SMALL
NO_CHARGES


@<TRIPOS>ATOM
      1 CA          5.7825  103.2660   86.7690 C.3       3 GLC5        0.0000 
      2 CA          5.5910  103.4530   84.5360 C.3       9 GLL5        0.0000 
      3 CA          5.9740  103.0790   89.0020 C.3       6 GLP5        0.0000 
      4 CA          6.4445  106.2160   82.8610 C.3       3 GLC5        0.0000 
      5 CA          6.9820  104.2850   83.7620 C.3       9 GLL5        0.0000 
      6 CA          5.9070  108.1470   81.9600 C.3       6 GLP5        0.0000 
      7 CA          8.0165  104.6250   85.5145 C.3       3 GLC5        0.0000 
      8 CA          9.0510  104.9650   87.2670 C.3       6 GLP5        0.0000 
      9 CA          6.6100  104.4775   81.9645 C.3       3 GLC5        0.0000 
     10 CA          6.2380  104.6700   80.1670 C.3       6 GLP5        0.0000 
     11 CA          3.1640  104.5245   83.2050 C.3       3 GLC5        0.0000 
     12 CA          4.3610  102.9230   83.3420 C.3       9 GLL5        0.0000 
     13 CA          1.9670  106.1260   83.0680 C.3       6 GLP5        0.0000 
     14 CA          4.6305  103.8925   81.5880 C.3       3 GLC5        0.0000 
     15 CA          4.9000  104.8620   79.8340 C.3       6 GLP5        0.0000 
     16 N           3.8910  101.9230   85.9110 N.am      2 SEC2        0.0000 
     17 N           5.2760  101.7840   86.1690 N.am      8 SEL2        0.0000 
     18 N           2.5060  102.0620   85.6530 N.am      5 SEP2        0.0000 
     19 CA          8.9135  102.8865   87.0275 C.3       3 GLC5        0.0000 
     20 CA          8.7760  100.8080   86.7880 C.3       9 GLL5        0.0000 
     21 CA          7.3750  101.9435   87.8950 C.3       3 GLC5        0.0000 
     22 CA         10.4150  101.3270   85.7990 C.3       3 GLC5        0.0000 
     23 CA         12.0540  101.8460   84.8100 C.3       6 GLP5        0.0000 
     24 O           7.6830   98.8430   87.8150 O.2       1 ALC1        0.0000 
     25 O           8.5570   99.9250   87.8970 O.2       7 ALL1        0.0000 
     26 O           6.8090   97.7610   87.7330 O.2       4 ALP1        0.0000 
     27 CA         10.1375  100.7245   84.7055 C.3       3 GLC5        0.0000 
     28 CA          8.2210   99.6030   84.6010 C.3       9 GLL5        0.0000 
     29 O          10.6330  100.7145   85.0600 O.2       1 ALC1        0.0000 
     30 O           9.4330  100.0800   84.0000 O.2       7 ALL1        0.0000 
     31 O          11.8330  101.3490   86.1200 O.2       4 ALP1        0.0000 
     32 CA          6.2510   97.5290   85.4645 C.3       3 GLC5        0.0000 
     33 CA          6.1820   98.4510   83.7570 C.3       9 GLL5        0.0000 
     34 CA          6.3200   96.6070   87.1720 C.3       6 GLP5        0.0000 
     35 CA          5.5542  105.5050   84.8770 C.3       3 GLC5        0.0000 
     36 CA          4.8220  107.1410   85.6050 C.3       6 GLP5        0.0000 
     37 CA          3.3890  103.0605   85.1945 C.3       3 GLC5        0.0000 
     38 CA          1.8020  102.9330   86.4500 C.3       6 GLP5        0.0000 
     39 CA          7.1478   98.3425   86.1620 C.3       3 GLC5        0.0000 
     40 CA          7.7300  100.5530   85.7030 C.3       9 GLL5        0.0000 
     41 CA          7.8912   98.1898   81.7870 C.3       3 GLC5        0.0000 
     42 CA          7.1630   99.4300   83.5720 C.3       9 GLL5        0.0000 
     43 CA          8.6330   96.5460   80.5730 C.3       6 GLP5        0.0000 
     44 CA          6.9162   96.7575   82.9512 C.3       3 GLC5        0.0000 
     45 CA          8.1530   95.1530   82.6210 C.3       6 GLP5        0.0000 
     46 CA          5.1732   96.5895   83.6658 C.3       3 GLC5        0.0000 
     47 CA          4.6670   94.8170   84.0500 C.3       6 GLP5        0.0000 
     48 CA          7.1377   98.0575   81.0730 C.3       3 GLC5        0.0000 
     49 CA          5.1540   99.0780   81.6660 C.3       9 GLL5        0.0000 
     50 CA          8.4703  100.2062   80.9950 C.3       3 GLC5        0.0000 
     51 CA          6.1310  100.0600   81.4800 C.3       9 GLL5        0.0000 
     52 CA         10.3070  100.2640   80.0350 C.3       6 GLP5        0.0000 
@<TRIPOS>BOND
@<TRIPOS>SUBSTRUCTURE
     1 ALC1       24 GROUP        1 X    ALC  0     ROOT ALC X 1
     2 SEC2       16 GROUP        1 X    SEC  0     **** SEC X 2
     3 GLC5        1 GROUP        1 X    GLC  0     **** GLC X 6
     4 ALP1       26 GROUP        1 Y    ALP  0     ROOT ALP Y 8
     5 SEP2       18 GROUP        1 Y    SEP  0     **** SEP Y 9
     6 GLP5        3 GROUP        1 Y    GLP  0     **** GLP Y 13
     7 ALL1       25 GROUP        1 Z    ALL  0     ROOT ALL Z 15
     8 SEL2       17 GROUP        1 Z    SEL  0     **** SEL Z 16
     9 GLL5        2 GROUP        1 Z    GLL  0     **** GLL Z 20
@<TRIPOS>SET

