#    Name: 3u9f_CLM_13_ligand
#    Modification time : Mon Mar 24 22:01:16 2014

@<TRIPOS>MOLECULE
3u9f_CLM_13_ligand
   32    32     1     0     0
SMALL
NO_CHARGES


@<TRIPOS>ATOM
      1 C1          5.5910  103.4530   84.5360 C.3       1 CLM221      0.0000 
      2 CL1         6.9820  104.2850   83.7620 Cl        1 CLM221      0.0000 
      3 CL2         4.3610  102.9230   83.3420 Cl        1 CLM221      0.0000 
      4 C2          6.0420  102.2710   85.3500 C.2       1 CLM221      0.0000 
      5 O2          5.2760  101.7840   86.1690 O.2       1 CLM221      0.0000 
      6 N2          7.2750  101.8130   85.1400 N.am      1 CLM221      0.0000 
      7 C3          7.7300  100.5530   85.7030 C.3       1 CLM221      0.0000 
      8 C4          8.7760  100.8080   86.7880 C.3       1 CLM221      0.0000 
      9 O4          8.5570   99.9250   87.8970 O.3       1 CLM221      0.0000 
     10 C5          8.2210   99.6030   84.6010 C.3       1 CLM221      0.0000 
     11 O5          9.4330  100.0800   84.0000 O.3       1 CLM221      0.0000 
     12 C6          7.1630   99.4300   83.5720 C.ar      1 CLM221      0.0000 
     13 C7          6.1820   98.4510   83.7570 C.ar      1 CLM221      0.0000 
     14 C8          5.1770   98.2730   82.8060 C.ar      1 CLM221      0.0000 
     15 C9          5.1540   99.0780   81.6660 C.ar      1 CLM221      0.0000 
     16 N9          4.1430   98.9080   80.7080 N.pl3     1 CLM221      0.0000 
     17 O9A         3.7760   99.8710   80.0390 O.2       1 CLM221      0.0000 
     18 O9B         3.6280   97.8060   80.5420 O.2       1 CLM221      0.0000 
     19 C10         6.1310  100.0600   81.4800 C.ar      1 CLM221      0.0000 
     20 C11         7.1360  100.2370   82.4300 C.ar      1 CLM221      0.0000 
     21 H           5.1046  104.1991   85.1135 H         1 CLM221      0.0000 
     22 H           7.9702  102.3332   84.5646 H         1 CLM221      0.0000 
     23 H           6.8697  100.0567   86.1959 H         1 CLM221      0.0000 
     24 H           8.6988  101.8596   87.0879 H         1 CLM221      0.0000 
     25 H           9.7659  100.6577   86.3417 H         1 CLM221      0.0000 
     26 H           8.3948   98.6295   85.0765 H         1 CLM221      0.0000 
     27 H           6.2027   97.8601   84.5985 H         1 CLM221      0.0000 
     28 H           4.4593   97.5551   82.9433 H         1 CLM221      0.0000 
     29 H           6.1072  100.6522   80.6405 H         1 CLM221      0.0000 
     30 H           7.8538  100.9558   82.2937 H         1 CLM221      0.0000 
     31 H           8.1716   99.0947   87.4944 H         1 CLM221      0.0000 
     32 H           9.9844  100.4178   84.7627 H         1 CLM221      0.0000 
@<TRIPOS>BOND
     1    2    1 1    
     2    3    1 1    
     3    4    1 1    
     4   21    1 1    
     5    5    4 2    
     6    6    4 am   
     7    7    6 1    
     8   22    6 1    
     9    8    7 1    
    10   10    7 1    
    11   23    7 1    
    12    9    8 1    
    13   24    8 1    
    14   25    8 1    
    15   31    9 1    
    16   11   10 1    
    17   12   10 1    
    18   26   10 1    
    19   32   11 1    
    20   13   12 ar   
    21   20   12 ar   
    22   14   13 ar   
    23   27   13 1    
    24   15   14 ar   
    25   28   14 1    
    26   16   15 1    
    27   19   15 ar   
    28   17   16 2    
    29   18   16 2    
    30   20   19 ar   
    31   29   19 1    
    32   30   20 1    
@<TRIPOS>SUBSTRUCTURE
     1 CLM221      1 GROUP   
@<TRIPOS>SET

