#    Name: 1gaq_FAD_1_INTS_M
#    Modification time : Tue Mar 25 02:54:20 2014

@<TRIPOS>MOLECULE
1gaq_FAD_1_INTS_M
   92     0    12     0     0
SMALL
NO_CHARGES


@<TRIPOS>ATOM
      1 N          31.8740   -3.9765   45.9510 N.am      2 SEC2        0.0000 
      2 N          30.7990   -3.5160   47.0370 N.am     10 SEL2        0.0000 
      3 N          32.9490   -4.4370   44.8650 N.am      6 SEP2        0.0000 
      4 NZ         29.2570   -1.0010   45.1830 N.4       3 LYC4        0.0000 
      5 NZ         29.8030   -1.3030   46.7230 N.4      11 LYL4        0.0000 
      6 NZ         28.0470   -1.7970   43.2850 N.4       7 LYP4        0.0000 
      7 N          29.2570   -1.0010   45.1830 N.am      2 SEC2        0.0000 
      8 N          29.8030   -1.3030   46.7230 N.am     10 SEL2        0.0000 
      9 N          28.7110   -0.6990   43.6430 N.am      6 SEP2        0.0000 
     10 O          27.3880    0.1865   52.3015 O.2       1 ALC1        0.0000 
     11 O          28.3830    0.6070   51.2440 O.2       9 ALL1        0.0000 
     12 O          26.3930   -0.2340   53.3590 O.2       5 ALP1        0.0000 
     13 O          27.5745   -0.7080   53.3845 O.2       1 ALC1        0.0000 
     14 O          28.7560   -1.1820   53.4100 O.2       9 ALL1        0.0000 
     15 CA         32.3955   -2.8155   53.0430 C.3       4 GLC5        0.0000 
     16 CA         31.1340   -1.2260   52.9060 C.3      12 GLL5        0.0000 
     17 CA         33.6570   -4.4050   53.1800 C.3       8 GLP5        0.0000 
     18 CA         35.3040    0.0435   52.3980 C.3       4 GLC5        0.0000 
     19 CA         34.2120    0.1850   54.3470 C.3      12 GLL5        0.0000 
     20 CA         36.3960   -0.0980   50.4490 C.3       8 GLP5        0.0000 
     21 CA         36.3910   -1.5775   55.0245 C.3       4 GLC5        0.0000 
     22 CA         35.2000    0.1810   55.4400 C.3      12 GLL5        0.0000 
     23 CA         37.5820   -3.3360   54.6090 C.3       8 GLP5        0.0000 
     24 CA         35.7335   -2.4790   55.5140 C.3       4 GLC5        0.0000 
     25 CA         33.8850   -1.6220   56.4190 C.3      12 GLL5        0.0000 
     26 N          38.7540    4.6655   43.6130 N.am      2 SEC2        0.0000 
     27 N          37.4700    5.2530   43.7940 N.am     10 SEL2        0.0000 
     28 N          40.0380    4.0780   43.4320 N.am      6 SEP2        0.0000 
     29 O          38.3405    7.2135   41.9705 O.2       1 ALC1        0.0000 
     30 O          37.1180    7.1960   42.7410 O.2       9 ALL1        0.0000 
     31 O          39.5630    7.2310   41.2000 O.2       5 ALP1        0.0000 
     32 N          35.4390    9.6505   40.6515 N.am      2 SEC2        0.0000 
     33 N          36.7150    9.1460   41.6970 N.am     10 SEL2        0.0000 
     34 N          34.1630   10.1550   39.6060 N.am      6 SEP2        0.0000 
     35 N          34.0965    9.6940   41.1095 N.am      2 SEC2        0.0000 
     36 N          34.0300    9.2330   42.6130 N.am     10 SEL2        0.0000 
     37 CA         28.3220   10.3515   41.5590 C.3       4 GLC5        0.0000 
     38 CA         29.6160   11.3800   42.8110 C.3      12 GLL5        0.0000 
     39 CA         27.0280    9.3230   40.3070 C.3       8 GLP5        0.0000 
     40 CA         30.0040   13.1730   43.3600 C.3       4 GLC5        0.0000 
     41 CA         30.3920   14.9660   43.9090 C.3       8 GLP5        0.0000 
     42 CA         28.2830   11.6310   44.5730 C.3       4 GLC5        0.0000 
     43 CA         26.9500   11.8820   46.3350 C.3       8 GLP5        0.0000 
     44 CA         27.7890   11.8955   42.2620 C.3       4 GLC5        0.0000 
     45 CA         25.9620   12.4110   41.7130 C.3       8 GLP5        0.0000 
     46 CA         27.7765   10.4900   45.4535 C.3       4 GLC5        0.0000 
     47 CA         28.6030    9.0980   44.5720 C.3      12 GLL5        0.0000 
     48 CA         26.7005    8.3975   44.3120 C.3       4 GLC5        0.0000 
     49 CA         24.7980    7.6970   44.0520 C.3       8 GLP5        0.0000 
     50 CA         33.1895    7.3755   46.0570 C.3       4 GLC5        0.0000 
     51 CA         32.8210    5.8220   45.0770 C.3      12 GLL5        0.0000 
     52 CA         33.5580    8.9290   47.0370 C.3       8 GLP5        0.0000 
     53 O          31.5150    5.7155   42.4495 O.2       1 ALC1        0.0000 
     54 O          31.2340    4.9180   43.5030 O.2       9 ALL1        0.0000 
     55 O          31.7960    6.5130   41.3960 O.2       5 ALP1        0.0000 
     56 N          33.9905    2.1855   43.0260 N.am      2 SEC2        0.0000 
     57 N          34.4450    2.5040   44.4240 N.am     10 SEL2        0.0000 
     58 N          33.5360    1.8670   41.6280 N.am      6 SEP2        0.0000 
     59 CA         33.8010    0.1930   47.7015 C.3       4 GLC5        0.0000 
     60 CA         33.1720    1.3990   46.1920 C.3      12 GLL5        0.0000 
     61 CA         34.4300   -1.0130   49.2110 C.3       8 GLP5        0.0000 
     62 NZ         29.7835   -1.5745   43.6185 N.4       3 LYC4        0.0000 
     63 NZ         31.5200   -1.3520   43.9520 N.4      11 LYL4        0.0000 
     64 N          32.1175   -2.1985   43.0695 N.am      2 SEC2        0.0000 
     65 N          31.5200   -1.3520   43.9520 N.am     10 SEL2        0.0000 
     66 N          32.7150   -3.0450   42.1870 N.am      6 SEP2        0.0000 
     67 N          34.3870   -1.1515   43.4215 N.am      2 SEC2        0.0000 
     68 N          33.8480   -1.1850   44.7460 N.am     10 SEL2        0.0000 
     69 N          34.9260   -1.1180   42.0970 N.am      6 SEP2        0.0000 
     70 N          35.1950   -1.0790   44.6685 N.am      2 SEC2        0.0000 
     71 N          36.5420   -0.9730   44.5910 N.am      6 SEP2        0.0000 
     72 CA         32.4765   -0.8887   49.5905 C.3       4 GLC5        0.0000 
     73 CA         30.8300   -0.5580   49.2720 C.3      12 GLL5        0.0000 
     74 CA         32.7993    8.7828   41.2225 C.3       4 GLC5        0.0000 
     75 CA         32.7380    9.1550   43.1030 C.3      12 GLL5        0.0000 
     76 CA         33.3090    7.8780   39.5130 C.3       8 GLP5        0.0000 
     77 CA         30.0648    9.0077   41.7643 C.3       4 GLC5        0.0000 
     78 CA         31.8410   10.2200   42.7610 C.3      12 GLL5        0.0000 
     79 CA         28.9490    7.7890   40.5440 C.3       8 GLP5        0.0000 
     80 CA         30.3199    9.5490   45.8491 C.3       4 GLC5        0.0000 
     81 CA         31.2040    9.7080   47.5950 C.3       8 GLP5        0.0000 
     82 CA         29.5252    8.1879   42.4536 C.3       4 GLC5        0.0000 
     83 CA         30.0170    9.1310   44.0610 C.3      12 GLL5        0.0000 
     84 CA         31.3875    8.8830   45.8847 C.3       4 GLC5        0.0000 
     85 CA         30.8930    8.0590   44.4100 C.3      12 GLL5        0.0000 
     86 CA         33.6060    4.6100   43.0303 C.3       4 GLC5        0.0000 
     87 CA         34.5880    4.0110   41.4290 C.3       8 GLP5        0.0000 
     88 CA         33.7223    3.5198   43.3558 C.3       4 GLC5        0.0000 
     89 CA         32.1900    3.3510   45.0500 C.3      12 GLL5        0.0000 
     90 CA         34.9123    1.0507   44.7298 C.3       4 GLC5        0.0000 
     91 CA         33.5230    2.7060   45.5150 C.3      12 GLL5        0.0000 
     92 CA         36.4770    0.0490   43.6060 C.3       8 GLP5        0.0000 
@<TRIPOS>BOND
@<TRIPOS>SUBSTRUCTURE
     1 ALC1       10 GROUP        1 X    ALC  0     ROOT ALC X 1
     2 SEC2        1 GROUP        1 X    SEC  0     **** SEC X 2
     3 LYC4        4 GROUP        1 X    LYC  0     **** LYC X 4
     4 GLC5       15 GROUP        1 X    GLC  0     **** GLC X 6
     5 ALP1       12 GROUP        1 Y    ALP  0     ROOT ALP Y 8
     6 SEP2        3 GROUP        1 Y    SEP  0     **** SEP Y 9
     7 LYP4        6 GROUP        1 Y    LYP  0     **** LYP Y 11
     8 GLP5       17 GROUP        1 Y    GLP  0     **** GLP Y 13
     9 ALL1       11 GROUP        1 Z    ALL  0     ROOT ALL Z 15
    10 SEL2        2 GROUP        1 Z    SEL  0     **** SEL Z 16
    11 LYL4        5 GROUP        1 Z    LYL  0     **** LYL Z 18
    12 GLL5       16 GROUP        1 Z    GLL  0     **** GLL Z 20
@<TRIPOS>SET

