#    Name: 1gaq_FAD_1_ligand
#    Modification time : Tue Mar 25 02:54:20 2014

@<TRIPOS>MOLECULE
1gaq_FAD_1_ligand
   84    89     1     0     0
SMALL
NO_CHARGES


@<TRIPOS>ATOM
      1 PA         30.9080   -2.0370   47.0570 P.3       1 FAD320      0.0000 
      2 O1A        30.7990   -3.5160   47.0370 O.co2     1 FAD320      0.0000 
      3 O2A        29.8030   -1.3030   46.7230 O.co2     1 FAD320      0.0000 
      4 O5B        31.1110   -1.8050   48.5390 O.3       1 FAD320      0.0000 
      5 C5B        30.8300   -0.5580   49.2720 C.3       1 FAD320      0.0000 
      6 C4B        30.2160   -0.9710   50.6680 C.3       1 FAD320      0.0000 
      7 O4B        31.3270   -1.5730   51.4830 O.3       1 FAD320      0.0000 
      8 C3B        29.6810    0.1900   51.5690 C.3       1 FAD320      0.0000 
      9 O3B        28.3830    0.6070   51.2440 O.3       1 FAD320      0.0000 
     10 C2B        29.8640   -0.4000   53.0010 C.3       1 FAD320      0.0000 
     11 O2B        28.7560   -1.1820   53.4100 O.3       1 FAD320      0.0000 
     12 C1B        31.1340   -1.2260   52.9060 C.3       1 FAD320      0.0000 
     13 N9A        32.3790   -0.5160   53.2920 N.pl3     1 FAD320      0.0000 
     14 C8A        33.0220    0.5150   52.6080 C.2       1 FAD320      0.0000 
     15 N7A        34.1190    0.9520   53.2170 N.2       1 FAD320      0.0000 
     16 C5A        34.2120    0.1850   54.3470 C.ar      1 FAD320      0.0000 
     17 C6A        35.2000    0.1810   55.4400 C.ar      1 FAD320      0.0000 
     18 N6A        36.2250    0.9930   55.4800 N.pl3     1 FAD320      0.0000 
     19 N1A        34.9680   -0.7560   56.4410 N.ar      1 FAD320      0.0000 
     20 C2A        33.8850   -1.6220   56.4190 C.ar      1 FAD320      0.0000 
     21 N3A        32.9260   -1.6860   55.4560 N.ar      1 FAD320      0.0000 
     22 C4A        33.1320   -0.7610   54.4390 C.ar      1 FAD320      0.0000 
     23 N1         35.4160    6.0710   44.0320 N.2       1 FAD320      0.0000 
     24 C2         36.6650    6.1170   43.5630 C.2       1 FAD320      0.0000 
     25 O2         37.4700    5.2530   43.7940 O.2       1 FAD320      0.0000 
     26 N3         37.1180    7.1960   42.7410 N.am      1 FAD320      0.0000 
     27 C4         36.2830    8.2550   42.3990 C.2       1 FAD320      0.0000 
     28 O4         36.7150    9.1460   41.6970 O.2       1 FAD320      0.0000 
     29 C4X        34.9100    8.2210   42.9170 C.2       1 FAD320      0.0000 
     30 N5         34.0300    9.2330   42.6130 N.2       1 FAD320      0.0000 
     31 C5X        32.7380    9.1550   43.1030 C.ar      1 FAD320      0.0000 
     32 C6         31.8410   10.2200   42.7610 C.ar      1 FAD320      0.0000 
     33 C7         30.5200   10.2330   43.2080 C.ar      1 FAD320      0.0000 
     34 C7M        29.6160   11.3800   42.8110 C.3       1 FAD320      0.0000 
     35 C8         30.0170    9.1310   44.0610 C.ar      1 FAD320      0.0000 
     36 C8M        28.6030    9.0980   44.5720 C.3       1 FAD320      0.0000 
     37 C9         30.8930    8.0590   44.4100 C.ar      1 FAD320      0.0000 
     38 C9A        32.2490    8.0570   43.9390 C.ar      1 FAD320      0.0000 
     39 N10        33.2380    6.9910   44.2370 N.pl3     1 FAD320      0.0000 
     40 C10        34.5180    7.0600   43.7520 C.2       1 FAD320      0.0000 
     41 C1'        32.8210    5.8220   45.0770 C.3       1 FAD320      0.0000 
     42 C2'        32.4270    4.5960   44.1860 C.3       1 FAD320      0.0000 
     43 O2'        31.2340    4.9180   43.5030 O.3       1 FAD320      0.0000 
     44 C3'        32.1900    3.3510   45.0500 C.3       1 FAD320      0.0000 
     45 O3'        31.4070    3.6960   46.2020 O.3       1 FAD320      0.0000 
     46 C4'        33.5230    2.7060   45.5150 C.3       1 FAD320      0.0000 
     47 O4'        34.4450    2.5040   44.4240 O.3       1 FAD320      0.0000 
     48 C5'        33.1720    1.3990   46.1920 C.3       1 FAD320      0.0000 
     49 O5'        32.2490    0.5700   45.2510 O.3       1 FAD320      0.0000 
     50 P          32.5170   -0.8920   45.0080 P.3       1 FAD320      0.0000 
     51 O1P        31.5200   -1.3520   43.9520 O.co2     1 FAD320      0.0000 
     52 O2P        33.8480   -1.1850   44.7460 O.co2     1 FAD320      0.0000 
     53 O3P        32.2440   -1.5730   46.2620 O.3       1 FAD320      0.0000 
     54 H          30.1004    0.0459   48.7653 H         1 FAD320      0.0000 
     55 H          31.7269   -0.0001   49.4671 H         1 FAD320      0.0000 
     56 H          29.4594   -1.6950   50.5338 H         1 FAD320      0.0000 
     57 H          30.4354    0.9808   51.4828 H         1 FAD320      0.0000 
     58 H          30.0643    0.4329   53.6528 H         1 FAD320      0.0000 
     59 H          31.0286   -2.1283   53.4652 H         1 FAD320      0.0000 
     60 H          32.6659    0.8661   51.7481 H         1 FAD320      0.0000 
     61 H          36.8373    0.8904   56.2640 H         1 FAD320      0.0000 
     62 H          36.3022    1.6418   54.7229 H         1 FAD320      0.0000 
     63 H          33.8043   -2.3055   57.2483 H         1 FAD320      0.0000 
     64 H          38.0939    7.1733   42.4004 H         1 FAD320      0.0000 
     65 H          32.1970   10.9867   42.1698 H         1 FAD320      0.0000 
     66 H          30.5602    7.2965   44.9911 H         1 FAD320      0.0000 
     67 H          31.9578    6.0804   45.6900 H         1 FAD320      0.0000 
     68 H          33.6355    5.5115   45.7310 H         1 FAD320      0.0000 
     69 H          33.2377    4.4064   43.5174 H         1 FAD320      0.0000 
     70 H          31.6687    2.6146   44.4443 H         1 FAD320      0.0000 
     71 H          33.9423    3.3662   46.2712 H         1 FAD320      0.0000 
     72 H          32.6415    1.5862   47.1138 H         1 FAD320      0.0000 
     73 H          34.0668    0.8261   46.3854 H         1 FAD320      0.0000 
     74 H          29.9681   12.2589   43.1328 H         1 FAD320      0.0000 
     75 H          29.5181   11.4492   41.8182 H         1 FAD320      0.0000 
     76 H          28.6963   11.2763   43.1897 H         1 FAD320      0.0000 
     77 H          28.4297    8.2886   45.1332 H         1 FAD320      0.0000 
     78 H          28.3934    9.8964   45.1365 H         1 FAD320      0.0000 
     79 H          27.9384    9.0845   43.8250 H         1 FAD320      0.0000 
     80 H          27.8061    0.2551   51.9811 H         1 FAD320      0.0000 
     81 H          27.9808   -0.8245   52.8892 H         1 FAD320      0.0000 
     82 H          31.5245    5.4685   42.7203 H         1 FAD320      0.0000 
     83 H          30.7548    2.9451   46.3059 H         1 FAD320      0.0000 
     84 H          34.6011    3.4161   44.0450 H         1 FAD320      0.0000 
@<TRIPOS>BOND
     1    2    1 ar   
     2    3    1 ar   
     3    4    1 1    
     4   53    1 1    
     5    5    4 1    
     6    6    5 1    
     7   54    5 1    
     8   55    5 1    
     9    7    6 1    
    10    8    6 1    
    11   56    6 1    
    12   12    7 1    
    13    9    8 1    
    14   10    8 1    
    15   57    8 1    
    16   80    9 1    
    17   11   10 1    
    18   12   10 1    
    19   58   10 1    
    20   81   11 1    
    21   13   12 1    
    22   59   12 1    
    23   14   13 1    
    24   22   13 1    
    25   15   14 2    
    26   60   14 1    
    27   16   15 1    
    28   17   16 ar   
    29   22   16 ar   
    30   18   17 1    
    31   19   17 ar   
    32   61   18 1    
    33   62   18 1    
    34   20   19 ar   
    35   21   20 ar   
    36   63   20 1    
    37   22   21 ar   
    38   24   23 1    
    39   40   23 2    
    40   25   24 2    
    41   26   24 am   
    42   27   26 am   
    43   64   26 1    
    44   28   27 2    
    45   29   27 1    
    46   30   29 2    
    47   40   29 1    
    48   31   30 1    
    49   32   31 ar   
    50   38   31 ar   
    51   33   32 ar   
    52   65   32 1    
    53   34   33 1    
    54   35   33 ar   
    55   74   34 1    
    56   75   34 1    
    57   76   34 1    
    58   36   35 1    
    59   37   35 ar   
    60   77   36 1    
    61   78   36 1    
    62   79   36 1    
    63   38   37 ar   
    64   66   37 1    
    65   39   38 1    
    66   40   39 1    
    67   41   39 1    
    68   42   41 1    
    69   67   41 1    
    70   68   41 1    
    71   43   42 1    
    72   44   42 1    
    73   69   42 1    
    74   82   43 1    
    75   45   44 1    
    76   46   44 1    
    77   70   44 1    
    78   83   45 1    
    79   47   46 1    
    80   48   46 1    
    81   71   46 1    
    82   84   47 1    
    83   49   48 1    
    84   72   48 1    
    85   73   48 1    
    86   50   49 1    
    87   51   50 ar   
    88   52   50 ar   
    89   53   50 1    
@<TRIPOS>SUBSTRUCTURE
     1 FAD320      1 GROUP   
@<TRIPOS>SET

