#    Name: 4iv2_1GR_1_INTS_M
#    Modification time : Tue Mar 25 04:38:55 2014

@<TRIPOS>MOLECULE
4iv2_1GR_1_INTS_M
   82     0     9     0     0
SMALL
NO_CHARGES


@<TRIPOS>ATOM
      1 CA         19.5245    9.2375    4.6865 C.3       3 GLC5        0.0000 
      2 CA         18.1010    9.3900    5.9050 C.3       9 GLL5        0.0000 
      3 CA         20.9480    9.0850    3.4680 C.3       6 GLP5        0.0000 
      4 CA         17.5225    8.9405    4.3660 C.3       3 GLC5        0.0000 
      5 CA         16.9440    8.4910    2.8270 C.3       6 GLP5        0.0000 
      6 CA         15.9385    9.5625    6.1655 C.3       3 GLC5        0.0000 
      7 CA         13.7760    9.7350    6.4260 C.3       6 GLP5        0.0000 
      8 CA         16.3745    9.4480    9.3650 C.3       3 GLC5        0.0000 
      9 CA         17.6350    9.1430    8.2950 C.3       9 GLL5        0.0000 
     10 CA         15.1140    9.7530   10.4350 C.3       6 GLP5        0.0000 
     11 CA         17.0795    7.3135    7.6290 C.3       3 GLC5        0.0000 
     12 CA         16.5240    5.4840    6.9630 C.3       6 GLP5        0.0000 
     13 CA         15.7055    9.4390    7.3605 C.3       3 GLC5        0.0000 
     14 CA         16.9515   12.4755    7.9995 C.3       3 GLC5        0.0000 
     15 CA         18.3920   11.3810    7.3680 C.3       9 GLL5        0.0000 
     16 CA         15.5110   13.5700    8.6310 C.3       6 GLP5        0.0000 
     17 CA         20.6460   10.8425    4.8015 C.3       3 GLC5        0.0000 
     18 CA         20.3440   12.6000    6.1350 C.3       9 GLL5        0.0000 
     19 CA         19.5570   12.9570   10.4480 C.3       3 GLC5        0.0000 
     20 CA         20.6290   12.5150    9.0180 C.3       9 GLL5        0.0000 
     21 CA         18.4850   13.3990   11.8780 C.3       6 GLP5        0.0000 
     22 CA         23.0870    9.8195    7.6110 C.3       3 GLC5        0.0000 
     23 CA         21.4080   10.6490    8.3170 C.3       9 GLL5        0.0000 
     24 CA         24.7660    8.9900    6.9050 C.3       6 GLP5        0.0000 
     25 CA         21.5790    8.7840    8.3775 C.3       3 GLC5        0.0000 
     26 CA         21.7500    6.9190    8.4380 C.3       6 GLP5        0.0000 
     27 CA         23.7575   10.5935    7.8570 C.3       3 GLC5        0.0000 
     28 CA         22.7490   12.1970    8.8090 C.3       9 GLL5        0.0000 
     29 CA         23.7360   13.0965   10.0280 C.3       3 GLC5        0.0000 
     30 CA         24.7230   13.9960   11.2470 C.3       6 GLP5        0.0000 
     31 CA         24.4425   11.4955    8.8675 C.3       3 GLC5        0.0000 
     32 CA         26.1360   10.7940    8.9260 C.3       6 GLP5        0.0000 
     33 CA         24.2585   14.1885    7.5695 C.3       3 GLC5        0.0000 
     34 CA         22.6540   13.2110    6.4100 C.3       9 GLL5        0.0000 
     35 CA         25.8630   15.1660    8.7290 C.3       6 GLP5        0.0000 
     36 CA         24.6680   13.6260    4.7090 C.3       3 GLC5        0.0000 
     37 CA         22.6340   13.8190    5.1360 C.3       9 GLL5        0.0000 
     38 CA         26.7020   13.4330    4.2820 C.3       6 GLP5        0.0000 
     39 CA         19.2280   14.8655    5.8590 C.3       3 GLC5        0.0000 
     40 CA         20.3390   13.1950    4.9060 C.3       9 GLL5        0.0000 
     41 CA         18.1170   16.5360    6.8120 C.3       6 GLP5        0.0000 
     42 CA         20.9930   12.1395    2.2940 C.3       3 GLC5        0.0000 
     43 CA         19.3440   13.6440    2.0880 C.3       9 GLL5        0.0000 
     44 CA         22.6420   10.6350    2.5000 C.3       6 GLP5        0.0000 
     45 CA         20.8345   15.1665    1.9405 C.3       3 GLC5        0.0000 
     46 CA         22.3250   16.6890    1.7930 C.3       6 GLP5        0.0000 
     47 CA         19.2190   13.2965   -0.8065 C.3       3 GLC5        0.0000 
     48 CA         18.7420   14.1170    0.8960 C.3       9 GLL5        0.0000 
     49 CA         19.6960   12.4760   -2.5090 C.3       6 GLP5        0.0000 
     50 CA         20.4530   15.5440    0.5985 C.3       3 GLC5        0.0000 
     51 CA         22.1640   16.9710    0.3010 C.3       6 GLP5        0.0000 
     52 CA         18.8275   16.1170    1.8290 C.3       3 GLC5        0.0000 
     53 CA         18.9130   18.1170    2.7620 C.3       6 GLP5        0.0000 
     54 N          15.9165   14.2570   -1.1420 N.am      2 SEC2        0.0000 
     55 N          16.7760   14.8280   -0.3070 N.am      8 SEL2        0.0000 
     56 N          15.0570   13.6860   -1.9770 N.am      5 SEP2        0.0000 
     57 N          15.7230   15.8155   -0.6050 N.am      2 SEC2        0.0000 
     58 N          14.6700   16.8030   -0.9030 N.am      5 SEP2        0.0000 
     59 O          17.5980   15.4865   -1.0080 O.2       1 ALC1        0.0000 
     60 O          16.7760   14.8280   -0.3070 O.2       7 ALL1        0.0000 
     61 O          18.4200   16.1450   -1.7090 O.2       4 ALP1        0.0000 
     62 O          16.7580   15.9605   -1.5360 O.2       1 ALC1        0.0000 
     63 O          16.7400   17.0930   -2.7650 O.2       4 ALP1        0.0000 
     64 CA         14.7065   13.4335    1.7645 C.3       3 GLC5        0.0000 
     65 CA         16.5430   14.1740    1.9770 C.3       9 GLL5        0.0000 
     66 CA         12.8700   12.6930    1.5520 C.3       6 GLP5        0.0000 
     67 CA         15.5390   12.2775    3.0005 C.3       3 GLC5        0.0000 
     68 CA         17.1530   13.7110    3.1500 C.3       9 GLL5        0.0000 
     69 CA         13.9250   10.8440    2.8510 C.3       6 GLP5        0.0000 
     70 CA         17.9285    7.6410    6.3195 C.3       3 GLC5        0.0000 
     71 CA         18.5390    9.8600    7.2890 C.3       9 GLL5        0.0000 
     72 CA         17.5370    5.6570    6.0420 C.3       6 GLP5        0.0000 
     73 CA         19.0113    8.2070    8.2055 C.3       3 GLC5        0.0000 
     74 CA         20.0450    7.0300    8.9650 C.3       6 GLP5        0.0000 
     75 CA         21.9410   11.3709   10.5667 C.3       3 GLC5        0.0000 
     76 CA         21.8820   10.9180   12.4930 C.3       6 GLP5        0.0000 
     77 CA         22.1818   15.2473    3.2793 C.3       3 GLC5        0.0000 
     78 CA         21.4430   13.7920    4.3950 C.3       9 GLL5        0.0000 
     79 CA         21.9154   12.0676    3.6679 C.3       3 GLC5        0.0000 
     80 CA         16.7544   15.8529    2.5775 C.3       3 GLC5        0.0000 
     81 CA         17.3500   14.3790    0.8470 C.3       9 GLL5        0.0000 
     82 CA         16.4590   17.7120    2.8740 C.3       6 GLP5        0.0000 
@<TRIPOS>BOND
@<TRIPOS>SUBSTRUCTURE
     1 ALC1       59 GROUP        1 X    ALC  0     ROOT ALC X 1
     2 SEC2       54 GROUP        1 X    SEC  0     **** SEC X 2
     3 GLC5        1 GROUP        1 X    GLC  0     **** GLC X 6
     4 ALP1       61 GROUP        1 Y    ALP  0     ROOT ALP Y 8
     5 SEP2       56 GROUP        1 Y    SEP  0     **** SEP Y 9
     6 GLP5        3 GROUP        1 Y    GLP  0     **** GLP Y 13
     7 ALL1       60 GROUP        1 Z    ALL  0     ROOT ALL Z 15
     8 SEL2       55 GROUP        1 Z    SEL  0     **** SEL Z 16
     9 GLL5        2 GROUP        1 Z    GLL  0     **** GLL Z 20
@<TRIPOS>SET

