#    Name: 4iv2_1GR_1_ligand
#    Modification time : Tue Mar 25 04:38:55 2014

@<TRIPOS>MOLECULE
4iv2_1GR_1_ligand
   42    44     1     0     0
SMALL
NO_CHARGES


@<TRIPOS>ATOM
      1 C01        18.1010    9.3900    5.9050 C.3       1 1GR601      0.0000 
      2 C02        18.5390    9.8600    7.2890 C.3       1 1GR601      0.0000 
      3 C03        17.6350    9.1430    8.2950 C.3       1 1GR601      0.0000 
      4 C04        18.3920   11.3810    7.3680 C.3       1 1GR601      0.0000 
      5 N01        19.0750   12.1310    6.2760 N.pl3     1 1GR601      0.0000 
      6 N02        18.4300   12.3670    5.3540 N.2       1 1GR601      0.0000 
      7 C05        20.3440   12.6000    6.1350 C.ar      1 1GR601      0.0000 
      8 C06        21.4880   12.5910    6.9290 C.ar      1 1GR601      0.0000 
      9 C07        21.5590   11.9900    8.2350 C.3       1 1GR601      0.0000 
     10 F01        20.6290   12.5150    9.0180 F         1 1GR601      0.0000 
     11 F02        21.4080   10.6490    8.3170 F         1 1GR601      0.0000 
     12 F03        22.7490   12.1970    8.8090 F         1 1GR601      0.0000 
     13 C08        22.6540   13.2110    6.4100 C.ar      1 1GR601      0.0000 
     14 C09        22.6340   13.8190    5.1360 C.ar      1 1GR601      0.0000 
     15 C10        21.4430   13.7920    4.3950 C.ar      1 1GR601      0.0000 
     16 C11        20.3390   13.1950    4.9060 C.ar      1 1GR601      0.0000 
     17 C12        19.1010   13.0170    4.4030 C.2       1 1GR601      0.0000 
     18 C13        18.5410   13.4320    3.2430 C.ar      1 1GR601      0.0000 
     19 C14        19.3440   13.6440    2.0880 C.ar      1 1GR601      0.0000 
     20 C15        18.7420   14.1170    0.8960 C.ar      1 1GR601      0.0000 
     21 C16        17.3500   14.3790    0.8470 C.ar      1 1GR601      0.0000 
     22 O01        16.7760   14.8280   -0.3070 O.3       1 1GR601      0.0000 
     23 C17        16.5430   14.1740    1.9770 C.ar      1 1GR601      0.0000 
     24 C18        17.1530   13.7110    3.1500 C.ar      1 1GR601      0.0000 
     25 O02        16.3740   13.5170    4.2460 O.3       1 1GR601      0.0000 
     26 H          19.5460    9.5758    7.4474 H         1 1GR601      0.0000 
     27 H          18.7808   11.7155    8.3520 H         1 1GR601      0.0000 
     28 H          17.3093   11.6243    7.3690 H         1 1GR601      0.0000 
     29 H          23.5134   13.2158    6.9651 H         1 1GR601      0.0000 
     30 H          23.4660   14.2653    4.7674 H         1 1GR601      0.0000 
     31 H          21.4295   14.2334    3.4614 H         1 1GR601      0.0000 
     32 H          20.3414   13.4568    2.1204 H         1 1GR601      0.0000 
     33 H          19.3167   14.2708    0.0634 H         1 1GR601      0.0000 
     34 H          15.5486   14.3559    1.9440 H         1 1GR601      0.0000 
     35 H          18.6447    9.8127    5.1799 H         1 1GR601      0.0000 
     36 H          18.1947    8.3997    5.8022 H         1 1GR601      0.0000 
     37 H          17.1438    9.6144    5.7223 H         1 1GR601      0.0000 
     38 H          17.7212    8.1489    8.2291 H         1 1GR601      0.0000 
     39 H          17.8554    9.3945    9.2374 H         1 1GR601      0.0000 
     40 H          16.6704    9.3638    8.1507 H         1 1GR601      0.0000 
     41 H          17.2814   15.6585   -0.5411 H         1 1GR601      0.0000 
     42 H          16.8923   12.7126    4.5368 H         1 1GR601      0.0000 
@<TRIPOS>BOND
     1    2    1 1    
     2   35    1 1    
     3   36    1 1    
     4   37    1 1    
     5    3    2 1    
     6    4    2 1    
     7   26    2 1    
     8   38    3 1    
     9   39    3 1    
    10   40    3 1    
    11    5    4 1    
    12   27    4 1    
    13   28    4 1    
    14    6    5 1    
    15    7    5 1    
    16   17    6 2    
    17    8    7 ar   
    18   16    7 ar   
    19    9    8 1    
    20   13    8 ar   
    21   10    9 1    
    22   11    9 1    
    23   12    9 1    
    24   14   13 ar   
    25   29   13 1    
    26   15   14 ar   
    27   30   14 1    
    28   16   15 ar   
    29   31   15 1    
    30   17   16 1    
    31   18   17 1    
    32   19   18 ar   
    33   24   18 ar   
    34   20   19 ar   
    35   32   19 1    
    36   21   20 ar   
    37   33   20 1    
    38   22   21 1    
    39   23   21 ar   
    40   41   22 1    
    41   24   23 ar   
    42   34   23 1    
    43   25   24 1    
    44   42   25 1    
@<TRIPOS>SUBSTRUCTURE
     1 1GR601      1 GROUP   
@<TRIPOS>SET

