#    Name: 3ge1_ADP_1_INTS_M
#    Modification time : Tue Mar 25 07:37:33 2014

@<TRIPOS>MOLECULE
3ge1_ADP_1_INTS_M
   51     0    12     0     0
SMALL
NO_CHARGES


@<TRIPOS>ATOM
      1 N         -17.5015  -42.3050   -4.3660 N.am      2 SEC2        0.0000 
      2 N         -17.4490  -43.5710   -4.2540 N.am     10 SEL2        0.0000 
      3 N         -17.5540  -41.0390   -4.4780 N.am      6 SEP2        0.0000 
      4 N         -16.2185  -42.8265   -3.7940 N.am      2 SEC2        0.0000 
      5 N         -14.9880  -42.0820   -3.3340 N.am      6 SEP2        0.0000 
      6 N         -15.7710  -44.1715   -1.0870 N.am      2 SEC2        0.0000 
      7 N         -16.7610  -44.9300   -2.2050 N.am     10 SEL2        0.0000 
      8 N         -14.7810  -43.4130    0.0310 N.am      6 SEP2        0.0000 
      9 NZ        -19.6835  -46.9810   -1.2905 N.4       3 LYC4        0.0000 
     10 NZ        -20.2290  -45.1070   -0.9830 N.4      11 LYL4        0.0000 
     11 NZ        -19.1380  -48.8550   -1.5980 N.4       7 LYP4        0.0000 
     12 N         -22.4980  -43.4235   -2.8195 N.am      2 SEC2        0.0000 
     13 N         -21.2270  -43.9600   -3.1030 N.am     10 SEL2        0.0000 
     14 N         -23.7690  -42.8870   -2.5360 N.am      6 SEP2        0.0000 
     15 CA        -21.6460  -42.4560   -0.8940 C.3       4 GLC5        0.0000 
     16 CA        -19.4990  -42.3440   -0.6740 C.3      12 GLL5        0.0000 
     17 CA        -23.7930  -42.5680   -1.1140 C.3       8 GLP5        0.0000 
     18 O         -15.9595  -39.3940    0.0175 O.2       1 ALC1        0.0000 
     19 O         -17.4400  -39.4090   -0.5290 O.2       9 ALL1        0.0000 
     20 O         -14.4790  -39.3790    0.5640 O.2       5 ALP1        0.0000 
     21 O         -18.2365  -37.2825    0.4680 O.2       1 ALC1        0.0000 
     22 O         -18.6710  -38.1500    1.4840 O.2       9 ALL1        0.0000 
     23 O         -17.8020  -36.4150   -0.5480 O.2       5 ALP1        0.0000 
     24 CA        -19.8610  -37.9010   -1.0860 C.3       4 GLC5        0.0000 
     25 CA        -20.5950  -39.1550    0.3590 C.3      12 GLL5        0.0000 
     26 CA        -19.1270  -36.6470   -2.5310 C.3       8 GLP5        0.0000 
     27 CA        -22.2805  -38.5265   -0.9055 C.3       4 GLC5        0.0000 
     28 CA        -23.9660  -37.8980   -2.1700 C.3       8 GLP5        0.0000 
     29 CA        -23.5445  -38.2980    4.6085 C.3       4 GLC5        0.0000 
     30 CA        -23.6340  -38.6070    2.3880 C.3      12 GLL5        0.0000 
     31 CA        -23.4550  -37.9890    6.8290 C.3       8 GLP5        0.0000 
     32 CA        -24.8385  -36.9030    4.6740 C.3       4 GLC5        0.0000 
     33 CA        -24.6610  -37.6470    2.8340 C.3      12 GLL5        0.0000 
     34 CA        -25.0160  -36.1590    6.5140 C.3       8 GLP5        0.0000 
     35 CA        -26.1670  -36.4725    1.9775 C.3       4 GLC5        0.0000 
     36 CA        -27.6730  -35.2980    1.1210 C.3       8 GLP5        0.0000 
     37 CA        -22.7075  -34.9415    0.8325 C.3       4 GLC5        0.0000 
     38 CA        -23.5890  -35.9850    1.5570 C.3      12 GLL5        0.0000 
     39 CA        -21.8260  -33.8980    0.1080 C.3       8 GLP5        0.0000 
     40 CA        -22.3945  -36.7380    3.1605 C.3       4 GLC5        0.0000 
     41 CA        -21.2000  -37.4910    4.7640 C.3       8 GLP5        0.0000 
     42 CA        -23.7775  -36.9415   -0.3065 C.3       4 GLC5        0.0000 
     43 CA        -25.6310  -35.6415    1.3390 C.3       4 GLC5        0.0000 
     44 CA        -24.4500  -34.7605    0.1425 C.3       4 GLC5        0.0000 
     45 CA        -25.3110  -33.5360   -1.2720 C.3       8 GLP5        0.0000 
     46 CA        -19.6940  -41.4200   -2.7988 C.3       4 GLC5        0.0000 
     47 CA        -19.4010  -40.8240   -0.8290 C.3      12 GLL5        0.0000 
     48 CA        -19.9380  -41.2560   -4.8460 C.3       8 GLP5        0.0000 
     49 CA        -22.2854  -37.8072    3.4073 C.3       4 GLC5        0.0000 
     50 CA        -24.0889  -38.5177    0.3197 C.3       4 GLC5        0.0000 
     51 CA        -24.8070  -38.9120   -1.4110 C.3       8 GLP5        0.0000 
@<TRIPOS>BOND
@<TRIPOS>SUBSTRUCTURE
     1 ALC1       18 GROUP        1 X    ALC  0     ROOT ALC X 1
     2 SEC2        1 GROUP        1 X    SEC  0     **** SEC X 2
     3 LYC4        9 GROUP        1 X    LYC  0     **** LYC X 4
     4 GLC5       15 GROUP        1 X    GLC  0     **** GLC X 6
     5 ALP1       20 GROUP        1 Y    ALP  0     ROOT ALP Y 8
     6 SEP2        3 GROUP        1 Y    SEP  0     **** SEP Y 9
     7 LYP4       11 GROUP        1 Y    LYP  0     **** LYP Y 11
     8 GLP5       17 GROUP        1 Y    GLP  0     **** GLP Y 13
     9 ALL1       19 GROUP        1 Z    ALL  0     ROOT ALL Z 15
    10 SEL2        2 GROUP        1 Z    SEL  0     **** SEL Z 16
    11 LYL4       10 GROUP        1 Z    LYL  0     **** LYL Z 18
    12 GLL5       16 GROUP        1 Z    GLL  0     **** GLL Z 20
@<TRIPOS>SET

