#    Name: 3ge1_ADP_1_ligand
#    Modification time : Tue Mar 25 07:37:34 2014

@<TRIPOS>MOLECULE
3ge1_ADP_1_ligand
   39    41     1     0     0
SMALL
NO_CHARGES


@<TRIPOS>ATOM
      1 PB        -17.4570  -44.9080   -3.5530 P.3       1 ADP499      0.0000 
      2 O1B       -17.4490  -43.5710   -4.2540 O.co2     1 ADP499      0.0000 
      3 O2B       -17.0630  -46.0530   -4.4560 O.co2     1 ADP499      0.0000 
      4 O3B       -16.7610  -44.9300   -2.2050 O.co2     1 ADP499      0.0000 
      5 PA        -20.0210  -44.3540   -2.2810 P.3       1 ADP499      0.0000 
      6 O1A       -20.2290  -45.1070   -0.9830 O.co2     1 ADP499      0.0000 
      7 O2A       -21.2270  -43.9600   -3.1030 O.co2     1 ADP499      0.0000 
      8 O3A       -19.0260  -45.2170   -3.2410 O.3       1 ADP499      0.0000 
      9 O5'       -19.2190  -43.0070   -1.9140 O.3       1 ADP499      0.0000 
     10 C5'       -19.4990  -42.3440   -0.6740 C.3       1 ADP499      0.0000 
     11 C4'       -19.4010  -40.8240   -0.8290 C.3       1 ADP499      0.0000 
     12 O4'       -20.6880  -40.2200   -0.5970 O.3       1 ADP499      0.0000 
     13 C3'       -18.4210  -40.2040    0.1650 C.3       1 ADP499      0.0000 
     14 O3'       -17.4400  -39.4090   -0.5290 O.3       1 ADP499      0.0000 
     15 C2'       -19.2910  -39.3860    1.1170 C.3       1 ADP499      0.0000 
     16 O2'       -18.6710  -38.1500    1.4840 O.3       1 ADP499      0.0000 
     17 C1'       -20.5950  -39.1550    0.3590 C.3       1 ADP499      0.0000 
     18 N9        -21.7960  -39.1620    1.2360 N.pl3     1 ADP499      0.0000 
     19 C8        -22.2680  -40.2370    1.9000 C.2       1 ADP499      0.0000 
     20 N7        -23.3830  -39.9070    2.6060 N.2       1 ADP499      0.0000 
     21 C5        -23.6340  -38.6070    2.3880 C.ar      1 ADP499      0.0000 
     22 C6        -24.6610  -37.6470    2.8340 C.ar      1 ADP499      0.0000 
     23 N6        -25.6540  -38.0350    3.6680 N.pl3     1 ADP499      0.0000 
     24 N1        -24.5780  -36.3770    2.3880 N.ar      1 ADP499      0.0000 
     25 C2        -23.5890  -35.9850    1.5570 C.ar      1 ADP499      0.0000 
     26 N3        -22.6240  -36.8200    1.1170 N.ar      1 ADP499      0.0000 
     27 C4        -22.5940  -38.1200    1.4900 C.ar      1 ADP499      0.0000 
     28 H         -18.7920  -42.6451    0.1138 H         1 ADP499      0.0000 
     29 H         -20.5111  -42.5775   -0.3105 H         1 ADP499      0.0000 
     30 H         -19.0560  -40.5984   -1.8266 H         1 ADP499      0.0000 
     31 H         -17.9794  -41.0076    0.7238 H         1 ADP499      0.0000 
     32 H         -19.5158  -40.0063    1.9670 H         1 ADP499      0.0000 
     33 H         -20.5159  -38.2086   -0.1553 H         1 ADP499      0.0000 
     34 H         -21.8703  -41.1287    1.8808 H         1 ADP499      0.0000 
     35 H         -26.3256  -37.3342    3.9085 H         1 ADP499      0.0000 
     36 H         -25.6280  -38.9881    3.9697 H         1 ADP499      0.0000 
     37 H         -23.5693  -34.9728    1.2345 H         1 ADP499      0.0000 
     38 H         -16.5801  -39.5820   -0.0488 H         1 ADP499      0.0000 
     39 H         -18.1059  -37.9005    0.6975 H         1 ADP499      0.0000 
@<TRIPOS>BOND
     1    2    1 ar   
     2    3    1 ar   
     3    4    1 ar   
     4    8    1 1    
     5    6    5 ar   
     6    7    5 ar   
     7    8    5 1    
     8    9    5 1    
     9   10    9 1    
    10   11   10 1    
    11   28   10 1    
    12   29   10 1    
    13   12   11 1    
    14   13   11 1    
    15   30   11 1    
    16   17   12 1    
    17   14   13 1    
    18   15   13 1    
    19   31   13 1    
    20   38   14 1    
    21   16   15 1    
    22   17   15 1    
    23   32   15 1    
    24   39   16 1    
    25   18   17 1    
    26   33   17 1    
    27   19   18 1    
    28   27   18 1    
    29   20   19 2    
    30   34   19 1    
    31   21   20 1    
    32   22   21 ar   
    33   27   21 ar   
    34   23   22 1    
    35   24   22 ar   
    36   35   23 1    
    37   36   23 1    
    38   25   24 ar   
    39   26   25 ar   
    40   37   25 1    
    41   27   26 ar   
@<TRIPOS>SUBSTRUCTURE
     1 ADP499      1 GROUP   
@<TRIPOS>SET

