#    Name: 1e94_ANP_1_INTS_M
#    Modification time : Mon Mar 24 23:17:45 2014

@<TRIPOS>MOLECULE
1e94_ANP_1_INTS_M
   58     0     9     0     0
SMALL
NO_CHARGES


@<TRIPOS>ATOM
      1 N         -17.0455  123.7475  -37.5835 N.am      1 SEC2        0.0000 
      2 N         -15.9200  124.8080  -37.4250 N.am      7 SEL2        0.0000 
      3 N         -18.1710  122.6870  -37.7420 N.am      4 SEP2        0.0000 
      4 NZ        -12.8360  124.9390  -35.6345 N.4       2 LYC4        0.0000 
      5 NZ        -13.0450  125.0320  -37.0670 N.4       8 LYL4        0.0000 
      6 NZ        -12.6270  124.8460  -34.2020 N.4       5 LYP4        0.0000 
      7 N         -12.8360  124.9390  -35.6345 N.am      1 SEC2        0.0000 
      8 N         -13.0450  125.0320  -37.0670 N.am      7 SEL2        0.0000 
      9 N         -12.6270  124.8460  -34.2020 N.am      4 SEP2        0.0000 
     10 NZ        -17.3110  128.1085  -38.3970 N.4       2 LYC4        0.0000 
     11 NZ        -16.6050  128.4410  -36.8370 N.4       8 LYL4        0.0000 
     12 NZ        -18.0170  127.7760  -39.9570 N.4       5 LYP4        0.0000 
     13 N         -17.1560  128.1010  -35.5655 N.am      1 SEC2        0.0000 
     14 N         -16.6050  128.4410  -36.8370 N.am      7 SEL2        0.0000 
     15 N         -17.7070  127.7610  -34.2940 N.am      4 SEP2        0.0000 
     16 NZ        -16.6355  128.3395  -39.3715 N.4       2 LYC4        0.0000 
     17 NZ        -15.2540  128.9030  -38.7860 N.4       8 LYL4        0.0000 
     18 N         -14.8330  129.7105  -39.5890 N.am      1 SEC2        0.0000 
     19 N         -15.2540  128.9030  -38.7860 N.am      7 SEL2        0.0000 
     20 N         -14.4120  130.5180  -40.3920 N.am      4 SEP2        0.0000 
     21 N         -16.6355  128.3395  -39.3715 N.am      1 SEC2        0.0000 
     22 N         -18.0170  127.7760  -39.9570 N.am      4 SEP2        0.0000 
     23 N         -13.6935  129.0605  -39.0675 N.am      1 SEC2        0.0000 
     24 N         -12.1330  129.2180  -39.3490 N.am      4 SEP2        0.0000 
     25 CA        -13.8820  132.2760  -37.9290 C.3       3 GLC5        0.0000 
     26 CA        -13.4610  132.8090  -36.2110 C.3       9 GLL5        0.0000 
     27 CA        -14.3030  131.7430  -39.6470 C.3       6 GLP5        0.0000 
     28 CA        -11.5340  132.7135  -37.1590 C.3       3 GLC5        0.0000 
     29 CA         -9.6070  132.6180  -38.1070 C.3       6 GLP5        0.0000 
     30 CA        -13.4430  135.3505  -36.8085 C.3       3 GLC5        0.0000 
     31 CA        -12.9750  133.8520  -35.2910 C.3       9 GLL5        0.0000 
     32 CA        -13.9110  136.8490  -38.3260 C.3       6 GLP5        0.0000 
     33 CA        -14.0230  136.2695  -36.3345 C.3       3 GLC5        0.0000 
     34 CA        -14.1350  135.6900  -34.3430 C.3       9 GLL5        0.0000 
     35 N         -19.5205  138.0940  -33.9305 N.am      1 SEC2        0.0000 
     36 N         -17.8610  137.5640  -33.9890 N.am      7 SEL2        0.0000 
     37 N         -21.1800  138.6240  -33.8720 N.am      4 SEP2        0.0000 
     38 CA        -18.7130  134.0980  -36.0700 C.3       3 GLC5        0.0000 
     39 CA        -18.6800  136.2230  -35.9790 C.3       9 GLL5        0.0000 
     40 CA        -18.7460  131.9730  -36.1610 C.3       6 GLP5        0.0000 
     41 CA        -17.9925  136.4690  -38.0360 C.3       3 GLC5        0.0000 
     42 CA        -17.3050  136.7150  -40.0930 C.3       6 GLP5        0.0000 
     43 CA        -17.3310  133.8735  -38.3450 C.3       3 GLC5        0.0000 
     44 CA        -16.8290  134.7190  -36.9950 C.3       9 GLL5        0.0000 
     45 CA        -17.8330  133.0280  -39.6950 C.3       6 GLP5        0.0000 
     46 CA        -17.7875  133.3460  -36.5780 C.3       3 GLC5        0.0000 
     47 CA        -17.0670  135.7170  -38.5440 C.3       3 GLC5        0.0000 
     48 CA        -15.3700  135.7840  -37.6605 C.3       3 GLC5        0.0000 
     49 CA        -15.1710  136.3785  -36.8065 C.3       3 GLC5        0.0000 
     50 CA        -16.4310  135.9080  -35.2870 C.3       9 GLL5        0.0000 
     51 CA        -15.0083  133.8852  -32.7768 C.3       3 GLC5        0.0000 
     52 CA        -13.9730  134.7100  -33.1920 C.3       9 GLL5        0.0000 
     53 CA        -16.1330  132.8500  -31.6430 C.3       6 GLP5        0.0000 
     54 CA        -19.9208  135.8758  -34.6015 C.3       3 GLC5        0.0000 
     55 CA        -17.7850  136.6520  -35.0550 C.3       9 GLL5        0.0000 
     56 CA        -21.6090  135.3140  -33.6860 C.3       6 GLP5        0.0000 
     57 CA        -17.3214  137.7584  -36.4030 C.3       3 GLC5        0.0000 
     58 CA        -17.3110  139.3440  -37.4040 C.3       6 GLP5        0.0000 
@<TRIPOS>BOND
@<TRIPOS>SUBSTRUCTURE
     1 SEC2        1 GROUP        1 X    SEC  0     ROOT SEC X 2
     2 LYC4        4 GROUP        1 X    LYC  0     **** LYC X 4
     3 GLC5       25 GROUP        1 X    GLC  0     **** GLC X 6
     4 SEP2        3 GROUP        1 Y    SEP  0     ROOT SEP Y 9
     5 LYP4        6 GROUP        1 Y    LYP  0     **** LYP Y 11
     6 GLP5       27 GROUP        1 Y    GLP  0     **** GLP Y 13
     7 SEL2        2 GROUP        1 Z    SEL  0     ROOT SEL Z 16
     8 LYL4        5 GROUP        1 Z    LYL  0     **** LYL Z 18
     9 GLL5       26 GROUP        1 Z    GLL  0     **** GLL Z 20
@<TRIPOS>SET

