#    Name: 1e94_ANP_1_ligand
#    Modification time : Mon Mar 24 23:17:45 2014

@<TRIPOS>MOLECULE
1e94_ANP_1_ligand
   43    45     1     0     0
SMALL
NO_CHARGES


@<TRIPOS>ATOM
      1 PG        -14.4950  125.5950  -37.8430 P.3       1 ANP500      0.0000 
      2 O1G       -14.3120  125.5490  -39.5640 O.co2     1 ANP500      0.0000 
      3 O2G       -15.9200  124.8080  -37.4250 O.co2     1 ANP500      0.0000 
      4 O3G       -13.0450  125.0320  -37.0670 O.co2     1 ANP500      0.0000 
      5 PB        -15.3480  128.6200  -37.4090 P.3       1 ANP500      0.0000 
      6 O1B       -16.6050  128.4410  -36.8370 O.co2     1 ANP500      0.0000 
      7 O2B       -15.2540  128.9030  -38.7860 O.co2     1 ANP500      0.0000 
      8 N3B       -14.4380  127.3630  -37.2350 N.4       1 ANP500      0.0000 
      9 PA        -14.7330  130.5810  -35.4090 P.3       1 ANP500      0.0000 
     10 O1A       -16.0290  131.0270  -35.3240 O.co2     1 ANP500      0.0000 
     11 O2A       -14.2520  129.7240  -34.2770 O.co2     1 ANP500      0.0000 
     12 O3A       -14.5970  129.7660  -36.7360 O.3       1 ANP500      0.0000 
     13 O5'       -13.6230  131.6440  -35.4860 O.3       1 ANP500      0.0000 
     14 C5'       -13.4610  132.8090  -36.2110 C.3       1 ANP500      0.0000 
     15 C4'       -12.9750  133.8520  -35.2910 C.3       1 ANP500      0.0000 
     16 O4'       -13.5450  135.1240  -35.5810 O.3       1 ANP500      0.0000 
     17 C3'       -13.2910  133.5920  -33.7640 C.3       1 ANP500      0.0000 
     18 O3'       -12.0610  133.4220  -33.2610 O.3       1 ANP500      0.0000 
     19 C2'       -13.9730  134.7100  -33.1920 C.3       1 ANP500      0.0000 
     20 O2'       -13.1060  135.3420  -32.2160 O.3       1 ANP500      0.0000 
     21 C1'       -14.1350  135.6900  -34.3430 C.3       1 ANP500      0.0000 
     22 N9        -15.6670  136.2860  -34.4170 N.pl3     1 ANP500      0.0000 
     23 C8        -16.5240  137.3550  -33.5740 C.2       1 ANP500      0.0000 
     24 N7        -17.8610  137.5640  -33.9890 N.2       1 ANP500      0.0000 
     25 C5        -17.7850  136.6520  -35.0550 C.ar      1 ANP500      0.0000 
     26 C6        -18.6800  136.2230  -35.9790 C.ar      1 ANP500      0.0000 
     27 N6        -19.9240  136.6380  -35.9590 N.pl3     1 ANP500      0.0000 
     28 N1        -18.2120  135.2490  -36.9880 N.ar      1 ANP500      0.0000 
     29 C2        -16.8290  134.7190  -36.9950 C.ar      1 ANP500      0.0000 
     30 N3        -15.9360  134.9700  -36.1950 N.ar      1 ANP500      0.0000 
     31 C4        -16.4310  135.9080  -35.2870 C.ar      1 ANP500      0.0000 
     32 H         -14.4034  133.1531  -36.6626 H         1 ANP500      0.0000 
     33 H         -12.7309  132.6944  -37.0260 H         1 ANP500      0.0000 
     34 H         -11.8806  133.9287  -35.3490 H         1 ANP500      0.0000 
     35 H         -13.8786  132.6980  -33.7515 H         1 ANP500      0.0000 
     36 H         -14.9055  134.4679  -32.8115 H         1 ANP500      0.0000 
     37 H         -13.5106  136.5956  -34.0457 H         1 ANP500      0.0000 
     38 H         -16.0682  137.7845  -32.8386 H         1 ANP500      0.0000 
     39 H         -20.1474  137.3255  -35.2681 H         1 ANP500      0.0000 
     40 H         -20.5353  136.2290  -36.6365 H         1 ANP500      0.0000 
     41 H         -16.6855  134.0393  -37.8430 H         1 ANP500      0.0000 
     42 H         -12.1421  132.6455  -32.6361 H         1 ANP500      0.0000 
     43 H         -12.2676  134.7969  -32.2233 H         1 ANP500      0.0000 
@<TRIPOS>BOND
     1    2    1 ar   
     2    3    1 ar   
     3    4    1 ar   
     4    8    1 1    
     5    6    5 ar   
     6    7    5 ar   
     7    8    5 1    
     8   12    5 1    
     9   10    9 ar   
    10   11    9 ar   
    11   12    9 1    
    12   13    9 1    
    13   14   13 1    
    14   15   14 1    
    15   32   14 1    
    16   33   14 1    
    17   16   15 1    
    18   17   15 1    
    19   34   15 1    
    20   21   16 1    
    21   18   17 1    
    22   19   17 1    
    23   35   17 1    
    24   42   18 1    
    25   20   19 1    
    26   21   19 1    
    27   36   19 1    
    28   43   20 1    
    29   22   21 1    
    30   37   21 1    
    31   23   22 1    
    32   31   22 1    
    33   24   23 2    
    34   38   23 1    
    35   25   24 1    
    36   26   25 ar   
    37   31   25 ar   
    38   27   26 1    
    39   28   26 ar   
    40   39   27 1    
    41   40   27 1    
    42   29   28 ar   
    43   30   29 ar   
    44   41   29 1    
    45   31   30 ar   
@<TRIPOS>SUBSTRUCTURE
     1 ANP500      1 GROUP   
@<TRIPOS>SET

