#    Name: 3ch6_311_1_INTS_M
#    Modification time : Mon Mar 24 21:18:33 2014

@<TRIPOS>MOLECULE
3ch6_311_1_INTS_M
   69     0     6     0     0
SMALL
NO_CHARGES


@<TRIPOS>ATOM
      1 CA         48.0855   61.0100   81.7010 C.3       2 GLC5        0.0000 
      2 CA         46.8150   60.4970   80.3900 C.3       6 GLL5        0.0000 
      3 CA         49.3560   61.5230   83.0120 C.3       4 GLP5        0.0000 
      4 CA         46.1005   63.2575   76.6645 C.3       2 GLC5        0.0000 
      5 CA         46.2070   62.1150   78.5570 C.3       6 GLL5        0.0000 
      6 CA         45.9940   64.4000   74.7720 C.3       4 GLP5        0.0000 
      7 CA         47.1370   62.1055   82.4305 C.3       2 GLC5        0.0000 
      8 CA         45.9680   62.8030   80.9200 C.3       6 GLL5        0.0000 
      9 CA         48.3060   61.4080   83.9410 C.3       4 GLP5        0.0000 
     10 CA         37.1210   64.6685   78.4945 C.3       2 GLC5        0.0000 
     11 CA         37.9810   64.3130   79.9490 C.3       6 GLL5        0.0000 
     12 CA         36.2610   65.0240   77.0400 C.3       4 GLP5        0.0000 
     13 CA         37.0360   65.4235   81.3690 C.3       2 GLC5        0.0000 
     14 CA         36.0910   66.5340   82.7890 C.3       4 GLP5        0.0000 
     15 CA         43.4805   61.3780   77.6925 C.3       2 GLC5        0.0000 
     16 CA         44.6910   60.1840   78.9980 C.3       6 GLL5        0.0000 
     17 CA         42.2700   62.5720   76.3870 C.3       4 GLP5        0.0000 
     18 CA         42.7370   59.9430   78.5440 C.3       2 GLC5        0.0000 
     19 CA         40.7830   59.7020   78.0900 C.3       4 GLP5        0.0000 
     20 CA         44.6365   58.6600   80.0950 C.3       2 GLC5        0.0000 
     21 CA         44.5820   57.1360   81.1920 C.3       4 GLP5        0.0000 
     22 CA         48.1810   58.2660   77.8655 C.3       2 GLC5        0.0000 
     23 CA         46.8950   59.7210   77.9120 C.3       6 GLL5        0.0000 
     24 CA         49.4670   56.8110   77.8190 C.3       4 GLP5        0.0000 
     25 CA         46.6390   57.9415   78.9275 C.3       2 GLC5        0.0000 
     26 CA         46.3830   56.1620   79.9430 C.3       4 GLP5        0.0000 
     27 CA         43.4330   61.5530   86.9945 C.3       2 GLC5        0.0000 
     28 CA         44.0090   62.7360   85.3940 C.3       6 GLL5        0.0000 
     29 CA         42.8570   60.3700   88.5950 C.3       4 GLP5        0.0000 
     30 CA         38.0330   66.6655   81.4605 C.3       2 GLC5        0.0000 
     31 CA         39.4890   65.0960   81.9480 C.3       6 GLL5        0.0000 
     32 CA         36.5770   68.2350   80.9730 C.3       4 GLP5        0.0000 
     33 CA         40.6655   66.5535   82.3460 C.3       2 GLC5        0.0000 
     34 CA         40.6310   64.7100   82.7580 C.3       6 GLL5        0.0000 
     35 CA         40.7000   68.3970   81.9340 C.3       4 GLP5        0.0000 
     36 CA         43.8075   62.7350   77.9540 C.3       2 GLC5        0.0000 
     37 CA         45.3450   62.8980   79.5210 C.3       6 GLL5        0.0000 
     38 CA         44.8455   64.6430   79.0465 C.3       2 GLC5        0.0000 
     39 CA         44.3460   66.3880   78.5720 C.3       4 GLP5        0.0000 
     40 N          45.2225   59.1030   83.9250 N.am      1 SEC2        0.0000 
     41 N          45.5540   59.6350   82.8520 N.am      5 SEL2        0.0000 
     42 N          44.8910   58.5710   84.9980 N.am      3 SEP2        0.0000 
     43 N          46.1915   58.5315   82.3845 N.am      1 SEC2        0.0000 
     44 N          46.8290   57.4280   81.9170 N.am      3 SEP2        0.0000 
     45 CA         40.2325   63.3695   78.5205 C.3       2 GLC5        0.0000 
     46 CA         39.6040   62.2290   79.8790 C.3       6 GLL5        0.0000 
     47 CA         40.8610   64.5100   77.1620 C.3       4 GLP5        0.0000 
     48 CA         38.2905   62.0085   78.2005 C.3       2 GLC5        0.0000 
     49 CA         36.9770   61.7880   76.5220 C.3       4 GLP5        0.0000 
     50 CA         46.2178   58.7553   80.3325 C.3       2 GLC5        0.0000 
     51 CA         46.1840   60.6300   78.9660 C.3       6 GLL5        0.0000 
     52 CA         45.9360   56.9470   80.9870 C.3       4 GLP5        0.0000 
     53 CA         40.2758   61.1743   79.2152 C.3       2 GLC5        0.0000 
     54 CA         39.9330   63.0640   80.8020 C.3       6 GLL5        0.0000 
     55 CA         45.8798   64.6217   81.2007 C.3       2 GLC5        0.0000 
     56 CA         46.1030   66.3930   82.1810 C.3       4 GLP5        0.0000 
     57 CA         47.5585   63.7834   79.6722 C.3       2 GLC5        0.0000 
     58 CA         49.2450   64.9120   79.3650 C.3       4 GLP5        0.0000 
     59 CA         39.8129   64.2392   78.7837 C.3       2 GLC5        0.0000 
     60 CA         45.3777   62.8007   86.5845 C.3       2 GLC5        0.0000 
     61 CA         46.2900   63.2800   88.1340 C.3       4 GLP5        0.0000 
     62 CA         45.7157   63.9522   85.0940 C.3       2 GLC5        0.0000 
     63 CA         46.9660   65.5830   85.1530 C.3       4 GLP5        0.0000 
     64 CA         39.7269   66.0816   80.4164 C.3       2 GLC5        0.0000 
     65 CA         40.4230   67.4910   79.6410 C.3       4 GLP5        0.0000 
     66 CA         39.9010   66.2970   83.9340 C.3       2 GLC5        0.0000 
     67 CA         39.7420   67.6910   85.5150 C.3       4 GLP5        0.0000 
     68 CA         38.6128   61.6656   81.6332 C.3       2 GLC5        0.0000 
     69 CA         37.5160   60.4500   82.8020 C.3       4 GLP5        0.0000 
@<TRIPOS>BOND
@<TRIPOS>SUBSTRUCTURE
     1 SEC2       40 GROUP        1 X    SEC  0     ROOT SEC X 2
     2 GLC5        1 GROUP        1 X    GLC  0     **** GLC X 6
     3 SEP2       42 GROUP        1 Y    SEP  0     ROOT SEP Y 9
     4 GLP5        3 GROUP        1 Y    GLP  0     **** GLP Y 13
     5 SEL2       41 GROUP        1 Z    SEL  0     ROOT SEL Z 16
     6 GLL5        2 GROUP        1 Z    GLL  0     **** GLL Z 20
@<TRIPOS>SET

