#    Name: 3ch6_311_1_ligand
#    Modification time : Mon Mar 24 21:18:33 2014

@<TRIPOS>MOLECULE
3ch6_311_1_ligand
   47    49     1     0     0
SMALL
NO_CHARGES


@<TRIPOS>ATOM
      1 C13        46.8150   60.4970   80.3900 C.3       1 311601      0.0000 
      2 C18        39.9330   63.0640   80.8020 C.ar      1 311601      0.0000 
      3 C17        44.6350   61.7260   83.3290 C.ar      1 311601      0.0000 
      4 C16        42.6210   63.0070   83.4000 C.ar      1 311601      0.0000 
      5 C15        41.4260   63.5060   82.5830 C.ar      1 311601      0.0000 
      6 C19        45.4460   60.8340   82.4500 C.2       1 311601      0.0000 
      7 C20        46.1840   60.6300   78.9660 C.3       1 311601      0.0000 
      8 C11        46.2070   62.1150   78.5570 C.3       1 311601      0.0000 
      9 C12        45.9680   62.8030   80.9200 C.3       1 311601      0.0000 
     10 C1         37.9810   64.3130   79.9490 C.3       1 311601      0.0000 
     11 C2         44.6910   60.1840   78.9980 C.3       1 311601      0.0000 
     12 C3         46.8950   59.7210   77.9120 C.3       1 311601      0.0000 
     13 C4         44.0090   62.7360   85.3940 C.ar      1 311601      0.0000 
     14 C5         42.8900   63.2770   84.7350 C.ar      1 311601      0.0000 
     15 C6         44.9220   61.9070   84.6760 C.ar      1 311601      0.0000 
     16 C7         39.4890   65.0960   81.9480 C.ar      1 311601      0.0000 
     17 C8         40.6310   64.7100   82.7580 C.ar      1 311601      0.0000 
     18 C9         41.0000   62.7010   81.5530 C.ar      1 311601      0.0000 
     19 C10        45.3450   62.8980   79.5210 C.3       1 311601      0.0000 
     20 C14        39.1640   64.1840   80.9220 C.ar      1 311601      0.0000 
     21 N21        43.4800   62.2260   82.7010 N.ar      1 311601      0.0000 
     22 N22        46.0180   61.3420   81.3270 N.am      1 311601      0.0000 
     23 O23        45.5540   59.6350   82.8520 O.2       1 311601      0.0000 
     24 F24        39.6040   62.2290   79.8790 F         1 311601      0.0000 
     25 H          47.8354   60.8380   80.3369 H         1 311601      0.0000 
     26 H          46.7751   59.4598   80.6780 H         1 311601      0.0000 
     27 H          45.8180   62.2075   77.5532 H         1 311601      0.0000 
     28 H          47.2257   62.4730   78.5963 H         1 311601      0.0000 
     29 H          45.3582   63.3569   81.6176 H         1 311601      0.0000 
     30 H          46.9676   63.2095   80.8909 H         1 311601      0.0000 
     31 H          44.1748   62.9299   86.3795 H         1 311601      0.0000 
     32 H          42.2496   63.8970   85.2709 H         1 311601      0.0000 
     33 H          45.7041   61.4959   85.1259 H         1 311601      0.0000 
     34 H          38.9999   65.9234   82.1165 H         1 311601      0.0000 
     35 H          40.9064   65.3565   83.5376 H         1 311601      0.0000 
     36 H          41.5037   61.8145   81.3578 H         1 311601      0.0000 
     37 H          44.3494   62.4798   79.5491 H         1 311601      0.0000 
     38 H          45.3057   63.9353   79.2220 H         1 311601      0.0000 
     39 H          38.2831   64.3187   78.9957 H         1 311601      0.0000 
     40 H          37.3351   63.5560   80.0472 H         1 311601      0.0000 
     41 H          37.4674   65.1578   80.0988 H         1 311601      0.0000 
     42 H          44.5940   59.2316   79.2869 H         1 311601      0.0000 
     43 H          44.1512   60.7387   79.6311 H         1 311601      0.0000 
     44 H          44.2605   60.2629   78.0989 H         1 311601      0.0000 
     45 H          47.8649   59.9467   77.8209 H         1 311601      0.0000 
     46 H          46.8412   58.7536   78.1593 H         1 311601      0.0000 
     47 H          46.4858   59.8147   77.0044 H         1 311601      0.0000 
@<TRIPOS>BOND
     1    7    1 1    
     2   22    1 1    
     3   25    1 1    
     4   26    1 1    
     5   18    2 ar   
     6   20    2 ar   
     7   24    2 1    
     8    6    3 1    
     9   15    3 ar   
    10   21    3 ar   
    11    5    4 1    
    12   14    4 ar   
    13   21    4 ar   
    14   17    5 ar   
    15   18    5 ar   
    16   22    6 am   
    17   23    6 2    
    18    8    7 1    
    19   11    7 1    
    20   12    7 1    
    21   19    8 1    
    22   27    8 1    
    23   28    8 1    
    24   19    9 1    
    25   22    9 1    
    26   29    9 1    
    27   30    9 1    
    28   20   10 1    
    29   39   10 1    
    30   40   10 1    
    31   41   10 1    
    32   42   11 1    
    33   43   11 1    
    34   44   11 1    
    35   45   12 1    
    36   46   12 1    
    37   47   12 1    
    38   14   13 ar   
    39   15   13 ar   
    40   31   13 1    
    41   32   14 1    
    42   33   15 1    
    43   17   16 ar   
    44   20   16 ar   
    45   34   16 1    
    46   35   17 1    
    47   36   18 1    
    48   37   19 1    
    49   38   19 1    
@<TRIPOS>SUBSTRUCTURE
     1 311601      1 GROUP   
@<TRIPOS>SET

