#    Name: 3SJX_1_CAVITY_N1_ALL.mol2
#    Modification time : Tue Mar 11 00:11:55 2014

@<TRIPOS>MOLECULE
3SJX_1_CAVITY_N1_ALL.mol2
  133     0     7     0     0
SMALL
NO_CHARGES


@<TRIPOS>ATOM
      1 CZ         25.2555   44.0061   39.6057 C.ar      5 PHE5        0.0000 
      2 OG         26.0561   44.5769   38.4729 O.2       1 SER1        0.0000 
      3 CZ         23.9927   44.2382   38.8302 C.ar      5 PHE5        0.0000 
      4 OG         24.7933   44.8090   37.6974 O.2       1 SER1        0.0000 
      5 CZ         22.7299   44.4703   38.0547 C.ar      5 PHE5        0.0000 
      6 N          23.5305   45.0411   36.9219 N.2       2 ALA2        0.0000 
      7 CZ         23.1960   42.8585   45.5169 C.ar      5 PHE5        0.0000 
      8 CZ         23.9966   43.4293   44.3841 C.ar      5 PHE5        0.0000 
      9 CA         24.7972   44.0001   43.2513 C.3       6 GLY6        0.0000 
     10 OD1        27.9996   46.2833   38.7201 O.3       3 ASP3        0.0000 
     11 NZ         21.1326   42.5197   45.8741 N.2       4 LYS4        0.0000 
     12 CZ         21.9332   43.0905   44.7413 C.ar      5 PHE5        0.0000 
     13 CZ         22.7338   43.6613   43.6085 C.ar      5 PHE5        0.0000 
     14 CZ         23.5344   44.2321   42.4757 C.ar      5 PHE5        0.0000 
     15 CA         24.3350   44.8029   41.3429 C.3       6 GLY6        0.0000 
     16 CA         25.1356   45.3737   40.2101 C.3       6 GLY6        0.0000 
     17 OD1        25.9362   45.9445   39.0773 O.3       3 ASP3        0.0000 
     18 O          26.7368   46.5153   37.9445 O.2       2 ALA2        0.0000 
     19 NZ         19.8698   42.7518   45.0986 N.2       4 LYS4        0.0000 
     20 CZ         20.6704   43.3226   43.9658 C.ar      5 PHE5        0.0000 
     21 CZ         23.0722   45.0350   40.5674 C.ar      5 PHE5        0.0000 
     22 CZ         23.8728   45.6058   39.4346 C.ar      5 PHE5        0.0000 
     23 CZ         24.6734   46.1766   38.3018 C.ar      5 PHE5        0.0000 
     24 CA         25.4740   46.7474   37.1690 C.3       6 GLY6        0.0000 
     25 OG         19.4076   43.5547   43.1902 O.2       1 SER1        0.0000 
     26 CZ         22.6100   45.8379   38.6591 C.ar      5 PHE5        0.0000 
     27 CZ         23.4106   46.4087   37.5263 C.ar      5 PHE5        0.0000 
     28 NZ         25.9402   45.1356   44.6312 N.2       4 LYS4        0.0000 
     29 O          29.9432   47.9896   38.9672 O.2       2 ALA2        0.0000 
     30 O          23.0762   44.2261   46.1213 O.2       2 ALA2        0.0000 
     31 NZ         23.8768   44.7969   44.9885 N.2       4 LYS4        0.0000 
     32 NZ         24.6774   45.3677   43.8557 N.2       4 LYS4        0.0000 
     33 CA         25.4780   45.9385   42.7229 C.3       6 GLY6        0.0000 
     34 CA         26.2786   46.5093   41.5901 C.3       6 GLY6        0.0000 
     35 OD1        27.0792   47.0801   40.4573 O.3       3 ASP3        0.0000 
     36 OD1        27.8798   47.6509   39.3245 O.3       3 ASP3        0.0000 
     37 O          28.6804   48.2217   38.1917 O.2       2 ALA2        0.0000 
     38 O          21.0128   43.8873   46.4785 O.2       2 ALA2        0.0000 
     39 O          21.8134   44.4581   45.3457 O.2       2 ALA2        0.0000 
     40 DU         22.6140   45.0289   44.2129 H         7 CUB7        0.0000 
     41 DU         23.4146   45.5997   43.0801 H         7 CUB7        0.0000 
     42 DU         24.2152   46.1705   41.9473 H         7 CUB7        0.0000 
     43 CA         25.0158   46.7413   40.8145 C.3       6 GLY6        0.0000 
     44 DU         25.8164   47.3121   39.6817 H         7 CUB7        0.0000 
     45 O          26.6170   47.8829   38.5489 O.2       2 ALA2        0.0000 
     46 NZ         19.7500   44.1194   45.7030 N.2       4 LYS4        0.0000 
     47 DU         20.5506   44.6902   44.5702 H         7 CUB7        0.0000 
     48 OG         21.3512   45.2610   43.4374 O.2       1 SER1        0.0000 
     49 CZ         22.1518   45.8318   42.3046 C.ar      5 PHE5        0.0000 
     50 CZ         22.9524   46.4026   41.1718 C.ar      5 PHE5        0.0000 
     51 CZ         23.7530   46.9734   40.0390 C.ar      5 PHE5        0.0000 
     52 CZ         24.5536   47.5442   38.9062 C.ar      5 PHE5        0.0000 
     53 O          25.3542   48.1150   37.7734 O.2       2 ALA2        0.0000 
     54 O          18.4872   44.3515   44.9274 O.2       2 ALA2        0.0000 
     55 OG         19.2878   44.9223   43.7946 O.2       1 SER1        0.0000 
     56 OG         20.0884   45.4931   42.6618 O.2       1 SER1        0.0000 
     57 CA         26.6209   47.0740   44.1028 C.3       6 GLY6        0.0000 
     58 CZ         27.4215   47.6448   42.9700 C.ar      5 PHE5        0.0000 
     59 CZ         28.2221   48.2156   41.8372 C.ar      5 PHE5        0.0000 
     60 CZ         29.0227   48.7864   40.7044 C.ar      5 PHE5        0.0000 
     61 DU         29.8233   49.3572   39.5716 H         7 CUB7        0.0000 
     62 NZ         23.7569   46.1645   45.5929 N.2       4 LYS4        0.0000 
     63 NZ         24.5575   46.7353   44.4601 N.2       4 LYS4        0.0000 
     64 DU         25.3581   47.3061   43.3273 H         7 CUB7        0.0000 
     65 DU         26.1587   47.8769   42.1945 H         7 CUB7        0.0000 
     66 DU         26.9593   48.4477   41.0617 H         7 CUB7        0.0000 
     67 DU         27.7599   49.0185   39.9289 H         7 CUB7        0.0000 
     68 CA         28.5605   49.5893   38.7961 C.3       6 GLY6        0.0000 
     69 O          21.6935   45.8257   45.9501 O.2       2 ALA2        0.0000 
     70 O          22.4941   46.3965   44.8173 O.2       2 ALA2        0.0000 
     71 DU         23.2947   46.9673   43.6845 H         7 CUB7        0.0000 
     72 DU         24.0953   47.5381   42.5517 H         7 CUB7        0.0000 
     73 CZ         24.8959   48.1089   41.4189 C.ar      5 PHE5        0.0000 
     74 CZ         25.6965   48.6797   40.2861 C.ar      5 PHE5        0.0000 
     75 N          26.4971   49.2505   39.1533 N.2       2 ALA2        0.0000 
     76 O          19.6301   45.4870   46.3074 O.2       2 ALA2        0.0000 
     77 O          20.4307   46.0578   45.1746 O.2       2 ALA2        0.0000 
     78 DU         21.2313   46.6286   44.0418 H         7 CUB7        0.0000 
     79 CZ         22.0319   47.1994   42.9090 C.ar      5 PHE5        0.0000 
     80 CZ         22.8325   47.7702   41.7762 C.ar      5 PHE5        0.0000 
     81 CZ         24.4337   48.9118   39.5106 C.ar      5 PHE5        0.0000 
     82 N          25.2343   49.4826   38.3778 N.2       2 ALA2        0.0000 
     83 N          19.1679   46.2899   44.3990 N.2       2 ALA2        0.0000 
     84 CZ         19.9685   46.8607   43.2662 C.ar      5 PHE5        0.0000 
     85 CZ         26.5010   48.4416   44.7072 C.ar      5 PHE5        0.0000 
     86 CZ         28.9028   50.1540   41.3088 C.ar      5 PHE5        0.0000 
     87 CZ         29.7034   50.7248   40.1760 C.ar      5 PHE5        0.0000 
     88 O          24.4376   48.1029   45.0645 O.2       2 ALA2        0.0000 
     89 O          25.2382   48.6737   43.9317 O.2       2 ALA2        0.0000 
     90 CZ         26.0388   49.2445   42.7989 C.ar      5 PHE5        0.0000 
     91 CZ         26.8394   49.8153   41.6661 C.ar      5 PHE5        0.0000 
     92 CZ         27.6400   50.3861   40.5333 C.ar      5 PHE5        0.0000 
     93 N          28.4406   50.9569   39.4005 N.2       2 ALA2        0.0000 
     94 O          21.5736   47.1933   46.5545 O.2       2 ALA2        0.0000 
     95 O          22.3742   47.7641   45.4217 O.2       2 ALA2        0.0000 
     96 O          23.1748   48.3349   44.2889 O.2       2 ALA2        0.0000 
     97 CZ         23.9754   48.9057   43.1561 C.ar      5 PHE5        0.0000 
     98 CZ         24.7760   49.4765   42.0233 C.ar      5 PHE5        0.0000 
     99 CZ         25.5766   50.0473   40.8905 C.ar      5 PHE5        0.0000 
    100 N          26.3772   50.6181   39.7577 N.2       2 ALA2        0.0000 
    101 O          20.3108   47.4254   45.7790 O.2       2 ALA2        0.0000 
    102 CZ         21.1114   47.9962   44.6462 C.ar      5 PHE5        0.0000 
    103 CZ         21.9120   48.5670   43.5134 C.ar      5 PHE5        0.0000 
    104 N          19.0480   47.6575   45.0034 N.2       2 ALA2        0.0000 
    105 CZ         19.8486   48.2283   43.8706 C.ar      5 PHE5        0.0000 
    106 O          26.3812   49.8092   45.3116 O.2       2 ALA2        0.0000 
    107 O          25.1184   50.0413   44.5361 O.2       2 ALA2        0.0000 
    108 CZ         25.9190   50.6121   43.4033 C.ar      5 PHE5        0.0000 
    109 CZ         26.7196   51.1829   42.2705 C.ar      5 PHE5        0.0000 
    110 CZ         27.5202   51.7537   41.1377 C.ar      5 PHE5        0.0000 
    111 O          23.0550   49.7025   44.8933 O.2       2 ALA2        0.0000 
    112 CA         23.8556   50.2733   43.7605 C.3       6 GLY6        0.0000 
    113 CA         24.6562   50.8441   42.6277 C.3       6 GLY6        0.0000 
    114 CA         25.4568   51.4149   41.4949 C.3       6 GLY6        0.0000 
    115 N          26.2574   51.9857   40.3621 N.2       2 ALA2        0.0000 
    116 O          20.9916   49.3638   45.2506 O.2       2 ALA2        0.0000 
    117 CA         21.7922   49.9346   44.1178 C.3       6 GLY6        0.0000 
    118 OD1        26.2613   51.1768   45.9160 O.3       3 ASP3        0.0000 
    119 CZ         27.0619   51.7476   44.7832 C.ar      5 PHE5        0.0000 
    120 CZ         27.8625   52.3184   43.6504 C.ar      5 PHE5        0.0000 
    121 O          24.9985   51.4089   45.1405 O.2       2 ALA2        0.0000 
    122 CZ         25.7991   51.9797   44.0077 C.ar      5 PHE5        0.0000 
    123 CZ         26.5997   52.5505   42.8749 C.ar      5 PHE5        0.0000 
    124 O          23.7357   51.6409   44.3649 O.2       2 ALA2        0.0000 
    125 N          24.5363   52.2117   43.2321 N.2       2 ALA2        0.0000 
    126 DU         25.3369   52.7825   42.0993 H         7 CUB7        0.0000 
    127 CZ         26.9421   53.1152   45.3876 C.ar      5 PHE5        0.0000 
    128 O          24.8787   52.7765   45.7449 O.2       2 ALA2        0.0000 
    129 DU         25.6793   53.3473   44.6121 H         7 CUB7        0.0000 
    130 DU         26.4799   53.9181   43.4793 H         7 CUB7        0.0000 
    131 N          23.6159   53.0085   44.9693 N.2       2 ALA2        0.0000 
    132 N          24.4165   53.5793   43.8365 N.2       2 ALA2        0.0000 
    133 CA         25.2171   54.1501   42.7037 C.3       6 GLY6        0.0000 
@<TRIPOS>BOND
@<TRIPOS>SUBSTRUCTURE
     1 SER1        2 GROUP   
     2 ALA2        6 GROUP   
     3 ASP3       10 GROUP   
     4 LYS4       11 GROUP   
     5 PHE5        1 GROUP   
     6 GLY6        9 GROUP   
     7 CUB7       40 GROUP   
@<TRIPOS>SET

