#    Name: 3SJX_1_CAVITY_N1_6.mol2
#    Modification time : Tue Mar 11 00:11:55 2014

@<TRIPOS>MOLECULE
3SJX_1_CAVITY_N1_6.mol2
   74     0     6     0     0
SMALL
NO_CHARGES


@<TRIPOS>ATOM
      1 CZ         22.7299   44.4703   38.0547 C.ar      4 PHE5        0.0000 
      2 CZ         23.1960   42.8585   45.5169 C.ar      4 PHE5        0.0000 
      3 CZ         23.9966   43.4293   44.3841 C.ar      4 PHE5        0.0000 
      4 CA         24.7972   44.0001   43.2513 C.3       5 GLY6        0.0000 
      5 NZ         21.1326   42.5197   45.8741 N.2       3 LYS4        0.0000 
      6 CZ         21.9332   43.0905   44.7413 C.ar      4 PHE5        0.0000 
      7 CZ         22.7338   43.6613   43.6085 C.ar      4 PHE5        0.0000 
      8 CZ         23.5344   44.2321   42.4757 C.ar      4 PHE5        0.0000 
      9 CA         24.3350   44.8029   41.3429 C.3       5 GLY6        0.0000 
     10 NZ         19.8698   42.7518   45.0986 N.2       3 LYS4        0.0000 
     11 CZ         20.6704   43.3226   43.9658 C.ar      4 PHE5        0.0000 
     12 CZ         23.0722   45.0350   40.5674 C.ar      4 PHE5        0.0000 
     13 CZ         23.8728   45.6058   39.4346 C.ar      4 PHE5        0.0000 
     14 OG         19.4076   43.5547   43.1902 O.2       1 SER1        0.0000 
     15 CZ         22.6100   45.8379   38.6591 C.ar      4 PHE5        0.0000 
     16 NZ         25.9402   45.1356   44.6312 N.2       3 LYS4        0.0000 
     17 O          23.0762   44.2261   46.1213 O.2       2 ALA2        0.0000 
     18 NZ         23.8768   44.7969   44.9885 N.2       3 LYS4        0.0000 
     19 NZ         24.6774   45.3677   43.8557 N.2       3 LYS4        0.0000 
     20 CA         25.4780   45.9385   42.7229 C.3       5 GLY6        0.0000 
     21 O          21.0128   43.8873   46.4785 O.2       2 ALA2        0.0000 
     22 O          21.8134   44.4581   45.3457 O.2       2 ALA2        0.0000 
     23 DU         22.6140   45.0289   44.2129 H         6 CUB7        0.0000 
     24 DU         23.4146   45.5997   43.0801 H         6 CUB7        0.0000 
     25 DU         24.2152   46.1705   41.9473 H         6 CUB7        0.0000 
     26 CA         25.0158   46.7413   40.8145 C.3       5 GLY6        0.0000 
     27 NZ         19.7500   44.1194   45.7030 N.2       3 LYS4        0.0000 
     28 DU         20.5506   44.6902   44.5702 H         6 CUB7        0.0000 
     29 OG         21.3512   45.2610   43.4374 O.2       1 SER1        0.0000 
     30 CZ         22.1518   45.8318   42.3046 C.ar      4 PHE5        0.0000 
     31 CZ         22.9524   46.4026   41.1718 C.ar      4 PHE5        0.0000 
     32 CZ         23.7530   46.9734   40.0390 C.ar      4 PHE5        0.0000 
     33 O          18.4872   44.3515   44.9274 O.2       2 ALA2        0.0000 
     34 OG         19.2878   44.9223   43.7946 O.2       1 SER1        0.0000 
     35 OG         20.0884   45.4931   42.6618 O.2       1 SER1        0.0000 
     36 CA         26.6209   47.0740   44.1028 C.3       5 GLY6        0.0000 
     37 NZ         23.7569   46.1645   45.5929 N.2       3 LYS4        0.0000 
     38 NZ         24.5575   46.7353   44.4601 N.2       3 LYS4        0.0000 
     39 DU         25.3581   47.3061   43.3273 H         6 CUB7        0.0000 
     40 DU         26.1587   47.8769   42.1945 H         6 CUB7        0.0000 
     41 O          21.6935   45.8257   45.9501 O.2       2 ALA2        0.0000 
     42 O          22.4941   46.3965   44.8173 O.2       2 ALA2        0.0000 
     43 DU         23.2947   46.9673   43.6845 H         6 CUB7        0.0000 
     44 DU         24.0953   47.5381   42.5517 H         6 CUB7        0.0000 
     45 CZ         24.8959   48.1089   41.4189 C.ar      4 PHE5        0.0000 
     46 O          19.6301   45.4870   46.3074 O.2       2 ALA2        0.0000 
     47 O          20.4307   46.0578   45.1746 O.2       2 ALA2        0.0000 
     48 DU         21.2313   46.6286   44.0418 H         6 CUB7        0.0000 
     49 CZ         22.0319   47.1994   42.9090 C.ar      4 PHE5        0.0000 
     50 CZ         22.8325   47.7702   41.7762 C.ar      4 PHE5        0.0000 
     51 N          19.1679   46.2899   44.3990 N.2       2 ALA2        0.0000 
     52 CZ         19.9685   46.8607   43.2662 C.ar      4 PHE5        0.0000 
     53 CZ         26.5010   48.4416   44.7072 C.ar      4 PHE5        0.0000 
     54 O          24.4376   48.1029   45.0645 O.2       2 ALA2        0.0000 
     55 O          25.2382   48.6737   43.9317 O.2       2 ALA2        0.0000 
     56 CZ         26.0388   49.2445   42.7989 C.ar      4 PHE5        0.0000 
     57 O          21.5736   47.1933   46.5545 O.2       2 ALA2        0.0000 
     58 O          22.3742   47.7641   45.4217 O.2       2 ALA2        0.0000 
     59 O          23.1748   48.3349   44.2889 O.2       2 ALA2        0.0000 
     60 CZ         23.9754   48.9057   43.1561 C.ar      4 PHE5        0.0000 
     61 CZ         24.7760   49.4765   42.0233 C.ar      4 PHE5        0.0000 
     62 O          20.3108   47.4254   45.7790 O.2       2 ALA2        0.0000 
     63 CZ         21.1114   47.9962   44.6462 C.ar      4 PHE5        0.0000 
     64 CZ         21.9120   48.5670   43.5134 C.ar      4 PHE5        0.0000 
     65 N          19.0480   47.6575   45.0034 N.2       2 ALA2        0.0000 
     66 CZ         19.8486   48.2283   43.8706 C.ar      4 PHE5        0.0000 
     67 O          26.3812   49.8092   45.3116 O.2       2 ALA2        0.0000 
     68 O          25.1184   50.0413   44.5361 O.2       2 ALA2        0.0000 
     69 O          23.0550   49.7025   44.8933 O.2       2 ALA2        0.0000 
     70 CA         23.8556   50.2733   43.7605 C.3       5 GLY6        0.0000 
     71 O          20.9916   49.3638   45.2506 O.2       2 ALA2        0.0000 
     72 CA         21.7922   49.9346   44.1178 C.3       5 GLY6        0.0000 
     73 O          24.9985   51.4089   45.1405 O.2       2 ALA2        0.0000 
     74 O          23.7357   51.6409   44.3649 O.2       2 ALA2        0.0000 
@<TRIPOS>BOND
@<TRIPOS>SUBSTRUCTURE
     1 SER1       14 GROUP   
     2 ALA2       17 GROUP   
     3 LYS4        5 GROUP   
     4 PHE5        1 GROUP   
     5 GLY6        4 GROUP   
     6 CUB7       23 GROUP   
@<TRIPOS>SET

