#    Name: 3sjx_QRG_1_INTS_M
#    Modification time : Mon Mar 24 17:45:50 2014

@<TRIPOS>MOLECULE
3sjx_QRG_1_INTS_M
   64     0    15     0     0
SMALL
NO_CHARGES


@<TRIPOS>ATOM
      1 N          20.4725   44.7445   48.2085 N.am      2 SEC2        0.0000 
      2 N          19.9380   44.4200   47.0080 N.am     12 SEL2        0.0000 
      3 N          21.0070   45.0690   49.4090 N.am      7 SEP2        0.0000 
      4 N          21.3790   45.1125   47.6165 N.am      2 SEC2        0.0000 
      5 N          22.8200   45.8050   48.2250 N.am      7 SEP2        0.0000 
      6 CA         20.4510   40.6935   46.2825 C.3       5 GLC5        0.0000 
      7 CA         21.1210   42.4200   46.4440 C.3      15 GLL5        0.0000 
      8 CA         19.7810   38.9670   46.1210 C.3      10 GLP5        0.0000 
      9 CA         21.3330   41.8540   48.2615 C.3       5 GLC5        0.0000 
     10 CA         21.5450   41.2880   50.0790 C.3      10 GLP5        0.0000 
     11 CA         22.8845   41.5195   45.8560 C.3       5 GLC5        0.0000 
     12 CA         24.6480   40.6190   45.2680 C.3      10 GLP5        0.0000 
     13 Zn         18.0435   42.2590   42.8490 Zn        4 ZIC7        0.0000 
     14 Zn         18.6100   43.4150   42.4520 Zn       14 ZIL7        0.0000 
     15 Zn         17.4770   41.1030   43.2460 Zn        9 ZIP7        0.0000 
     16 N          19.4665   43.4030   41.4525 N.am      2 SEC2        0.0000 
     17 N          18.6100   43.4150   42.4520 N.am     12 SEL2        0.0000 
     18 N          20.3230   43.3910   40.4530 N.am      7 SEP2        0.0000 
     19 CA         19.7395   47.1020   42.3000 C.3       5 GLC5        0.0000 
     20 CA         19.7640   46.1120   44.0040 C.3      15 GLL5        0.0000 
     21 CA         19.7150   48.0920   40.5960 C.3      10 GLP5        0.0000 
     22 N          22.2345   46.1395   46.8555 N.am      2 SEC2        0.0000 
     23 N          21.6490   46.4740   45.4860 N.am     12 SEL2        0.0000 
     24 NZ         19.8020   47.7295   47.3350 N.4       3 LYC4        0.0000 
     25 NZ         19.6610   47.4450   45.9660 N.4      13 LYL4        0.0000 
     26 NZ         20.0860   49.3060   48.9530 N.4       8 LYP4        0.0000 
     27 N          18.5270   46.8280   46.6000 N.am      2 SEC2        0.0000 
     28 N          19.6610   47.4450   45.9660 N.am     12 SEL2        0.0000 
     29 N          17.3930   46.2110   47.2340 N.am      7 SEP2        0.0000 
     30 N          19.8020   47.7295   47.3350 N.am      2 SEC2        0.0000 
     31 N          19.9430   48.0140   48.7040 N.am      7 SEP2        0.0000 
     32 N          19.9545   48.8135   46.9555 N.am      2 SEC2        0.0000 
     33 N          20.2480   50.1820   47.9450 N.am      7 SEP2        0.0000 
     34 O          16.8470   46.3575   43.4140 O.2       1 ALC1        0.0000 
     35 O          17.1950   45.1260   42.7290 O.2      11 ALL1        0.0000 
     36 O          16.4990   47.5890   44.0990 O.2       6 ALP1        0.0000 
     37 NZ         17.2690   43.7940   38.0740 N.4       3 LYC4        0.0000 
     38 NZ         16.8980   43.8030   39.3950 N.4      13 LYL4        0.0000 
     39 NZ         18.8100   43.2300   36.5010 N.4       8 LYP4        0.0000 
     40 N          17.2690   43.7940   38.0740 N.am      2 SEC2        0.0000 
     41 N          16.8980   43.8030   39.3950 N.am     12 SEL2        0.0000 
     42 N          17.6400   43.7850   36.7530 N.am      7 SEP2        0.0000 
     43 N          18.2360   43.3260   38.4565 N.am      2 SEC2        0.0000 
     44 N          19.5740   42.8490   37.5180 N.am      7 SEP2        0.0000 
     45 N          16.0280   42.8560   39.0920 N.am      2 SEC2        0.0000 
     46 N          15.1580   41.9090   38.7890 N.am      7 SEP2        0.0000 
     47 CA         13.6890   46.4565   42.8450 C.3       5 GLC5        0.0000 
     48 CA         15.1930   45.6700   41.4770 C.3      15 GLL5        0.0000 
     49 CA         12.1850   47.2430   44.2130 C.3      10 GLP5        0.0000 
     50 CA         15.7965   47.6300   42.1360 C.3       5 GLC5        0.0000 
     51 CA         16.4000   49.5900   42.7950 C.3      10 GLP5        0.0000 
     52 CA         15.5970   46.2730   38.7015 C.3       5 GLC5        0.0000 
     53 CA         14.3550   45.3370   40.2740 C.3      15 GLL5        0.0000 
     54 CA         16.8390   47.2090   37.1290 C.3      10 GLP5        0.0000 
     55 CA         11.3430   46.2620   40.0300 C.3       5 GLC5        0.0000 
     56 CA         13.0220   46.6060   40.1300 C.3      15 GLL5        0.0000 
     57 CA          9.6640   45.9180   39.9300 C.3      10 GLP5        0.0000 
     58 CA         12.1120   47.3850   41.7860 C.3       5 GLC5        0.0000 
     59 CA         11.2020   48.1640   43.4420 C.3      10 GLP5        0.0000 
     60 CA         14.7835   47.8615   37.9695 C.3       5 GLC5        0.0000 
     61 CA         13.8510   47.9970   39.4450 C.3      15 GLL5        0.0000 
     62 CA         15.7160   47.7260   36.4940 C.3      10 GLP5        0.0000 
     63 CA         13.6950   49.7245   39.4670 C.3       5 GLC5        0.0000 
     64 CA         13.5390   51.4520   39.4890 C.3      10 GLP5        0.0000 
@<TRIPOS>BOND
@<TRIPOS>SUBSTRUCTURE
     1 ALC1       34 GROUP        1 X    ALC  0     ROOT ALC X 1
     2 SEC2        1 GROUP        1 X    SEC  0     **** SEC X 2
     3 LYC4       24 GROUP        1 X    LYC  0     **** LYC X 4
     4 ZIC7       13 GROUP        1 X    ZIC  0     **** ZIC X 5
     5 GLC5        6 GROUP        1 X    GLC  0     **** GLC X 6
     6 ALP1       36 GROUP        1 Y    ALP  0     ROOT ALP Y 8
     7 SEP2        3 GROUP        1 Y    SEP  0     **** SEP Y 9
     8 LYP4       26 GROUP        1 Y    LYP  0     **** LYP Y 11
     9 ZIP7       15 GROUP        1 Y    ZIP  0     **** ZIP Y 12
    10 GLP5        8 GROUP        1 Y    GLP  0     **** GLP Y 13
    11 ALL1       35 GROUP        1 Z    ALL  0     ROOT ALL Z 15
    12 SEL2        2 GROUP        1 Z    SEL  0     **** SEL Z 16
    13 LYL4       25 GROUP        1 Z    LYL  0     **** LYL Z 18
    14 ZIL7       14 GROUP        1 Z    ZIL  0     **** ZIL Z 19
    15 GLL5        7 GROUP        1 Z    GLL  0     **** GLL Z 20
@<TRIPOS>SET

