#    Name: 3sjx_QRG_1_ligand
#    Modification time : Mon Mar 24 17:45:51 2014

@<TRIPOS>MOLECULE
3sjx_QRG_1_ligand
   36    35     1     0     0
SMALL
NO_CHARGES


@<TRIPOS>ATOM
      1 CAO        20.1760   43.5820   46.1320 C.2       1 QRG1        0.0000 
      2 OAC        19.9380   44.4200   47.0080 O.2       1 QRG1        0.0000 
      3 CAB        21.1210   42.4200   46.4440 C.3       1 QRG1        0.0000 
      4 NAL        19.8450   43.7300   44.8290 N.am      1 QRG1        0.0000 
      5 CAT        18.9800   44.8480   44.3660 C.3       1 QRG1        0.0000 
      6 CAR        18.2740   44.4270   43.0790 C.2       1 QRG1        0.0000 
      7 OAF        18.6100   43.4150   42.4520 O.2       1 QRG1        0.0000 
      8 CAK        19.7640   46.1120   44.0040 C.3       1 QRG1        0.0000 
      9 CAP        20.4100   46.7320   45.2660 C.2       1 QRG1        0.0000 
     10 OAG        21.6490   46.4740   45.4860 O.co2     1 QRG1        0.0000 
     11 OAD        19.6610   47.4450   45.9660 O.co2     1 QRG1        0.0000 
     12 N          17.1950   45.1260   42.7290 N.am      1 QRG1        0.0000 
     13 CA         16.3690   44.6650   41.5660 C.3       1 QRG1        0.0000 
     14 C          17.1610   44.6970   40.2340 C.2       1 QRG1        0.0000 
     15 OXT        16.8980   43.8030   39.3950 O.co2     1 QRG1        0.0000 
     16 CB         15.1930   45.6700   41.4770 C.3       1 QRG1        0.0000 
     17 CG         14.3550   45.3370   40.2740 C.3       1 QRG1        0.0000 
     18 SD         13.0220   46.6060   40.1300 S.3       1 QRG1        0.0000 
     19 CE         13.8510   47.9970   39.4450 C.3       1 QRG1        0.0000 
     20 O          18.0270   45.5810   40.1000 O.co2     1 QRG1        0.0000 
     21 H          20.1710   43.0827   44.0945 H         1 QRG1        0.0000 
     22 H          18.2357   45.0928   45.0859 H         1 QRG1        0.0000 
     23 H          19.0931   46.8401   43.5595 H         1 QRG1        0.0000 
     24 H          20.5473   45.8626   43.2954 H         1 QRG1        0.0000 
     25 H          16.8731   45.9705   43.1960 H         1 QRG1        0.0000 
     26 H          15.9755   43.7045   41.7378 H         1 QRG1        0.0000 
     27 H          15.6000   46.6680   41.3877 H         1 QRG1        0.0000 
     28 H          14.6036   45.5900   42.3802 H         1 QRG1        0.0000 
     29 H          13.7884   44.4503   40.3594 H         1 QRG1        0.0000 
     30 H          14.8467   45.4470   39.3463 H         1 QRG1        0.0000 
     31 H          22.0340   42.7411   46.6957 H         1 QRG1        0.0000 
     32 H          20.7863   41.8629   47.2040 H         1 QRG1        0.0000 
     33 H          21.2309   41.8097   45.6595 H         1 QRG1        0.0000 
     34 H          14.4680   48.4242   40.1059 H         1 QRG1        0.0000 
     35 H          14.4022   47.7461   38.6492 H         1 QRG1        0.0000 
     36 H          13.2082   48.7022   39.1457 H         1 QRG1        0.0000 
@<TRIPOS>BOND
     1    2    1 2    
     2    3    1 1    
     3    4    1 am   
     4   31    3 1    
     5   32    3 1    
     6   33    3 1    
     7    5    4 1    
     8   21    4 1    
     9    6    5 1    
    10    8    5 1    
    11   22    5 1    
    12    7    6 2    
    13   12    6 am   
    14    9    8 1    
    15   23    8 1    
    16   24    8 1    
    17   10    9 ar   
    18   11    9 ar   
    19   13   12 1    
    20   25   12 1    
    21   14   13 1    
    22   16   13 1    
    23   26   13 1    
    24   15   14 ar   
    25   20   14 ar   
    26   17   16 1    
    27   27   16 1    
    28   28   16 1    
    29   18   17 1    
    30   29   17 1    
    31   30   17 1    
    32   19   18 1    
    33   34   19 1    
    34   35   19 1    
    35   36   19 1    
@<TRIPOS>SUBSTRUCTURE
     1 QRG1        1 GROUP   
@<TRIPOS>SET

