#    Name: 1zcb_GDP_1_INTS_M
#    Modification time : Mon Apr  7 16:59:10 2014

@<TRIPOS>MOLECULE
1zcb_GDP_1_INTS_M
   81     0    12     0     0
SMALL
NO_CHARGES


@<TRIPOS>ATOM
      1 NZ        -32.4905   -5.7640   22.5485 N.4       3 LYC4        0.0000 
      2 NZ        -31.8780   -4.6300   22.2210 N.4      11 LYL4        0.0000 
      3 NZ        -33.1030   -6.8980   22.8760 N.4       7 LYP4        0.0000 
      4 N         -31.4620   -4.8090   20.6425 N.am      2 SEC2        0.0000 
      5 N         -31.8780   -4.6300   22.2210 N.am     10 SEL2        0.0000 
      6 N         -31.0460   -4.9880   19.0640 N.am      6 SEP2        0.0000 
      7 N         -32.1100   -3.6310   20.9770 N.am      2 SEC2        0.0000 
      8 N         -32.3420   -2.6320   19.7330 N.am      6 SEP2        0.0000 
      9 N         -32.8415   -3.4540   22.1800 N.am      2 SEC2        0.0000 
     10 N         -33.8050   -2.2780   22.1390 N.am      6 SEP2        0.0000 
     11 N         -32.4905   -5.7640   22.5485 N.am      2 SEC2        0.0000 
     12 N         -33.1030   -6.8980   22.8760 N.am      6 SEP2        0.0000 
     13 N         -32.0465   -2.5140   24.5345 N.am      2 SEC2        0.0000 
     14 N         -30.9740   -3.4630   24.1380 N.am     10 SEL2        0.0000 
     15 N         -33.1190   -1.5650   24.9310 N.am      6 SEP2        0.0000 
     16 NZ        -28.2735   -4.3315   23.1275 N.4       3 LYC4        0.0000 
     17 NZ        -29.5200   -5.0120   22.9950 N.4      11 LYL4        0.0000 
     18 NZ        -25.8440   -4.2070   23.0610 N.4       7 LYP4        0.0000 
     19 N         -29.2760   -5.5985   21.7920 N.am      2 SEC2        0.0000 
     20 N         -29.5200   -5.0120   22.9950 N.am     10 SEL2        0.0000 
     21 N         -29.0320   -6.1850   20.5890 N.am      6 SEP2        0.0000 
     22 N         -28.2735   -4.3315   23.1275 N.am      2 SEC2        0.0000 
     23 N         -27.0270   -3.6510   23.2600 N.am      6 SEP2        0.0000 
     24 N         -31.2400   -2.7840   20.7465 N.am      2 SEC2        0.0000 
     25 N         -30.1380   -2.9360   21.7600 N.am     10 SEL2        0.0000 
     26 N         -31.6580    0.2105   23.4465 N.am      2 SEC2        0.0000 
     27 N         -30.8150   -0.7300   22.6790 N.am     10 SEL2        0.0000 
     28 N         -32.5010    1.1510   24.2140 N.am      6 SEP2        0.0000 
     29 N         -30.8015    0.6575   22.4235 N.am      2 SEC2        0.0000 
     30 N         -30.7880    2.0450   22.1680 N.am      6 SEP2        0.0000 
     31 NZ        -27.8555   -2.5940   23.3210 N.4       3 LYC4        0.0000 
     32 NZ        -28.6840   -1.5370   23.3820 N.4      11 LYL4        0.0000 
     33 N         -27.8555   -2.5940   23.3210 N.am      2 SEC2        0.0000 
     34 N         -28.6840   -1.5370   23.3820 N.am     10 SEL2        0.0000 
     35 CA        -28.2375   -3.2460   19.9785 C.3       4 GLC5        0.0000 
     36 CA        -27.7930   -1.4010   20.2640 C.3      12 GLL5        0.0000 
     37 CA        -28.6820   -5.0910   19.6930 C.3       8 GLP5        0.0000 
     38 CA        -26.3115   -0.0555   17.7600 C.3       4 GLC5        0.0000 
     39 CA        -27.0060   -0.2080   19.7060 C.3      12 GLL5        0.0000 
     40 CA        -25.6170    0.0970   15.8140 C.3       8 GLP5        0.0000 
     41 CA        -25.1895    0.5905   21.6940 C.3       4 GLC5        0.0000 
     42 CA        -26.9440    0.9870   20.6730 C.3      12 GLL5        0.0000 
     43 CA        -23.4350    0.1940   22.7150 C.3       8 GLP5        0.0000 
     44 O         -25.1355    2.9385   21.1140 O.2       1 ALC1        0.0000 
     45 O         -25.6710    1.6450   20.5130 O.2       9 ALL1        0.0000 
     46 O         -24.6000    4.2320   21.7150 O.2       5 ALP1        0.0000 
     47 O         -28.1570    4.1490   21.4625 O.2       1 ALC1        0.0000 
     48 O         -27.6870    3.3160   20.4090 O.2       9 ALL1        0.0000 
     49 O         -28.6270    4.9820   22.5160 O.2       5 ALP1        0.0000 
     50 CA        -26.4865    1.5335   17.5225 C.3       4 GLC5        0.0000 
     51 CA        -28.0600    1.6640   18.7330 C.3      12 GLL5        0.0000 
     52 CA        -24.9130    1.4030   16.3120 C.3       8 GLP5        0.0000 
     53 N         -32.6670    0.8895   17.2435 N.am      2 SEC2        0.0000 
     54 N         -31.5320    1.7550   17.6700 N.am     10 SEL2        0.0000 
     55 N         -33.8020    0.0240   16.8170 N.am      6 SEP2        0.0000 
     56 CA        -31.0305    0.9540   15.3455 C.3       4 GLC5        0.0000 
     57 CA        -30.9440    2.3550   16.6190 C.3      12 GLL5        0.0000 
     58 CA        -31.1170   -0.4470   14.0720 C.3       8 GLP5        0.0000 
     59 CA        -32.8105    2.6370   17.7610 C.3       4 GLC5        0.0000 
     60 CA        -34.6770    2.9190   18.9030 C.3       8 GLP5        0.0000 
     61 N         -33.1885    1.7770   14.1710 N.am      2 SEC2        0.0000 
     62 N         -32.5920    2.8870   15.0540 N.am     10 SEL2        0.0000 
     63 N         -33.7850    0.6670   13.2880 N.am      6 SEP2        0.0000 
     64 N         -33.6735    3.4680   15.8990 N.am      2 SEC2        0.0000 
     65 N         -34.7550    4.0490   16.7440 N.am      6 SEP2        0.0000 
     66 O         -30.8310    3.8325   13.2395 O.2       1 ALC1        0.0000 
     67 O         -30.4630    3.4310   14.5420 O.2       9 ALL1        0.0000 
     68 O         -31.1990    4.2340   11.9370 O.2       5 ALP1        0.0000 
     69 O         -30.0755    4.6075   13.3320 O.2       1 ALC1        0.0000 
     70 O         -29.6880    5.7840   12.1220 O.2       5 ALP1        0.0000 
     71 O         -28.9820    4.9130   13.0400 O.2       1 ALC1        0.0000 
     72 O         -28.2760    4.0420   13.9580 O.2       9 ALL1        0.0000 
     73 CA        -29.5515    0.4560   16.2965 C.3       4 GLC5        0.0000 
     74 CA        -29.5150    2.4190   16.8920 C.3      12 GLL5        0.0000 
     75 CA        -29.5880   -1.5070   15.7010 C.3       8 GLP5        0.0000 
     76 CA        -26.1127   -1.3912   21.3590 C.3       4 GLC5        0.0000 
     77 CA        -24.8260   -1.9780   22.7330 C.3       8 GLP5        0.0000 
     78 CA        -29.0620    3.5547   19.1035 C.3       4 GLC5        0.0000 
     79 CA        -28.0420    1.9290   20.1970 C.3      12 GLL5        0.0000 
     80 CA        -30.0730    5.3130   18.7420 C.3       8 GLP5        0.0000 
     81 CA        -30.1512    3.8500   17.7488 C.3       4 GLC5        0.0000 
@<TRIPOS>BOND
@<TRIPOS>SUBSTRUCTURE
     1 ALC1       44 GROUP        1 X    ALC  0     ROOT ALC X 1
     2 SEC2        4 GROUP        1 X    SEC  0     **** SEC X 2
     3 LYC4        1 GROUP        1 X    LYC  0     **** LYC X 4
     4 GLC5       35 GROUP        1 X    GLC  0     **** GLC X 6
     5 ALP1       46 GROUP        1 Y    ALP  0     ROOT ALP Y 8
     6 SEP2        6 GROUP        1 Y    SEP  0     **** SEP Y 9
     7 LYP4        3 GROUP        1 Y    LYP  0     **** LYP Y 11
     8 GLP5       37 GROUP        1 Y    GLP  0     **** GLP Y 13
     9 ALL1       45 GROUP        1 Z    ALL  0     ROOT ALL Z 15
    10 SEL2        5 GROUP        1 Z    SEL  0     **** SEL Z 16
    11 LYL4        2 GROUP        1 Z    LYL  0     **** LYL Z 18
    12 GLL5       36 GROUP        1 Z    GLL  0     **** GLL Z 20
@<TRIPOS>SET

