#    Name: 1zcb_GDP_1_ligand
#    Modification time : Mon Apr  7 16:59:10 2014

@<TRIPOS>MOLECULE
1zcb_GDP_1_ligand
   40    42     1     0     0
SMALL
NO_CHARGES


@<TRIPOS>ATOM
      1 PB        -30.6500   -3.9820   22.8360 P.3       1 GDP378      0.0000 
      2 O1B       -31.8780   -4.6300   22.2210 O.co2     1 GDP378      0.0000 
      3 O2B       -30.9740   -3.4630   24.1380 O.co2     1 GDP378      0.0000 
      4 O3B       -29.5200   -5.0120   22.9950 O.co2     1 GDP378      0.0000 
      5 O3A       -30.1380   -2.9360   21.7600 O.3       1 GDP378      0.0000 
      6 PA        -29.6190   -1.5030   22.2550 P.3       1 GDP378      0.0000 
      7 O1A       -30.8150   -0.7300   22.6790 O.co2     1 GDP378      0.0000 
      8 O2A       -28.6840   -1.5370   23.3820 O.co2     1 GDP378      0.0000 
      9 O5'       -28.9980   -0.9730   20.9240 O.3       1 GDP378      0.0000 
     10 C5'       -27.7930   -1.4010   20.2640 C.3       1 GDP378      0.0000 
     11 C4'       -27.0060   -0.2080   19.7060 C.3       1 GDP378      0.0000 
     12 O4'       -27.6530    0.2740   18.5360 O.3       1 GDP378      0.0000 
     13 C3'       -26.9440    0.9870   20.6730 C.3       1 GDP378      0.0000 
     14 O3'       -25.6710    1.6450   20.5130 O.3       1 GDP378      0.0000 
     15 C2'       -28.0420    1.9290   20.1970 C.3       1 GDP378      0.0000 
     16 O2'       -27.6870    3.3160   20.4090 O.3       1 GDP378      0.0000 
     17 C1'       -28.0600    1.6640   18.7330 C.3       1 GDP378      0.0000 
     18 N9        -29.3770    1.8550   18.0680 N.pl3     1 GDP378      0.0000 
     19 C8        -30.5850    1.4970   18.5630 C.2       1 GDP378      0.0000 
     20 N7        -31.5320    1.7550   17.6700 N.2       1 GDP378      0.0000 
     21 C5        -30.9440    2.3550   16.6190 C.2       1 GDP378      0.0000 
     22 C6        -31.3840    2.9190   15.3640 C.2       1 GDP378      0.0000 
     23 O6        -32.5920    2.8870   15.0540 O.2       1 GDP378      0.0000 
     24 N1        -30.4630    3.4310   14.5420 N.am      1 GDP378      0.0000 
     25 C2        -29.1490    3.4630   14.8450 C.2       1 GDP378      0.0000 
     26 N2        -28.2760    4.0420   13.9580 N.pl3     1 GDP378      0.0000 
     27 N3        -28.6640    2.9880   15.9880 N.2       1 GDP378      0.0000 
     28 C4        -29.5150    2.4190   16.8920 C.2       1 GDP378      0.0000 
     29 H         -28.0134   -2.0771   19.4234 H         1 GDP378      0.0000 
     30 H         -27.1287   -1.9453   20.9531 H         1 GDP378      0.0000 
     31 H         -26.0022   -0.5161   19.4879 H         1 GDP378      0.0000 
     32 H         -27.1405    0.6665   21.6374 H         1 GDP378      0.0000 
     33 H         -28.9506    1.6491   20.6197 H         1 GDP378      0.0000 
     34 H         -27.3187    2.3014   18.2481 H         1 GDP378      0.0000 
     35 H         -30.7234    1.1071   19.4495 H         1 GDP378      0.0000 
     36 H         -30.7743    3.8318   13.6073 H         1 GDP378      0.0000 
     37 H         -28.6735    4.3743   13.1027 H         1 GDP378      0.0000 
     38 H         -27.3188    4.0809   14.2446 H         1 GDP378      0.0000 
     39 H         -25.8666    2.6187   20.6302 H         1 GDP378      0.0000 
     40 H         -28.2147    3.5986   21.2101 H         1 GDP378      0.0000 
@<TRIPOS>BOND
     1    2    1 ar   
     2    3    1 ar   
     3    4    1 ar   
     4    5    1 1    
     5    6    5 1    
     6    7    6 ar   
     7    8    6 ar   
     8    9    6 1    
     9   10    9 1    
    10   11   10 1    
    11   29   10 1    
    12   30   10 1    
    13   12   11 1    
    14   13   11 1    
    15   31   11 1    
    16   17   12 1    
    17   14   13 1    
    18   15   13 1    
    19   32   13 1    
    20   39   14 1    
    21   16   15 1    
    22   17   15 1    
    23   33   15 1    
    24   40   16 1    
    25   18   17 1    
    26   34   17 1    
    27   19   18 1    
    28   28   18 1    
    29   20   19 2    
    30   35   19 1    
    31   21   20 1    
    32   22   21 1    
    33   28   21 2    
    34   23   22 2    
    35   24   22 am   
    36   25   24 1    
    37   36   24 1    
    38   26   25 1    
    39   27   25 2    
    40   37   26 1    
    41   38   26 1    
    42   28   27 1    
@<TRIPOS>SUBSTRUCTURE
     1 GDP378      1 GROUP   
@<TRIPOS>SET

