#    Name: 2oz5_7XY_4_INTS_M
#    Modification time : Mon Mar 24 18:03:52 2014

@<TRIPOS>MOLECULE
2oz5_7XY_4_INTS_M
   59     0     9     0     0
SMALL
NO_CHARGES


@<TRIPOS>ATOM
      1 CA         41.1805   72.7065    6.5040 C.3       3 GLC5        0.0000 
      2 CA         39.3610   73.3500    6.6280 C.3       9 GLL5        0.0000 
      3 CA         43.0000   72.0630    6.3800 C.3       6 GLP5        0.0000 
      4 CA         37.6305   73.4620    7.8350 C.3       3 GLC5        0.0000 
      5 CA         35.9000   73.5740    9.0420 C.3       6 GLP5        0.0000 
      6 CA         39.0145   71.1840    7.0560 C.3       3 GLC5        0.0000 
      7 CA         38.6680   69.0180    7.4840 C.3       6 GLP5        0.0000 
      8 CA         37.9860   78.8235    5.7845 C.3       3 GLC5        0.0000 
      9 CA         38.5170   76.8800    4.8190 C.3       9 GLL5        0.0000 
     10 CA         37.4550   80.7670    6.7500 C.3       6 GLP5        0.0000 
     11 CA         39.8555   78.4820    2.8355 C.3       3 GLC5        0.0000 
     12 CA         38.9330   76.6630    3.5090 C.3       9 GLL5        0.0000 
     13 CA         40.7780   80.3010    2.1620 C.3       6 GLP5        0.0000 
     14 NZ         37.3380   75.4410   -1.4715 N.4       2 LYC4        0.0000 
     15 NZ         38.9600   75.1880   -1.4210 N.4       8 LYL4        0.0000 
     16 NZ         35.6430   74.4290   -1.9230 N.4       5 LYP4        0.0000 
     17 N          37.8565   74.4445   -1.7485 N.am      1 SEC2        0.0000 
     18 N          38.9600   75.1880   -1.4210 N.am      7 SEL2        0.0000 
     19 N          36.7530   73.7010   -2.0760 N.am      4 SEP2        0.0000 
     20 N          37.3380   75.4410   -1.4715 N.am      1 SEC2        0.0000 
     21 N          35.7160   75.6940   -1.5220 N.am      4 SEP2        0.0000 
     22 NZ         36.7735   76.2590   -1.0175 N.4       2 LYC4        0.0000 
     23 NZ         37.8310   76.8240   -0.5130 N.4       8 LYL4        0.0000 
     24 N          36.7735   76.2590   -1.0175 N.am      1 SEC2        0.0000 
     25 N          37.8310   76.8240   -0.5130 N.am      7 SEL2        0.0000 
     26 CA         41.3605   78.4915    1.8770 C.3       3 GLC5        0.0000 
     27 CA         41.9430   76.6820    1.5920 C.3       9 GLL5        0.0000 
     28 CA         43.7490   76.2375   -1.1380 C.3       3 GLC5        0.0000 
     29 CA         43.2980   74.7510    0.0710 C.3       9 GLL5        0.0000 
     30 CA         44.2000   77.7240   -2.3470 C.3       6 GLP5        0.0000 
     31 CA         45.4550   72.8825    3.6995 C.3       3 GLC5        0.0000 
     32 CA         44.2580   73.8010    2.1390 C.3       9 GLL5        0.0000 
     33 CA         46.6520   71.9640    5.2600 C.3       6 GLP5        0.0000 
     34 CA         36.7545   71.0015    5.4130 C.3       3 GLC5        0.0000 
     35 CA         38.1940   70.8100    3.7820 C.3       9 GLL5        0.0000 
     36 CA         35.3150   71.1930    7.0440 C.3       6 GLP5        0.0000 
     37 CA         38.4310   69.9140    5.6330 C.3       3 GLC5        0.0000 
     38 CA         41.6330   67.1920    2.5975 C.3       3 GLC5        0.0000 
     39 CA         40.8650   67.5070    0.8780 C.3       9 GLL5        0.0000 
     40 CA         42.4010   66.8770    4.3170 C.3       6 GLP5        0.0000 
     41 CA         37.6148   74.9468    3.7173 C.3       3 GLC5        0.0000 
     42 CA         39.6270   74.3930    4.1410 C.3       9 GLL5        0.0000 
     43 CA         35.8090   75.3880    2.6400 C.3       6 GLP5        0.0000 
     44 CA         37.1953   75.8783    3.9680 C.3       3 GLC5        0.0000 
     45 CA         37.6986   75.4751    2.5969 C.3       3 GLC5        0.0000 
     46 CA         42.5081   70.5081    2.6645 C.3       3 GLC5        0.0000 
     47 CA         41.8880   71.0210    0.5080 C.3       9 GLL5        0.0000 
     48 CA         43.1920   70.6170    4.4530 C.3       6 GLP5        0.0000 
     49 CA         37.3455   71.5625   -0.0710 C.3       3 GLC5        0.0000 
     50 CA         38.9810   71.6080    1.2270 C.3       9 GLL5        0.0000 
     51 CA         36.2840   71.2440   -1.6620 C.3       6 GLP5        0.0000 
     52 CA         36.7235   73.6735    2.5453 C.3       3 GLC5        0.0000 
     53 CA         37.8330   72.1540    1.8130 C.3       9 GLL5        0.0000 
     54 CA         36.5098   69.9045    3.4285 C.3       3 GLC5        0.0000 
     55 CA         37.4430   71.7640    3.0880 C.3       9 GLL5        0.0000 
     56 CA         35.2010   68.5220    3.4220 C.3       6 GLP5        0.0000 
     57 CA         38.0235   69.1223   -1.7318 C.3       3 GLC5        0.0000 
     58 CA         39.9140   68.9890   -0.7850 C.3       9 GLL5        0.0000 
     59 CA         36.3160   69.8150   -2.3010 C.3       6 GLP5        0.0000 
@<TRIPOS>BOND
@<TRIPOS>SUBSTRUCTURE
     1 SEC2       17 GROUP        1 X    SEC  0     ROOT SEC X 2
     2 LYC4       14 GROUP        1 X    LYC  0     **** LYC X 4
     3 GLC5        1 GROUP        1 X    GLC  0     **** GLC X 6
     4 SEP2       19 GROUP        1 Y    SEP  0     ROOT SEP Y 9
     5 LYP4       16 GROUP        1 Y    LYP  0     **** LYP Y 11
     6 GLP5        3 GROUP        1 Y    GLP  0     **** GLP Y 13
     7 SEL2       18 GROUP        1 Z    SEL  0     ROOT SEL Z 16
     8 LYL4       15 GROUP        1 Z    LYL  0     **** LYL Z 18
     9 GLL5        2 GROUP        1 Z    GLL  0     **** GLL Z 20
@<TRIPOS>SET

