#    Name: 2oz5_7XY_4_ligand
#    Modification time : Mon Mar 24 18:03:52 2014

@<TRIPOS>MOLECULE
2oz5_7XY_4_ligand
   65    68     1     0     0
SMALL
NO_CHARGES


@<TRIPOS>ATOM
      1 CAV        39.6270   74.3930    4.1410 C.ar      1 7XY278      0.0000 
      2 CBE        39.2140   74.6180    5.4480 C.ar      1 7XY278      0.0000 
      3 CLF        39.3610   73.3500    6.6280 Cl        1 7XY278      0.0000 
      4 CAN        38.6460   75.8570    5.7730 C.ar      1 7XY278      0.0000 
      5 CAM        38.5170   76.8800    4.8190 C.ar      1 7XY278      0.0000 
      6 CAO        38.9330   76.6630    3.5090 C.ar      1 7XY278      0.0000 
      7 CBF        39.4940   75.4080    3.1840 C.ar      1 7XY278      0.0000 
      8 CAY        39.9630   75.0890    1.7610 C.3       1 7XY278      0.0000 
      9 NBL        40.6460   76.2160    1.0660 N.am      1 7XY278      0.0000 
     10 CBD        40.1280   76.7500   -0.0400 C.2       1 7XY278      0.0000 
     11 OAB        40.6620   77.6570   -0.6840 O.2       1 7XY278      0.0000 
     12 CBC        38.8520   76.1360   -0.6130 C.2       1 7XY278      0.0000 
     13 OAE        38.9600   75.1880   -1.4210 O.co2     1 7XY278      0.0000 
     14 OAA        37.8310   76.8240   -0.5130 O.co2     1 7XY278      0.0000 
     15 CAZ        41.9430   76.6820    1.5920 C.3       1 7XY278      0.0000 
     16 CBG        42.8800   75.4940    1.5450 C.2       1 7XY278      0.0000 
     17 SBB        43.2980   74.7510    0.0710 S.3       1 7XY278      0.0000 
     18 CAT        43.4600   74.8240    2.5520 C.2       1 7XY278      0.0000 
     19 CAU        44.2580   73.8010    2.1390 C.2       1 7XY278      0.0000 
     20 CBJ        44.2690   73.6250    0.8060 C.2       1 7XY278      0.0000 
     21 SBM        45.1480   72.3730   -0.0850 S.o2      1 7XY278      0.0000 
     22 OAC        45.9080   72.9850   -1.1880 O.2       1 7XY278      0.0000 
     23 OAD        46.0230   71.6840    0.9040 O.2       1 7XY278      0.0000 
     24 NBA        44.0220   71.3150   -0.7160 N.pl3     1 7XY278      0.0000 
     25 CAW        43.3710   70.5600    0.3820 C.3       1 7XY278      0.0000 
     26 CAX        41.8880   71.0210    0.5080 C.3       1 7XY278      0.0000 
     27 CBK        41.0190   70.0080    1.3070 C.3       1 7XY278      0.0000 
     28 CBI        39.7480   70.6550    1.9250 C.ar      1 7XY278      0.0000 
     29 CAR        38.9810   71.6080    1.2270 C.ar      1 7XY278      0.0000 
     30 CAK        37.8330   72.1540    1.8130 C.ar      1 7XY278      0.0000 
     31 CAH        37.4430   71.7640    3.0880 C.ar      1 7XY278      0.0000 
     32 CAL        38.1940   70.8100    3.7820 C.ar      1 7XY278      0.0000 
     33 CAS        39.3460   70.2620    3.1930 C.ar      1 7XY278      0.0000 
     34 CBH        40.5900   68.8060    0.4330 C.ar      1 7XY278      0.0000 
     35 CAP        39.9140   68.9890   -0.7850 C.ar      1 7XY278      0.0000 
     36 CAI        39.5480   67.8700   -1.5400 C.ar      1 7XY278      0.0000 
     37 CAG        39.8280   66.5750   -1.0890 C.ar      1 7XY278      0.0000 
     38 CAJ        40.4930   66.3850    0.1220 C.ar      1 7XY278      0.0000 
     39 CAQ        40.8650   67.5070    0.8780 C.ar      1 7XY278      0.0000 
     40 H          40.0287   73.4888    3.8717 H         1 7XY278      0.0000 
     41 H          38.3129   76.0240    6.7390 H         1 7XY278      0.0000 
     42 H          38.1164   77.7827    5.0933 H         1 7XY278      0.0000 
     43 H          38.8402   77.3798    2.8000 H         1 7XY278      0.0000 
     44 H          39.0815   74.7637    1.1719 H         1 7XY278      0.0000 
     45 H          40.6402   74.2122    1.8093 H         1 7XY278      0.0000 
     46 H          41.8436   77.0141    2.6136 H         1 7XY278      0.0000 
     47 H          42.3428   77.4726    0.9764 H         1 7XY278      0.0000 
     48 H          43.3260   75.0462    3.5165 H         1 7XY278      0.0000 
     49 H          44.7839   73.2377    2.7753 H         1 7XY278      0.0000 
     50 H          43.9015   71.2817   -1.5990 H         1 7XY278      0.0000 
     51 H          43.8621   70.7509    1.3288 H         1 7XY278      0.0000 
     52 H          43.3741   69.4961    0.1767 H         1 7XY278      0.0000 
     53 H          41.4692   71.1350   -0.4909 H         1 7XY278      0.0000 
     54 H          41.8613   71.9852    1.0136 H         1 7XY278      0.0000 
     55 H          41.6200   69.6149    2.1297 H         1 7XY278      0.0000 
     56 H          39.2676   71.9002    0.2870 H         1 7XY278      0.0000 
     57 H          37.2782   72.8476    1.2928 H         1 7XY278      0.0000 
     58 H          36.6083   72.1716    3.5223 H         1 7XY278      0.0000 
     59 H          37.9074   70.5094    4.7177 H         1 7XY278      0.0000 
     60 H          39.8929   69.5608    3.7154 H         1 7XY278      0.0000 
     61 H          39.6938   69.9292   -1.1127 H         1 7XY278      0.0000 
     62 H          39.0647   68.0006   -2.4424 H         1 7XY278      0.0000 
     63 H          39.5425   65.7653   -1.6520 H         1 7XY278      0.0000 
     64 H          40.7074   65.4468    0.4563 H         1 7XY278      0.0000 
     65 H          41.3509   67.3710    1.7797 H         1 7XY278      0.0000 
@<TRIPOS>BOND
     1    2    1 ar   
     2    7    1 ar   
     3   40    1 1    
     4    3    2 1    
     5    4    2 ar   
     6    5    4 ar   
     7   41    4 1    
     8    6    5 ar   
     9   42    5 1    
    10    7    6 ar   
    11   43    6 1    
    12    8    7 1    
    13    9    8 1    
    14   44    8 1    
    15   45    8 1    
    16   10    9 am   
    17   15    9 1    
    18   11   10 2    
    19   12   10 1    
    20   13   12 ar   
    21   14   12 ar   
    22   16   15 1    
    23   46   15 1    
    24   47   15 1    
    25   17   16 1    
    26   18   16 2    
    27   20   17 1    
    28   19   18 1    
    29   48   18 1    
    30   20   19 2    
    31   49   19 1    
    32   21   20 1    
    33   22   21 2    
    34   23   21 2    
    35   24   21 1    
    36   25   24 1    
    37   50   24 1    
    38   26   25 1    
    39   51   25 1    
    40   52   25 1    
    41   27   26 1    
    42   53   26 1    
    43   54   26 1    
    44   28   27 1    
    45   34   27 1    
    46   55   27 1    
    47   29   28 ar   
    48   33   28 ar   
    49   30   29 ar   
    50   56   29 1    
    51   31   30 ar   
    52   57   30 1    
    53   32   31 ar   
    54   58   31 1    
    55   33   32 ar   
    56   59   32 1    
    57   60   33 1    
    58   35   34 ar   
    59   39   34 ar   
    60   36   35 ar   
    61   61   35 1    
    62   37   36 ar   
    63   62   36 1    
    64   38   37 ar   
    65   63   37 1    
    66   39   38 ar   
    67   64   38 1    
    68   65   39 1    
@<TRIPOS>SUBSTRUCTURE
     1 7XY278      1 GROUP   
@<TRIPOS>SET

