#    Name: 2zxg_S23_1_INTS_M
#    Modification time : Tue Mar 25 11:17:20 2014

@<TRIPOS>MOLECULE
2zxg_S23_1_INTS_M
   71     0    15     0     0
SMALL
NO_CHARGES


@<TRIPOS>ATOM
      1 N          71.4330   44.9100    5.2470 N.am      2 SEC2        0.0000 
      2 N          71.8700   45.1120    6.4610 N.am     12 SEL2        0.0000 
      3 N          70.9960   44.7080    4.0330 N.am      7 SEP2        0.0000 
      4 Zn         74.0225   45.1975    7.6075 Zn        4 ZIC7        0.0000 
      5 Zn         73.4930   46.0300    7.7980 Zn       14 ZIL7        0.0000 
      6 Zn         74.5520   44.3650    7.4170 Zn        9 ZIP7        0.0000 
      7 N          74.0170   46.8790    8.7010 N.am      2 SEC2        0.0000 
      8 N          73.4930   46.0300    7.7980 N.am     12 SEL2        0.0000 
      9 N          74.5410   47.7280    9.6040 N.am      7 SEP2        0.0000 
     10 OD1        71.5085   44.7565   11.4230 O.co2     3 ASC3        0.0000 
     11 OD1        71.4820   44.7800    9.4690 O.co2    13 ASL3        0.0000 
     12 OD1        71.5350   44.7330   13.3770 O.co2     8 ASP3        0.0000 
     13 OD1        70.7535   44.6425   10.6445 O.co2     3 ASC3        0.0000 
     14 OD1        70.0250   44.5050   11.8200 O.co2     8 ASP3        0.0000 
     15 OD1        71.4065   43.1420    9.7140 O.co2     3 ASC3        0.0000 
     16 OD1        71.3310   41.5040    9.9590 O.co2     8 ASP3        0.0000 
     17 OD1        70.9620   43.6935    8.8755 O.co2     3 ASC3        0.0000 
     18 OD1        70.4420   42.6070    8.2820 O.co2     8 ASP3        0.0000 
     19 OD1        72.9700   44.5480    9.8870 O.co2     3 ASC3        0.0000 
     20 OD1        74.4580   44.3160   10.3050 O.co2     8 ASP3        0.0000 
     21 O          70.7535   44.6425   10.6445 O.2       1 ALC1        0.0000 
     22 O          71.4820   44.7800    9.4690 O.2      11 ALL1        0.0000 
     23 O          70.0250   44.5050   11.8200 O.2       6 ALP1        0.0000 
     24 O          71.4065   43.1420    9.7140 O.2       1 ALC1        0.0000 
     25 O          71.3310   41.5040    9.9590 O.2       6 ALP1        0.0000 
     26 O          70.9620   43.6935    8.8755 O.2       1 ALC1        0.0000 
     27 O          70.4420   42.6070    8.2820 O.2       6 ALP1        0.0000 
     28 O          72.9700   44.5480    9.8870 O.2       1 ALC1        0.0000 
     29 O          74.4580   44.3160   10.3050 O.2       6 ALP1        0.0000 
     30 CA         71.9830   47.4195   11.4245 C.3       5 GLC5        0.0000 
     31 CA         71.1840   47.1000    9.7020 C.3      15 GLL5        0.0000 
     32 CA         72.7820   47.7390   13.1470 C.3      10 GLP5        0.0000 
     33 CA         70.0075   47.9800    7.7380 C.3       5 GLC5        0.0000 
     34 CA         71.8480   47.6150    6.7410 C.3      15 GLL5        0.0000 
     35 CA         68.1670   48.3450    8.7350 C.3      10 GLP5        0.0000 
     36 CA         74.6175   48.0200    6.8850 C.3       5 GLC5        0.0000 
     37 CA         72.8780   48.1790    5.7160 C.3      15 GLL5        0.0000 
     38 CA         76.3570   47.8610    8.0540 C.3      10 GLP5        0.0000 
     39 CA         70.9650   49.1490    3.7445 C.3       5 GLC5        0.0000 
     40 CA         72.5780   47.7440    4.2590 C.3      15 GLL5        0.0000 
     41 CA         69.3520   50.5540    3.2300 C.3      10 GLP5        0.0000 
     42 CA         71.9420   47.2275    2.2575 C.3       5 GLC5        0.0000 
     43 CA         71.3060   46.7110    0.2560 C.3      10 GLP5        0.0000 
     44 CA         71.4585   50.0255    2.9650 C.3       5 GLC5        0.0000 
     45 CA         73.5650   49.4970    2.7000 C.3      15 GLL5        0.0000 
     46 N          70.6945   50.6990    5.0685 N.am      2 SEC2        0.0000 
     47 N          72.0740   50.4400    5.5170 N.am     12 SEL2        0.0000 
     48 N          69.3150   50.9580    4.6200 N.am      7 SEP2        0.0000 
     49 CA         71.3725   55.5240    8.7070 C.3       5 GLC5        0.0000 
     50 CA         71.4000   53.3550    8.5390 C.3      15 GLL5        0.0000 
     51 CA         71.3450   57.6930    8.8750 C.3      10 GLP5        0.0000 
     52 CA         69.6690   47.4387    8.9597 C.3       5 GLC5        0.0000 
     53 CA         69.4180   45.4737    9.4477 C.3       5 GLC5        0.0000 
     54 CA         67.6650   44.4150    9.7110 C.3      10 GLP5        0.0000 
     55 CA         73.7848   45.9758    4.1152 C.3       5 GLC5        0.0000 
     56 CA         74.4460   43.9600    4.4430 C.3      10 GLP5        0.0000 
     57 CA         73.7203   47.9378    1.2692 C.3       5 GLC5        0.0000 
     58 CA         74.7960   47.4400    3.0910 C.3      15 GLL5        0.0000 
     59 CA         73.2080   48.0360   -0.6650 C.3      10 GLP5        0.0000 
     60 CA         75.2747   45.7778    3.0095 C.3       5 GLC5        0.0000 
     61 CA         75.2450   43.8950    3.3520 C.3      10 GLP5        0.0000 
     62 CA         74.4825   48.2707    0.6370 C.3       5 GLC5        0.0000 
     63 CA         75.8130   47.8810    2.2430 C.3      15 GLL5        0.0000 
     64 CA         73.6435   48.8790    0.8077 C.3       5 GLC5        0.0000 
     65 CA         74.5930   49.9470    1.8610 C.3      15 GLL5        0.0000 
     66 CA         70.2078   51.4447    8.3969 C.3       5 GLC5        0.0000 
     67 CA         72.0710   51.3010    9.6360 C.3      15 GLL5        0.0000 
     68 CA         68.7420   50.8130    7.4720 C.3      10 GLP5        0.0000 
     69 CA         73.2794   51.4008   10.8433 C.3       5 GLC5        0.0000 
     70 CA         71.1520   52.3490    9.4760 C.3      15 GLL5        0.0000 
     71 CA         74.1240   51.2480   12.4620 C.3      10 GLP5        0.0000 
@<TRIPOS>BOND
@<TRIPOS>SUBSTRUCTURE
     1 ALC1       21 GROUP        1 X    ALC  0     ROOT ALC X 1
     2 SEC2        1 GROUP        1 X    SEC  0     **** SEC X 2
     3 ASC3       10 GROUP        1 X    ASC  0     **** ASC X 3
     4 ZIC7        4 GROUP        1 X    ZIC  0     **** ZIC X 5
     5 GLC5       30 GROUP        1 X    GLC  0     **** GLC X 6
     6 ALP1       23 GROUP        1 Y    ALP  0     ROOT ALP Y 8
     7 SEP2        3 GROUP        1 Y    SEP  0     **** SEP Y 9
     8 ASP3       12 GROUP        1 Y    ASP  0     **** ASP Y 10
     9 ZIP7        6 GROUP        1 Y    ZIP  0     **** ZIP Y 12
    10 GLP5       32 GROUP        1 Y    GLP  0     **** GLP Y 13
    11 ALL1       22 GROUP        1 Z    ALL  0     ROOT ALL Z 15
    12 SEL2        2 GROUP        1 Z    SEL  0     **** SEL Z 16
    13 ASL3       11 GROUP        1 Z    ASL  0     **** ASL Z 17
    14 ZIL7        5 GROUP        1 Z    ZIL  0     **** ZIL Z 19
    15 GLL5       31 GROUP        1 Z    GLL  0     **** GLL Z 20
@<TRIPOS>SET

