#    Name: 2zxg_S23_1_ligand
#    Modification time : Tue Mar 25 11:17:20 2014

@<TRIPOS>MOLECULE
2zxg_S23_1_ligand
   55    56     1     0     0
SMALL
NO_CHARGES


@<TRIPOS>ATOM
      1 O2         71.8700   45.1120    6.4610 O.co2     1 S23901      0.0000 
      2 P          72.1010   46.1770    7.3850 P.3       1 S23901      0.0000 
      3 O1         73.4930   46.0300    7.7980 O.co2     1 S23901      0.0000 
      4 C1         71.1580   45.9650    8.6670 C.3       1 S23901      0.0000 
      5 N1         71.4820   44.7800    9.4690 N.4       1 S23901      0.0000 
      6 C2         71.1840   47.1000    9.7020 C.3       1 S23901      0.0000 
      7 C3         71.8480   47.6150    6.7410 C.3       1 S23901      0.0000 
      8 C4         72.8780   48.1790    5.7160 C.3       1 S23901      0.0000 
      9 C6         72.5780   47.7440    4.2590 C.3       1 S23901      0.0000 
     10 C7         73.6690   48.2390    3.3160 C.ar      1 S23901      0.0000 
     11 C8         74.7960   47.4400    3.0910 C.ar      1 S23901      0.0000 
     12 C10        75.8130   47.8810    2.2430 C.ar      1 S23901      0.0000 
     13 C12        75.7010   49.1300    1.6350 C.ar      1 S23901      0.0000 
     14 C11        74.5930   49.9470    1.8610 C.ar      1 S23901      0.0000 
     15 C9         73.5650   49.4970    2.7000 C.ar      1 S23901      0.0000 
     16 C5         73.0180   49.6960    5.7370 C.2       1 S23901      0.0000 
     17 O3         72.0740   50.4400    5.5170 O.2       1 S23901      0.0000 
     18 N2         74.2500   50.1710    5.9820 N.am      1 S23901      0.0000 
     19 C13        74.6180   51.5710    5.8030 C.3       1 S23901      0.0000 
     20 C14        75.9130   51.6740    5.0440 C.2       1 S23901      0.0000 
     21 O4         76.0940   52.6740    4.3060 O.co2     1 S23901      0.0000 
     22 O5         76.7570   50.7600    5.1650 O.co2     1 S23901      0.0000 
     23 C15        74.7830   52.2830    7.1470 C.3       1 S23901      0.0000 
     24 C16        73.5060   52.2970    7.9640 C.ar      1 S23901      0.0000 
     25 C17        72.5770   53.3280    7.7840 C.ar      1 S23901      0.0000 
     26 C19        71.4000   53.3550    8.5390 C.ar      1 S23901      0.0000 
     27 C21        71.1520   52.3490    9.4760 C.ar      1 S23901      0.0000 
     28 C20        72.0710   51.3010    9.6360 C.ar      1 S23901      0.0000 
     29 C18        73.2580   51.2820    8.8930 C.ar      1 S23901      0.0000 
     30 H          70.1266   45.8781    8.3152 H         1 S23901      0.0000 
     31 H          71.7480   48.3410    7.5825 H         1 S23901      0.0000 
     32 H          70.8423   47.5886    6.2583 H         1 S23901      0.0000 
     33 H          73.8682   47.7532    5.9674 H         1 S23901      0.0000 
     34 H          71.6203   48.1601    3.9615 H         1 S23901      0.0000 
     35 H          72.5267   46.6601    4.2228 H         1 S23901      0.0000 
     36 H          74.8733   46.5251    3.5530 H         1 S23901      0.0000 
     37 H          76.6312   47.2933    2.0702 H         1 S23901      0.0000 
     38 H          76.4535   49.4581    1.0039 H         1 S23901      0.0000 
     39 H          74.5291   50.8664    1.4196 H         1 S23901      0.0000 
     40 H          72.7420   50.0808    2.8641 H         1 S23901      0.0000 
     41 H          75.0190   49.5423    6.3204 H         1 S23901      0.0000 
     42 H          73.8536   52.0957    5.2419 H         1 S23901      0.0000 
     43 H          75.1091   53.3154    6.9633 H         1 S23901      0.0000 
     44 H          75.5755   51.7817    7.7185 H         1 S23901      0.0000 
     45 H          72.7605   54.0672    7.0950 H         1 S23901      0.0000 
     46 H          70.7216   54.1112    8.4046 H         1 S23901      0.0000 
     47 H          70.3017   52.3740   10.0464 H         1 S23901      0.0000 
     48 H          71.8713   50.5448   10.3013 H         1 S23901      0.0000 
     49 H          73.9376   50.5309    9.0297 H         1 S23901      0.0000 
     50 H          70.8703   44.6844   10.2543 H         1 S23901      0.0000 
     51 H          71.4069   43.9381    8.9347 H         1 S23901      0.0000 
     52 H          72.4150   44.8176    9.8271 H         1 S23901      0.0000 
     53 H          72.1018   47.2443   10.0719 H         1 S23901      0.0000 
     54 H          70.8870   47.9695    9.3073 H         1 S23901      0.0000 
     55 H          70.5821   46.9093   10.4775 H         1 S23901      0.0000 
@<TRIPOS>BOND
     1    2    1 ar   
     2    3    2 ar   
     3    4    2 1    
     4    7    2 1    
     5    5    4 1    
     6    6    4 1    
     7   30    4 1    
     8   50    5 1    
     9   51    5 1    
    10   52    5 1    
    11   53    6 1    
    12   54    6 1    
    13   55    6 1    
    14    8    7 1    
    15   31    7 1    
    16   32    7 1    
    17    9    8 1    
    18   16    8 1    
    19   33    8 1    
    20   10    9 1    
    21   34    9 1    
    22   35    9 1    
    23   11   10 ar   
    24   15   10 ar   
    25   12   11 ar   
    26   36   11 1    
    27   13   12 ar   
    28   37   12 1    
    29   14   13 ar   
    30   38   13 1    
    31   15   14 ar   
    32   39   14 1    
    33   40   15 1    
    34   17   16 2    
    35   18   16 am   
    36   19   18 1    
    37   41   18 1    
    38   20   19 1    
    39   23   19 1    
    40   42   19 1    
    41   21   20 ar   
    42   22   20 ar   
    43   24   23 1    
    44   43   23 1    
    45   44   23 1    
    46   25   24 ar   
    47   29   24 ar   
    48   26   25 ar   
    49   45   25 1    
    50   27   26 ar   
    51   46   26 1    
    52   28   27 ar   
    53   47   27 1    
    54   29   28 ar   
    55   48   28 1    
    56   49   29 1    
@<TRIPOS>SUBSTRUCTURE
     1 S23901      1 GROUP   
@<TRIPOS>SET

