#    Name: 1Z9Y_1_CAVITY_N1_ALL.mol2
#    Modification time : Mon Mar 10 22:21:51 2014

@<TRIPOS>MOLECULE
1Z9Y_1_CAVITY_N1_ALL.mol2
   71     0     6     0     0
SMALL
NO_CHARGES


@<TRIPOS>ATOM
      1 N          22.0284    6.3632   12.0002 N.2       2 ALA2        0.0000 
      2 CA         18.3577    8.3804   15.7361 C.3       5 GLY6        0.0000 
      3 CZ         17.2343    9.2935   15.3438 C.ar      4 PHE5        0.0000 
      4 CA         19.6281    7.0341   14.6999 C.3       5 GLY6        0.0000 
      5 CA         18.5047    7.9473   14.3075 C.3       5 GLY6        0.0000 
      6 CZ         17.3812    8.8605   13.9152 C.ar      4 PHE5        0.0000 
      7 CZ         16.2577    9.7736   13.5228 C.ar      4 PHE5        0.0000 
      8 N          19.7751    6.6011   13.2713 N.2       2 ALA2        0.0000 
      9 DU         18.6516    7.5142   12.8790 H         6 CUB7        0.0000 
     10 DU         17.5281    8.4274   12.4866 H         6 CUB7        0.0000 
     11 CZ         16.4047    9.3405   12.0942 C.ar      4 PHE5        0.0000 
     12 N          19.9220    6.1680   11.8427 N.2       2 ALA2        0.0000 
     13 DU         18.7985    7.0811   11.4504 H         6 CUB7        0.0000 
     14 DU         17.6750    7.9943   11.0580 H         6 CUB7        0.0000 
     15 CA         20.0689    5.7349   10.4141 C.3       5 GLY6        0.0000 
     16 CA         20.2158    5.3018    8.9856 C.3       5 GLY6        0.0000 
     17 CA         16.1044    8.6182   17.0073 C.3       5 GLY6        0.0000 
     18 CA         17.3748    7.2720   15.9710 C.3       5 GLY6        0.0000 
     19 CZ         16.2513    8.1851   15.5787 C.ar      4 PHE5        0.0000 
     20 CA         18.6452    5.9257   14.9348 C.3       5 GLY6        0.0000 
     21 CA         17.5217    6.8389   14.5425 C.3       5 GLY6        0.0000 
     22 CZ         16.3982    7.7521   14.1501 C.ar      4 PHE5        0.0000 
     23 CZ         15.2748    8.6652   13.7577 C.ar      4 PHE5        0.0000 
     24 OG         18.7921    5.4926   13.5062 O.2       1 SER1        0.0000 
     25 DU         17.6686    6.4058   13.1139 H         6 CUB7        0.0000 
     26 O          16.5451    7.3190   12.7215 O.2       2 ALA2        0.0000 
     27 O          15.4217    8.2321   12.3291 O.2       2 ALA2        0.0000 
     28 O          14.2982    9.1453   11.9368 O.2       2 ALA2        0.0000 
     29 OG         18.9390    5.0596   12.0777 O.2       1 SER1        0.0000 
     30 DU         17.8155    5.9727   11.6853 H         6 CUB7        0.0000 
     31 O          16.6921    6.8859   11.2929 O.2       2 ALA2        0.0000 
     32 O          15.5686    7.7991   10.9005 O.2       2 ALA2        0.0000 
     33 N          17.9625    5.5397   10.2567 N.2       2 ALA2        0.0000 
     34 O          16.8390    6.4528    9.8643 O.2       2 ALA2        0.0000 
     35 O          15.7155    7.3660    9.4720 O.2       2 ALA2        0.0000 
     36 O          18.1094    5.1066    8.8281 O.2       2 ALA2        0.0000 
     37 CA         15.1214    7.5098   17.2422 C.3       5 GLY6        0.0000 
     38 CA         16.3918    6.1636   16.2060 C.3       5 GLY6        0.0000 
     39 CA         15.2683    7.0767   15.8136 C.3       5 GLY6        0.0000 
     40 CA         14.1449    7.9899   15.4212 C.3       5 GLY6        0.0000 
     41 OG         17.6622    4.8173   15.1698 O.2       1 SER1        0.0000 
     42 DU         16.5387    5.7305   14.7774 H         6 CUB7        0.0000 
     43 O          15.4152    6.6436   14.3850 O.2       2 ALA2        0.0000 
     44 CA         14.2918    7.5568   13.9926 C.3       5 GLY6        0.0000 
     45 OG         16.6856    5.2974   13.3488 O.2       1 SER1        0.0000 
     46 O          15.5622    6.2106   12.9564 O.2       2 ALA2        0.0000 
     47 N          17.9560    3.9512   12.3126 N.2       2 ALA2        0.0000 
     48 O          16.8326    4.8643   11.9202 O.2       2 ALA2        0.0000 
     49 N          16.9795    4.4312   10.4916 N.2       2 ALA2        0.0000 
     50 O          15.8560    5.3444   10.0993 O.2       2 ALA2        0.0000 
     51 CA         15.2619    5.4882   17.8695 C.3       5 GLY6        0.0000 
     52 CA         14.1384    6.4014   17.4771 C.3       5 GLY6        0.0000 
     53 CA         16.5323    4.1420   16.8333 C.3       5 GLY6        0.0000 
     54 CA         15.4088    5.0551   16.4409 C.3       5 GLY6        0.0000 
     55 CA         14.2854    5.9683   16.0485 C.3       5 GLY6        0.0000 
     56 OG         16.6792    3.7089   15.4047 O.2       1 SER1        0.0000 
     57 DU         15.5557    4.6221   15.0123 H         6 CUB7        0.0000 
     58 CA         14.4323    5.5352   14.6199 C.3       5 GLY6        0.0000 
     59 OG         16.8261    3.2758   13.9761 O.2       1 SER1        0.0000 
     60 O          15.7027    4.1890   13.5837 O.2       2 ALA2        0.0000 
     61 N          16.9730    2.8427   12.5475 N.2       2 ALA2        0.0000 
     62 O          15.8496    3.7559   12.1551 O.2       2 ALA2        0.0000 
     63 N          15.9965    3.3228   10.7265 N.2       2 ALA2        0.0000 
     64 CA         15.4024    3.4666   18.4968 C.3       5 GLY6        0.0000 
     65 CA         14.2789    4.3798   18.1044 C.3       5 GLY6        0.0000 
     66 OD1        15.5493    3.0336   17.0682 O.3       3 ASP3        0.0000 
     67 CA         14.4258    3.9467   16.6758 C.3       5 GLY6        0.0000 
     68 OD1        15.6962    2.6005   15.6396 O.3       3 ASP3        0.0000 
     69 N          14.5728    3.5137   15.2472 N.2       2 ALA2        0.0000 
     70 N          15.8432    2.1674   14.2110 N.2       2 ALA2        0.0000 
     71 N          15.9901    1.7343   12.7824 N.2       2 ALA2        0.0000 
@<TRIPOS>BOND
@<TRIPOS>SUBSTRUCTURE
     1 SER1       24 GROUP   
     2 ALA2        1 GROUP   
     3 ASP3       66 GROUP   
     4 PHE5        3 GROUP   
     5 GLY6        2 GROUP   
     6 CUB7        9 GROUP   
@<TRIPOS>SET

