#    Name: 1z9y_FUN_1_INTS_M
#    Modification time : Tue Mar 25 11:37:41 2014

@<TRIPOS>MOLECULE
1z9y_FUN_1_INTS_M
   51     0    12     0     0
SMALL
NO_CHARGES


@<TRIPOS>ATOM
      1 O          16.5415    0.5080   16.8960 O.2       1 ALC1        0.0000 
      2 O          15.6380    1.4270   16.1840 O.2       9 ALL1        0.0000 
      3 O          17.4450   -0.4110   17.6080 O.2       5 ALP1        0.0000 
      4 Zn         15.0150    0.7770   15.7475 Zn        3 ZIC7        0.0000 
      5 Zn         15.6380    1.4270   16.1840 Zn       11 ZIL7        0.0000 
      6 Zn         14.3920    0.1270   15.3110 Zn        7 ZIP7        0.0000 
      7 N          17.0445    2.4700   18.5695 N.am      2 SEC2        0.0000 
      8 N          15.7130    2.9170   18.0870 N.am     10 SEL2        0.0000 
      9 N          18.3760    2.0230   19.0520 N.am      6 SEP2        0.0000 
     10 CA         13.0005    6.7265   16.4585 C.3       4 GLC5        0.0000 
     11 CA         14.4520    5.8080   17.3370 C.3      12 GLL5        0.0000 
     12 CA         11.5490    7.6450   15.5800 C.3       8 GLP5        0.0000 
     13 CA         14.4740    7.6495   18.1175 C.3       4 GLC5        0.0000 
     14 CA         14.4960    9.4910   18.8980 C.3       8 GLP5        0.0000 
     15 CA         12.9905    5.3685   18.2780 C.3       4 GLC5        0.0000 
     16 CA         11.5290    4.9290   19.2190 C.3       8 GLP5        0.0000 
     17 CA         16.1705    6.4900   18.2370 C.3       4 GLC5        0.0000 
     18 CA         17.8890    7.1720   19.1370 C.3       8 GLP5        0.0000 
     19 CA         13.5930    6.9985   15.2905 C.3       4 GLC5        0.0000 
     20 CA         15.6370    6.3520   15.0010 C.3      12 GLL5        0.0000 
     21 CA         15.5800    9.8230   14.1000 C.3       4 GLC5        0.0000 
     22 CA         16.4230    8.4030   13.1460 C.3      12 GLL5        0.0000 
     23 CA         14.7370   11.2430   15.0540 C.3       8 GLP5        0.0000 
     24 CA         18.5485    7.9920   15.7320 C.3       4 GLC5        0.0000 
     25 CA         17.4210    9.0220   14.0850 C.3      12 GLL5        0.0000 
     26 CA         19.6760    6.9620   17.3790 C.3       8 GLP5        0.0000 
     27 CA         20.8405    8.8460   15.2065 C.3       4 GLC5        0.0000 
     28 CA         19.1450    9.9670   15.0190 C.3      12 GLL5        0.0000 
     29 CA         22.5360    7.7250   15.3940 C.3       8 GLP5        0.0000 
     30 CA         17.3040   11.1985   16.9195 C.3       4 GLC5        0.0000 
     31 CA         18.1450    9.7210   15.8700 C.3      12 GLL5        0.0000 
     32 CA         16.4630   12.6760   17.9690 C.3       8 GLP5        0.0000 
     33 CA         17.9905    2.2415   14.3655 C.3       4 GLC5        0.0000 
     34 CA         16.3160    3.6480   14.5140 C.3      12 GLL5        0.0000 
     35 CA         19.6650    0.8350   14.2170 C.3       8 GLP5        0.0000 
     36 N          18.5540    3.6090   10.9410 N.am      2 SEC2        0.0000 
     37 N          17.8720    5.0500   11.6410 N.am     10 SEL2        0.0000 
     38 N          19.2360    2.1680   10.2410 N.am      6 SEP2        0.0000 
     39 N          18.5060    2.5585   11.2825 N.am      2 SEC2        0.0000 
     40 N          17.7760    2.9490   12.3240 N.am     10 SEL2        0.0000 
     41 N          18.6965    3.0435   13.5195 N.am      2 SEC2        0.0000 
     42 N          19.6170    3.1380   14.7150 N.am      6 SEP2        0.0000 
     43 CA         13.4307    4.9202   15.3785 C.3       4 GLC5        0.0000 
     44 CA         15.6100    3.9730   15.6750 C.3      12 GLL5        0.0000 
     45 CA         11.4100    5.1940   14.9770 C.3       8 GLP5        0.0000 
     46 CA         17.0540    6.0180   16.8315 C.3       4 GLC5        0.0000 
     47 CA         15.2930    5.3200   15.8850 C.3      12 GLL5        0.0000 
     48 CA         18.6430    6.2000   18.2200 C.3       8 GLP5        0.0000 
     49 CA         19.1605    8.4030   16.4118 C.3       4 GLC5        0.0000 
     50 CA         19.9210   10.5370   17.0688 C.3       4 GLC5        0.0000 
     51 CA         21.1970   11.2300   18.6930 C.3       8 GLP5        0.0000 
@<TRIPOS>BOND
@<TRIPOS>SUBSTRUCTURE
     1 ALC1        1 GROUP        1 X    ALC  0     ROOT ALC X 1
     2 SEC2        7 GROUP        1 X    SEC  0     **** SEC X 2
     3 ZIC7        4 GROUP        1 X    ZIC  0     **** ZIC X 5
     4 GLC5       10 GROUP        1 X    GLC  0     **** GLC X 6
     5 ALP1        3 GROUP        1 Y    ALP  0     ROOT ALP Y 8
     6 SEP2        9 GROUP        1 Y    SEP  0     **** SEP Y 9
     7 ZIP7        6 GROUP        1 Y    ZIP  0     **** ZIP Y 12
     8 GLP5       12 GROUP        1 Y    GLP  0     **** GLP Y 13
     9 ALL1        2 GROUP        1 Z    ALL  0     ROOT ALL Z 15
    10 SEL2        8 GROUP        1 Z    SEL  0     **** SEL Z 16
    11 ZIL7        5 GROUP        1 Z    ZIL  0     **** ZIL Z 19
    12 GLL5       11 GROUP        1 Z    GLL  0     **** GLL Z 20
@<TRIPOS>SET

