#    Name: 1z9y_FUN_1_ligand
#    Modification time : Tue Mar 25 11:37:41 2014

@<TRIPOS>MOLECULE
1z9y_FUN_1_ligand
   30    31     1     0     0
SMALL
NO_CHARGES


@<TRIPOS>ATOM
      1 N1         15.6380    1.4270   16.1840 N.pl3     1 FUN500      0.0000 
      2 S1         15.1370    2.6790   16.7840 S.o2      1 FUN500      0.0000 
      3 O1         13.6590    2.6160   16.7330 O.2       1 FUN500      0.0000 
      4 O2         15.7130    2.9170   18.0870 O.2       1 FUN500      0.0000 
      5 C1         15.6100    3.9730   15.6750 C.ar      1 FUN500      0.0000 
      6 C2         15.2930    5.3200   15.8850 C.ar      1 FUN500      0.0000 
      7 CL1        14.4520    5.8080   17.3370 Cl        1 FUN500      0.0000 
      8 C3         15.6370    6.3520   15.0010 C.ar      1 FUN500      0.0000 
      9 C4         16.4040    6.0270   13.8880 C.ar      1 FUN500      0.0000 
     10 N2         16.7790    6.9930   12.9360 N.pl3     1 FUN500      0.0000 
     11 C5         16.4230    8.4030   13.1460 C.3       1 FUN500      0.0000 
     12 C6         17.4210    9.0220   14.0850 C.2       1 FUN500      0.0000 
     13 C7         18.6220    9.4820   13.7380 C.2       1 FUN500      0.0000 
     14 C8         19.1450    9.9670   15.0190 C.2       1 FUN500      0.0000 
     15 C9         18.1450    9.7210   15.8700 C.2       1 FUN500      0.0000 
     16 O3         17.0770    9.0800   15.3780 O.3       1 FUN500      0.0000 
     17 C10        16.6950    4.6740   13.6520 C.ar      1 FUN500      0.0000 
     18 C11        16.3160    3.6480   14.5140 C.ar      1 FUN500      0.0000 
     19 C12        17.4990    4.2320   12.4480 C.2       1 FUN500      0.0000 
     20 O4         17.8720    5.0500   11.6410 O.co2     1 FUN500      0.0000 
     21 O5         17.7760    2.9490   12.3240 O.co2     1 FUN500      0.0000 
     22 H          16.5024    1.0799   16.5476 H         1 FUN500      0.0000 
     23 H          15.3339    7.3021   15.1724 H         1 FUN500      0.0000 
     24 H          17.2926    6.7453   12.1005 H         1 FUN500      0.0000 
     25 H          15.4267    8.4843   13.5803 H         1 FUN500      0.0000 
     26 H          16.4387    8.9453   12.2007 H         1 FUN500      0.0000 
     27 H          19.0727    9.5242   12.9516 H         1 FUN500      0.0000 
     28 H          19.9734   10.3382   15.1251 H         1 FUN500      0.0000 
     29 H          18.1913   10.0083   16.8524 H         1 FUN500      0.0000 
     30 H          16.5479    2.6794   14.3041 H         1 FUN500      0.0000 
@<TRIPOS>BOND
     1    2    1 1    
     2   22    1 1    
     3    3    2 2    
     4    4    2 2    
     5    5    2 1    
     6    6    5 ar   
     7   18    5 ar   
     8    7    6 1    
     9    8    6 ar   
    10    9    8 ar   
    11   23    8 1    
    12   10    9 1    
    13   17    9 ar   
    14   11   10 1    
    15   24   10 1    
    16   12   11 1    
    17   25   11 1    
    18   26   11 1    
    19   13   12 2    
    20   16   12 1    
    21   14   13 1    
    22   27   13 1    
    23   15   14 2    
    24   28   14 1    
    25   16   15 1    
    26   29   15 1    
    27   18   17 ar   
    28   19   17 1    
    29   30   18 1    
    30   20   19 ar   
    31   21   19 ar   
@<TRIPOS>SUBSTRUCTURE
     1 FUN500      1 GROUP   
@<TRIPOS>SET

