#    Name: 3ecg_065_1_INTS_M
#    Modification time : Tue Mar 25 01:28:15 2014

@<TRIPOS>MOLECULE
3ecg_065_1_INTS_M
   95     0     9     0     0
SMALL
NO_CHARGES


@<TRIPOS>ATOM
      1 CA         13.6670    5.4685   19.3295 C.3       3 GLC5        0.0000 
      2 CA         15.4450    6.6070   19.7660 C.3       9 GLL5        0.0000 
      3 CA         11.8890    4.3300   18.8930 C.3       6 GLP5        0.0000 
      4 N          14.2815    4.5170   18.8955 N.am      2 SEC2        0.0000 
      5 N          14.6370    5.5610   20.0490 N.am      8 SEL2        0.0000 
      6 N          13.9260    3.4730   17.7420 N.am      5 SEP2        0.0000 
      7 CA         15.3395    3.3615   20.4090 C.3       3 GLC5        0.0000 
      8 CA         14.9870    5.1280   21.3730 C.3       9 GLL5        0.0000 
      9 CA         15.6920    1.5950   19.4450 C.3       6 GLP5        0.0000 
     10 CA         13.4380    4.7290   20.1330 C.3       3 GLC5        0.0000 
     11 CA         14.1540    6.6970   22.6425 C.3       3 GLC5        0.0000 
     12 CA         13.3210    8.2660   23.9120 C.3       6 GLP5        0.0000 
     13 CA         14.7950    7.5695   22.3990 C.3       3 GLC5        0.0000 
     14 CA         16.2690    6.8730   20.8860 C.3       9 GLL5        0.0000 
     15 CA         16.1835    9.7800   17.2445 C.3       3 GLC5        0.0000 
     16 CA         16.4100    8.3620   18.5370 C.3       9 GLL5        0.0000 
     17 CA         15.9570   11.1980   15.9520 C.3       6 GLP5        0.0000 
     18 CA         22.9190    5.0390   19.4230 C.3       3 GLC5        0.0000 
     19 CA         22.3560    6.5500   20.4080 C.3       9 GLL5        0.0000 
     20 CA         23.4820    3.5280   18.4380 C.3       6 GLP5        0.0000 
     21 CA         22.4360    5.1075   21.6145 C.3       3 GLC5        0.0000 
     22 CA         22.5160    3.6650   22.8210 C.3       6 GLP5        0.0000 
     23 CA         21.2760    9.7515   22.0630 C.3       3 GLC5        0.0000 
     24 CA         22.5680    9.0450   20.3800 C.3       9 GLL5        0.0000 
     25 CA         19.9840   10.4580   23.7460 C.3       6 GLP5        0.0000 
     26 CA         23.6460   10.6275   21.3145 C.3       3 GLC5        0.0000 
     27 CA         24.7240   12.2100   22.2490 C.3       6 GLP5        0.0000 
     28 CA         18.3545    7.4010   16.5970 C.3       3 GLC5        0.0000 
     29 CA         19.8280    8.7590   17.3100 C.3       9 GLL5        0.0000 
     30 CA         16.8810    6.0430   15.8840 C.3       6 GLP5        0.0000 
     31 N          22.1145    8.1390   14.8125 N.am      2 SEC2        0.0000 
     32 N          21.2550    9.0740   15.3430 N.am      8 SEL2        0.0000 
     33 N          22.9740    7.2040   14.2820 N.am      5 SEP2        0.0000 
     34 O          20.1055    8.8850   14.8125 O.2       1 ALC1        0.0000 
     35 O          21.2550    9.0740   15.3430 O.2       7 ALL1        0.0000 
     36 O          18.9560    8.6960   14.2820 O.2       4 ALP1        0.0000 
     37 O          22.2205   11.6600   14.7700 O.2       1 ALC1        0.0000 
     38 O          22.1420   11.6790   16.3930 O.2       7 ALL1        0.0000 
     39 O          22.2990   11.6410   13.1470 O.2       4 ALP1        0.0000 
     40 CA         28.3025   13.7715   15.8465 C.3       3 GLC5        0.0000 
     41 CA         26.3530   13.3550   16.7310 C.3       9 GLL5        0.0000 
     42 CA         30.2520   14.1880   14.9620 C.3       6 GLP5        0.0000 
     43 CA         27.7710   12.8035   18.0065 C.3       3 GLC5        0.0000 
     44 CA         29.1890   12.2520   19.2820 C.3       6 GLP5        0.0000 
     45 CA         26.4260   11.4880   17.4515 C.3       3 GLC5        0.0000 
     46 CA         26.4990    9.6210   18.1720 C.3       6 GLP5        0.0000 
     47 N          27.6785   13.4790   14.3670 N.am      2 SEC2        0.0000 
     48 N          26.5410   13.8630   15.4390 N.am      8 SEL2        0.0000 
     49 N          28.8160   13.0950   13.2950 N.am      5 SEP2        0.0000 
     50 CA         25.4175   13.0685   14.3255 C.3       3 GLC5        0.0000 
     51 CA         25.8160   15.0750   15.2440 C.3       9 GLL5        0.0000 
     52 CA         25.0190   11.0620   13.4070 C.3       6 GLP5        0.0000 
     53 CA         26.4970   15.0375   13.3655 C.3       3 GLC5        0.0000 
     54 CA         27.1780   15.0000   11.4870 C.3       6 GLP5        0.0000 
     55 N          25.6250   13.9715   13.2095 N.am      2 SEC2        0.0000 
     56 N          25.0380   15.0120   14.0530 N.am      8 SEL2        0.0000 
     57 N          26.2120   12.9310   12.3660 N.am      5 SEP2        0.0000 
     58 CA         24.3305   12.9935   13.8705 C.3       3 GLC5        0.0000 
     59 CA         23.6420   14.9250   14.3340 C.3       9 GLL5        0.0000 
     60 CA         19.4430   11.7980   13.6430 C.3       3 GLC5        0.0000 
     61 CA         19.7980   11.6110   15.7960 C.3       9 GLL5        0.0000 
     62 CA         19.0880   11.9850   11.4900 C.3       6 GLP5        0.0000 
     63 CA         19.6185   12.9315   13.1380 C.3       3 GLC5        0.0000 
     64 CA         20.1490   13.8780   14.7860 C.3       9 GLL5        0.0000 
     65 CA         16.0290   10.2045   19.7115 C.3       3 GLC5        0.0000 
     66 CA         15.2480   11.9270   20.3280 C.3       6 GLP5        0.0000 
     67 CA         16.4116    6.8526   17.3757 C.3       3 GLC5        0.0000 
     68 CA         14.3276    8.5476   19.2477 C.3       3 GLC5        0.0000 
     69 CA         15.5040    7.3180   18.6300 C.3       9 GLL5        0.0000 
     70 CA         12.7130    9.4330   19.6280 C.3       6 GLP5        0.0000 
     71 CA         24.1378    6.9223   19.3750 C.3       3 GLC5        0.0000 
     72 CA         22.0270    7.8310   19.5820 C.3       9 GLL5        0.0000 
     73 CA         26.0840    6.6540   18.7550 C.3       6 GLP5        0.0000 
     74 CA         25.5748   12.9093   18.9672 C.3       3 GLC5        0.0000 
     75 CA         24.9200   13.7760   17.1420 C.3       9 GLL5        0.0000 
     76 CA         25.5130   12.2530   20.9980 C.3       6 GLP5        0.0000 
     77 CA         25.7048   11.9207   15.6973 C.3       3 GLC5        0.0000 
     78 CA         25.7730   10.2760   14.4580 C.3       6 GLP5        0.0000 
     79 CA         26.1249   15.3719   18.0651 C.3       3 GLC5        0.0000 
     80 CA         27.0030   16.3820   19.4320 C.3       6 GLP5        0.0000 
     81 CA         18.4492   14.7155   14.4990 C.3       3 GLC5        0.0000 
     82 CA         16.7690   14.8510   14.1960 C.3       6 GLP5        0.0000 
     83 CA         18.0723   16.5835   17.2767 C.3       3 GLC5        0.0000 
     84 CA         19.6450   15.9200   15.9730 C.3       9 GLL5        0.0000 
     85 CA         16.7060   17.6230   18.0340 C.3       6 GLP5        0.0000 
     86 CA         18.1037   15.1975   15.3577 C.3       3 GLC5        0.0000 
     87 CA         19.2320   15.1680   17.0660 C.3       9 GLL5        0.0000 
     88 CA         20.2758   15.0575   18.6318 C.3       3 GLC5        0.0000 
     89 CA         21.2920   15.6480   20.2340 C.3       6 GLP5        0.0000 
     90 CA         18.5142   14.5825   19.0068 C.3       3 GLC5        0.0000 
     91 CA         17.7690   14.6980   20.9840 C.3       6 GLP5        0.0000 
     92 CA         18.1420   14.1445   15.3110 C.3       3 GLC5        0.0000 
     93 CA         19.2870   13.7660   16.9930 C.3       9 GLL5        0.0000 
     94 CA         17.7429   12.1306   16.1811 C.3       3 GLC5        0.0000 
     95 CA         19.7430   13.1100   15.8590 C.3       9 GLL5        0.0000 
@<TRIPOS>BOND
@<TRIPOS>SUBSTRUCTURE
     1 ALC1       34 GROUP        1 X    ALC  0     ROOT ALC X 1
     2 SEC2        4 GROUP        1 X    SEC  0     **** SEC X 2
     3 GLC5        1 GROUP        1 X    GLC  0     **** GLC X 6
     4 ALP1       36 GROUP        1 Y    ALP  0     ROOT ALP Y 8
     5 SEP2        6 GROUP        1 Y    SEP  0     **** SEP Y 9
     6 GLP5        3 GROUP        1 Y    GLP  0     **** GLP Y 13
     7 ALL1       35 GROUP        1 Z    ALL  0     ROOT ALL Z 15
     8 SEL2        5 GROUP        1 Z    SEL  0     **** SEL Z 16
     9 GLL5        2 GROUP        1 Z    GLL  0     **** GLL Z 20
@<TRIPOS>SET

