#    Name: 3ecg_065_1_ligand
#    Modification time : Tue Mar 25 01:28:15 2014

@<TRIPOS>MOLECULE
3ecg_065_1_ligand
   76    80     1     0     0
SMALL
NO_CHARGES


@<TRIPOS>ATOM
      1 C2         15.4450    6.6070   19.7660 C.ar      1 065201      0.0000 
      2 O39        14.6370    5.5610   20.0490 O.3       1 065201      0.0000 
      3 C40        14.9870    5.1280   21.3730 C.3       1 065201      0.0000 
      4 O41        15.9910    6.0080   21.8770 O.3       1 065201      0.0000 
      5 C3         16.2690    6.8730   20.8860 C.ar      1 065201      0.0000 
      6 C4         17.1580    7.8770   20.8320 C.ar      1 065201      0.0000 
      7 C5         17.2100    8.6020   19.6530 C.ar      1 065201      0.0000 
      8 C6         16.4100    8.3620   18.5370 C.ar      1 065201      0.0000 
      9 C7         15.5040    7.3180   18.6300 C.ar      1 065201      0.0000 
     10 S8         18.5930    9.7300   19.4370 S.o2      1 065201      0.0000 
     11 O9         18.9710   10.2360   20.7060 O.2       1 065201      0.0000 
     12 O10        18.1460   10.7090   18.4250 O.2       1 065201      0.0000 
     13 N11        19.8510    8.8270   18.7790 N.pl3     1 065201      0.0000 
     14 C12        20.4730    7.9120   19.7000 C.3       1 065201      0.0000 
     15 C13        22.0270    7.8310   19.5820 C.3       1 065201      0.0000 
     16 C14        22.3560    6.5500   20.4080 C.3       1 065201      0.0000 
     17 C15        22.5680    9.0450   20.3800 C.3       1 065201      0.0000 
     18 C16        19.8280    8.7590   17.3100 C.3       1 065201      0.0000 
     19 C17        21.0690    9.4830   16.7160 C.3       1 065201      0.0000 
     20 O18        21.2550    9.0740   15.3430 O.3       1 065201      0.0000 
     21 C19        20.8820   11.0230   16.7450 C.3       1 065201      0.0000 
     22 N20        22.1420   11.6790   16.3930 N.am      1 065201      0.0000 
     23 C21        22.9770   12.3110   17.2160 C.2       1 065201      0.0000 
     24 O22        22.8220   12.4390   18.4160 O.2       1 065201      0.0000 
     25 O23        24.0520   12.8050   16.5210 O.3       1 065201      0.0000 
     26 C24        24.9200   13.7760   17.1420 C.3       1 065201      0.0000 
     27 C25        26.3530   13.3550   16.7310 C.3       1 065201      0.0000 
     28 O26        26.5410   13.8630   15.4390 O.3       1 065201      0.0000 
     29 C27        25.8160   15.0750   15.2440 C.3       1 065201      0.0000 
     30 O28        25.0380   15.0120   14.0530 O.3       1 065201      0.0000 
     31 C29        23.6420   14.9250   14.3340 C.3       1 065201      0.0000 
     32 C30        23.5060   15.4820   15.7690 C.3       1 065201      0.0000 
     33 C31        24.8570   15.1580   16.4600 C.3       1 065201      0.0000 
     34 C32        19.7980   11.6110   15.7960 C.3       1 065201      0.0000 
     35 C33        20.1490   13.8780   14.7860 C.ar      1 065201      0.0000 
     36 C34        20.1100   15.2820   14.8180 C.ar      1 065201      0.0000 
     37 C35        19.6450   15.9200   15.9730 C.ar      1 065201      0.0000 
     38 C36        19.2320   15.1680   17.0660 C.ar      1 065201      0.0000 
     39 C37        19.2870   13.7660   16.9930 C.ar      1 065201      0.0000 
     40 C38        19.7430   13.1100   15.8590 C.ar      1 065201      0.0000 
     41 H          15.3588    4.0938   21.3471 H         1 065201      0.0000 
     42 H          14.1004    5.1426   22.0228 H         1 065201      0.0000 
     43 H          17.7720    8.1104   21.6066 H         1 065201      0.0000 
     44 H          16.4899    8.9229   17.7050 H         1 065201      0.0000 
     45 H          14.8932    7.1068   17.8270 H         1 065201      0.0000 
     46 H          20.0889    6.8771   19.5659 H         1 065201      0.0000 
     47 H          20.2472    8.1815   20.7549 H         1 065201      0.0000 
     48 H          22.3329    7.7818   18.6530 H         1 065201      0.0000 
     49 H          18.9370    9.2429   16.9083 H         1 065201      0.0000 
     50 H          19.8494    7.7249   16.9643 H         1 065201      0.0000 
     51 H          21.9229    9.2377   17.3132 H         1 065201      0.0000 
     52 H          20.6166   11.3180   17.7649 H         1 065201      0.0000 
     53 H          22.3763   11.6169   15.3420 H         1 065201      0.0000 
     54 H          24.8765   13.8582   18.1475 H         1 065201      0.0000 
     55 H          26.3928   12.2751   16.7742 H         1 065201      0.0000 
     56 H          27.0311   13.7797   17.4587 H         1 065201      0.0000 
     57 H          26.4466   15.9220   15.2845 H         1 065201      0.0000 
     58 H          23.2846   13.9133   14.3406 H         1 065201      0.0000 
     59 H          23.0513   15.5432   13.6858 H         1 065201      0.0000 
     60 H          22.7216   14.9775   16.2748 H         1 065201      0.0000 
     61 H          23.3723   16.5339   15.7324 H         1 065201      0.0000 
     62 H          25.1600   15.9238   17.0697 H         1 065201      0.0000 
     63 H          18.8310   11.1850   16.0812 H         1 065201      0.0000 
     64 H          20.0264   11.2836   14.7769 H         1 065201      0.0000 
     65 H          20.4966   13.4120   13.9215 H         1 065201      0.0000 
     66 H          20.4154   15.8234   14.0132 H         1 065201      0.0000 
     67 H          19.6105   16.9465   16.0089 H         1 065201      0.0000 
     68 H          18.8919   15.6216   17.9143 H         1 065201      0.0000 
     69 H          18.9757   13.2119   17.8154 H         1 065201      0.0000 
     70 H          23.3415    6.4242   20.5214 H         1 065201      0.0000 
     71 H          21.9578    6.5867   21.3246 H         1 065201      0.0000 
     72 H          22.0037    5.7239   19.9682 H         1 065201      0.0000 
     73 H          23.5670    9.0853   20.3629 H         1 065201      0.0000 
     74 H          22.2334    9.9116   20.0099 H         1 065201      0.0000 
     75 H          22.2924    9.0106   21.3407 H         1 065201      0.0000 
     76 H          20.4529    9.4227   14.8583 H         1 065201      0.0000 
@<TRIPOS>BOND
     1    2    1 1    
     2    5    1 ar   
     3    9    1 ar   
     4    3    2 1    
     5    4    3 1    
     6   41    3 1    
     7   42    3 1    
     8    5    4 1    
     9    6    5 ar   
    10    7    6 ar   
    11   43    6 1    
    12    8    7 ar   
    13   10    7 1    
    14    9    8 ar   
    15   44    8 1    
    16   45    9 1    
    17   11   10 2    
    18   12   10 2    
    19   13   10 1    
    20   14   13 1    
    21   18   13 1    
    22   15   14 1    
    23   46   14 1    
    24   47   14 1    
    25   16   15 1    
    26   17   15 1    
    27   48   15 1    
    28   70   16 1    
    29   71   16 1    
    30   72   16 1    
    31   73   17 1    
    32   74   17 1    
    33   75   17 1    
    34   19   18 1    
    35   49   18 1    
    36   50   18 1    
    37   20   19 1    
    38   21   19 1    
    39   51   19 1    
    40   76   20 1    
    41   22   21 1    
    42   34   21 1    
    43   52   21 1    
    44   23   22 am   
    45   53   22 1    
    46   24   23 2    
    47   25   23 1    
    48   26   25 1    
    49   27   26 1    
    50   33   26 1    
    51   54   26 1    
    52   28   27 1    
    53   55   27 1    
    54   56   27 1    
    55   29   28 1    
    56   30   29 1    
    57   33   29 1    
    58   57   29 1    
    59   31   30 1    
    60   32   31 1    
    61   58   31 1    
    62   59   31 1    
    63   33   32 1    
    64   60   32 1    
    65   61   32 1    
    66   62   33 1    
    67   40   34 1    
    68   63   34 1    
    69   64   34 1    
    70   36   35 ar   
    71   40   35 ar   
    72   65   35 1    
    73   37   36 ar   
    74   66   36 1    
    75   38   37 ar   
    76   67   37 1    
    77   39   38 ar   
    78   68   38 1    
    79   40   39 ar   
    80   69   39 1    
@<TRIPOS>SUBSTRUCTURE
     1 065201      1 GROUP   
@<TRIPOS>SET

