#    Name: 2z4b_DC8_1_INTS_M
#    Modification time : Tue Mar 25 09:56:44 2014

@<TRIPOS>MOLECULE
2z4b_DC8_1_INTS_M
   73     0     9     0     0
SMALL
NO_CHARGES


@<TRIPOS>ATOM
      1 CA         74.9380   41.6510   69.4090 C.3       3 GLC5        0.0000 
      2 CA         75.2700   39.6550   68.4640 C.3       9 GLL5        0.0000 
      3 CA         74.6060   43.6470   70.3540 C.3       6 GLP5        0.0000 
      4 CA         73.6865   39.5025   69.5495 C.3       3 GLC5        0.0000 
      5 CA         72.1030   39.3500   70.6350 C.3       6 GLP5        0.0000 
      6 CA         75.2730   35.4300   69.0300 C.3       3 GLC5        0.0000 
      7 CA         75.3940   36.7880   70.6010 C.3       9 GLL5        0.0000 
      8 CA         75.1520   34.0720   67.4590 C.3       6 GLP5        0.0000 
      9 CA         74.1135   34.3090   70.1760 C.3       3 GLC5        0.0000 
     10 CA         74.5450   36.0760   71.4990 C.3       9 GLL5        0.0000 
     11 CA         73.6820   32.5420   68.8530 C.3       6 GLP5        0.0000 
     12 CA         73.9815   38.3810   74.7025 C.3       3 GLC5        0.0000 
     13 CA         75.1660   37.6160   73.3030 C.3       9 GLL5        0.0000 
     14 CA         72.7970   39.1460   76.1020 C.3       6 GLP5        0.0000 
     15 CA         76.7565   37.6810   74.7445 C.3       3 GLC5        0.0000 
     16 CA         78.3470   37.7460   76.1860 C.3       6 GLP5        0.0000 
     17 CA         75.3215   38.0870   66.1110 C.3       3 GLC5        0.0000 
     18 CA         74.2950   40.0060   66.2830 C.3       9 GLL5        0.0000 
     19 CA         76.3480   36.1680   65.9390 C.3       6 GLP5        0.0000 
     20 CA         72.8275   40.0280   67.9875 C.3       3 GLC5        0.0000 
     21 CA         71.3600   40.0500   69.6920 C.3       6 GLP5        0.0000 
     22 CA         73.2135   38.7425   65.9365 C.3       3 GLC5        0.0000 
     23 CA         72.1320   37.4790   65.5900 C.3       6 GLP5        0.0000 
     24 CA         74.9290   42.7245   68.8335 C.3       3 GLC5        0.0000 
     25 CA         75.2520   41.8020   67.3130 C.3       9 GLL5        0.0000 
     26 CA         78.7875   43.4945   68.0850 C.3       3 GLC5        0.0000 
     27 CA         79.2840   41.5630   67.7070 C.3       9 GLL5        0.0000 
     28 CA         78.2910   45.4260   68.4630 C.3       6 GLP5        0.0000 
     29 CA         77.9340   42.8650   66.4995 C.3       3 GLC5        0.0000 
     30 CA         76.5840   44.1670   65.2920 C.3       6 GLP5        0.0000 
     31 CA         81.2705   41.1710   67.8185 C.3       3 GLC5        0.0000 
     32 CA         83.2570   40.7790   67.9300 C.3       6 GLP5        0.0000 
     33 N          72.1180   35.2870   74.0550 N.am      2 SEC2        0.0000 
     34 N          73.6130   35.8070   73.7130 N.am      8 SEL2        0.0000 
     35 N          70.6230   34.7670   74.3970 N.am      5 SEP2        0.0000 
     36 O          74.1090   35.9175   74.8105 O.2       1 ALC1        0.0000 
     37 O          73.6130   35.8070   73.7130 O.2       7 ALL1        0.0000 
     38 O          74.6050   36.0280   75.9080 O.2       4 ALP1        0.0000 
     39 CA         77.5685   38.2400   73.6765 C.3       3 GLC5        0.0000 
     40 CA         76.0110   38.3250   72.4150 C.3       9 GLL5        0.0000 
     41 CA         79.1260   38.1550   74.9380 C.3       6 GLP5        0.0000 
     42 N          80.6485   43.8730   66.4335 N.am      2 SEC2        0.0000 
     43 N          80.8680   43.4340   67.7210 N.am      8 SEL2        0.0000 
     44 N          80.4290   44.3120   65.1460 N.am      5 SEP2        0.0000 
     45 CA         77.1860   42.1763   71.3275 C.3       3 GLC5        0.0000 
     46 CA         79.0180   41.8470   70.5110 C.3       9 GLL5        0.0000 
     47 CA         75.7330   43.0120   72.4780 C.3       6 GLP5        0.0000 
     48 CA         78.0892   37.2812   69.0695 C.3       3 GLC5        0.0000 
     49 CA         77.1140   38.7230   70.0700 C.3       9 GLL5        0.0000 
     50 CA         79.3210   35.7880   68.8010 C.3       6 GLP5        0.0000 
     51 CA         79.1335   38.6363   68.0655 C.3       3 GLC5        0.0000 
     52 CA         77.5710   39.6040   67.6790 C.3       9 GLL5        0.0000 
     53 CA         80.2890   37.1250   68.0760 C.3       6 GLP5        0.0000 
     54 CA         78.3632   39.0460   65.7485 C.3       3 GLC5        0.0000 
     55 CA         76.7040   40.1040   66.4950 C.3       9 GLL5        0.0000 
     56 CA         79.5890   38.2380   64.4100 C.3       6 GLP5        0.0000 
     57 CA         77.5453   36.5725   69.8117 C.3       3 GLC5        0.0000 
     58 CA         76.1450   37.9260   71.0440 C.3       9 GLL5        0.0000 
     59 CA         75.5269   34.8205   72.1352 C.3       3 GLC5        0.0000 
     60 CA         76.3520   33.1800   72.3220 C.3       6 GLP5        0.0000 
     61 CA         76.7283   36.2853   73.2865 C.3       3 GLC5        0.0000 
     62 CA         77.8680   34.6000   73.7140 C.3       6 GLP5        0.0000 
     63 CA         78.8885   43.8329   69.1336 C.3       3 GLC5        0.0000 
     64 CA         79.8840   42.7000   69.7970 C.3       9 GLL5        0.0000 
     65 CA         81.2810   42.0574   69.9811 C.3       3 GLC5        0.0000 
     66 CA         80.0240   42.5650   68.3980 C.3       9 GLL5        0.0000 
     67 CA         83.0760   41.8750   70.1580 C.3       6 GLP5        0.0000 
     68 CA         73.4436   41.7271   66.7129 C.3       3 GLC5        0.0000 
     69 CA         71.8500   42.4480   66.4190 C.3       6 GLP5        0.0000 
     70 CA         76.2933   42.3866   66.0736 C.3       3 GLC5        0.0000 
     71 CA         75.4146   39.6636   64.9249 C.3       3 GLC5        0.0000 
     72 CA         75.0660   39.1700   63.2520 C.3       6 GLP5        0.0000 
     73 CA         76.4423   37.8576   66.8750 C.3       3 GLC5        0.0000 
@<TRIPOS>BOND
@<TRIPOS>SUBSTRUCTURE
     1 ALC1       36 GROUP        1 X    ALC  0     ROOT ALC X 1
     2 SEC2       33 GROUP        1 X    SEC  0     **** SEC X 2
     3 GLC5        1 GROUP        1 X    GLC  0     **** GLC X 6
     4 ALP1       38 GROUP        1 Y    ALP  0     ROOT ALP Y 8
     5 SEP2       35 GROUP        1 Y    SEP  0     **** SEP Y 9
     6 GLP5        3 GROUP        1 Y    GLP  0     **** GLP Y 13
     7 ALL1       37 GROUP        1 Z    ALL  0     ROOT ALL Z 15
     8 SEL2       34 GROUP        1 Z    SEL  0     **** SEL Z 16
     9 GLL5        2 GROUP        1 Z    GLL  0     **** GLL Z 20
@<TRIPOS>SET

