#    Name: 2z4b_DC8_1_ligand
#    Modification time : Tue Mar 25 09:56:44 2014

@<TRIPOS>MOLECULE
2z4b_DC8_1_ligand
   39    42     1     0     0
SMALL
NO_CHARGES


@<TRIPOS>ATOM
      1 C4         78.2600   40.8340   69.8430 C.ar      1 DC880       0.0000 
      2 C6         77.1140   38.7230   70.0700 C.3       1 DC880       0.0000 
      3 C8         76.6010   38.8260   68.6060 C.3       1 DC880       0.0000 
      4 C10        75.2700   39.6550   68.4640 C.3       1 DC880       0.0000 
      5 C15        77.5710   39.6040   67.6790 C.3       1 DC880       0.0000 
      6 C17        78.3850   40.6910   68.4310 C.ar      1 DC880       0.0000 
      7 C20        75.3940   36.7880   70.6010 C.ar      1 DC880       0.0000 
      8 C21        74.5450   36.0760   71.4990 C.ar      1 DC880       0.0000 
      9 C22        74.4340   36.4900   72.8470 C.ar      1 DC880       0.0000 
     10 C24        75.1660   37.6160   73.3030 C.ar      1 DC880       0.0000 
     11 C1         80.0240   42.5650   68.3980 C.ar      1 DC880       0.0000 
     12 C2         79.8840   42.7000   69.7970 C.ar      1 DC880       0.0000 
     13 C3         79.0180   41.8470   70.5110 C.ar      1 DC880       0.0000 
     14 O5         77.4200   40.0300   70.6300 O.3       1 DC880       0.0000 
     15 C11        75.3500   40.4150   67.1180 C.3       1 DC880       0.0000 
     16 F12        74.2950   40.0060   66.2830 F         1 DC880       0.0000 
     17 F13        75.2520   41.8020   67.3130 F         1 DC880       0.0000 
     18 C14        76.7040   40.1040   66.4950 C.3       1 DC880       0.0000 
     19 C18        79.2840   41.5630   67.7070 C.ar      1 DC880       0.0000 
     20 C19        76.1450   37.9260   71.0440 C.ar      1 DC880       0.0000 
     21 O23        73.6130   35.8070   73.7130 O.3       1 DC880       0.0000 
     22 C25        76.0110   38.3250   72.4150 C.ar      1 DC880       0.0000 
     23 O26        80.8680   43.4340   67.7210 O.3       1 DC880       0.0000 
     24 H          78.0544   38.1241   70.0377 H         1 DC880       0.0000 
     25 H          76.4322   37.8690   68.1829 H         1 DC880       0.0000 
     26 H          75.2122   40.3509   69.2692 H         1 DC880       0.0000 
     27 H          74.4456   38.9797   68.4494 H         1 DC880       0.0000 
     28 H          78.2673   38.8560   67.2711 H         1 DC880       0.0000 
     29 H          75.4702   36.4855   69.6281 H         1 DC880       0.0000 
     30 H          74.0204   35.2695   71.1644 H         1 DC880       0.0000 
     31 H          75.0827   37.9158   74.2757 H         1 DC880       0.0000 
     32 H          80.4144   43.4210   70.2937 H         1 DC880       0.0000 
     33 H          78.9233   41.9472   71.5284 H         1 DC880       0.0000 
     34 H          76.6093   39.3252   65.7804 H         1 DC880       0.0000 
     35 H          77.1364   40.9873   66.0963 H         1 DC880       0.0000 
     36 H          79.3811   41.4526   66.7024 H         1 DC880       0.0000 
     37 H          76.5383   39.1370   72.7497 H         1 DC880       0.0000 
     38 H          73.7008   36.2872   74.5857 H         1 DC880       0.0000 
     39 H          81.7642   43.3082   68.1465 H         1 DC880       0.0000 
@<TRIPOS>BOND
     1    6    1 ar   
     2   13    1 ar   
     3   14    1 1    
     4    3    2 1    
     5   14    2 1    
     6   20    2 1    
     7   24    2 1    
     8    4    3 1    
     9    5    3 1    
    10   25    3 1    
    11   15    4 1    
    12   26    4 1    
    13   27    4 1    
    14    6    5 1    
    15   18    5 1    
    16   28    5 1    
    17   19    6 ar   
    18    8    7 ar   
    19   20    7 ar   
    20   29    7 1    
    21    9    8 ar   
    22   30    8 1    
    23   10    9 ar   
    24   21    9 1    
    25   22   10 ar   
    26   31   10 1    
    27   12   11 ar   
    28   19   11 ar   
    29   23   11 1    
    30   13   12 ar   
    31   32   12 1    
    32   33   13 1    
    33   16   15 1    
    34   17   15 1    
    35   18   15 1    
    36   34   18 1    
    37   35   18 1    
    38   36   19 1    
    39   22   20 ar   
    40   38   21 1    
    41   37   22 1    
    42   39   23 1    
@<TRIPOS>SUBSTRUCTURE
     1 DC880       1 GROUP   
@<TRIPOS>SET

