#    Name: 2vcg_S17_4_INTS_M
#    Modification time : Tue Mar 25 01:27:34 2014

@<TRIPOS>MOLECULE
2vcg_S17_4_INTS_M
   71     0    12     0     0
SMALL
NO_CHARGES


@<TRIPOS>ATOM
      1 CA         24.4410  -10.5655   50.3430 C.3       4 GLC5        0.0000 
      2 CA         24.3770   -8.9240   49.5080 C.3      12 GLL5        0.0000 
      3 CA         24.5050  -12.2070   51.1780 C.3       8 GLP5        0.0000 
      4 CA         22.6005   -9.7340   49.0030 C.3       4 GLC5        0.0000 
      5 CA         20.8240  -10.5440   48.4980 C.3       8 GLP5        0.0000 
      6 CA         24.5570   -6.9460   49.5560 C.3       4 GLC5        0.0000 
      7 CA         24.7370   -4.9680   49.6040 C.3       8 GLP5        0.0000 
      8 CA         21.3415  -11.4295   42.0700 C.3       4 GLC5        0.0000 
      9 CA         23.0860  -11.7180   43.2570 C.3      12 GLL5        0.0000 
     10 CA         19.5970  -11.1410   40.8830 C.3       8 GLP5        0.0000 
     11 CA         19.7150  -14.7655   44.1910 C.3       4 GLC5        0.0000 
     12 CA         21.4720  -14.8190   43.9600 C.3      12 GLL5        0.0000 
     13 CA         17.9580  -14.7120   44.4220 C.3       8 GLP5        0.0000 
     14 CA         22.6630  -14.8820   42.5790 C.3       4 GLC5        0.0000 
     15 CA         23.8540  -14.9450   41.1980 C.3       8 GLP5        0.0000 
     16 CA         21.1005  -16.6820   43.0730 C.3       4 GLC5        0.0000 
     17 CA         20.7290  -18.5450   42.1860 C.3       8 GLP5        0.0000 
     18 CA         21.7360   -7.8075   39.1600 C.3       4 GLC5        0.0000 
     19 CA         21.7880   -7.5080   40.9310 C.3      12 GLL5        0.0000 
     20 CA         21.6840   -8.1070   37.3890 C.3       8 GLP5        0.0000 
     21 CA         22.6260   -4.7470   42.0095 C.3       4 GLC5        0.0000 
     22 CA         21.4940   -6.0330   41.1380 C.3      12 GLL5        0.0000 
     23 CA         23.7580   -3.4610   42.8810 C.3       8 GLP5        0.0000 
     24 CA         19.8080   -7.8565   40.1950 C.3       4 GLC5        0.0000 
     25 CA         20.1500   -5.7170   40.5190 C.3      12 GLL5        0.0000 
     26 CA         19.4660   -9.9960   39.8710 C.3       8 GLP5        0.0000 
     27 CA         19.0350   -2.5580   41.2735 C.3       4 GLC5        0.0000 
     28 CA         20.0190   -4.2180   40.3700 C.3      12 GLL5        0.0000 
     29 CA         18.0510   -0.8980   42.1770 C.3       8 GLP5        0.0000 
     30 CA         21.2590   -3.6045   41.8225 C.3       4 GLC5        0.0000 
     31 CA         22.4990   -2.9910   43.2750 C.3       8 GLP5        0.0000 
     32 CA         21.8055   -2.3755   39.4695 C.3       4 GLC5        0.0000 
     33 CA         20.2070   -3.7780   38.9300 C.3      12 GLL5        0.0000 
     34 CA         23.4040   -0.9730   40.0090 C.3       8 GLP5        0.0000 
     35 CA         20.9870   -4.8615   37.6230 C.3       4 GLC5        0.0000 
     36 CA         21.7670   -5.9450   36.3160 C.3       8 GLP5        0.0000 
     37 CA         18.7310   -4.0305   37.5435 C.3       4 GLC5        0.0000 
     38 CA         17.2550   -4.2830   36.1570 C.3       8 GLP5        0.0000 
     39 Zn         18.1685   -1.2470   38.6295 Zn        3 ZIC7        0.0000 
     40 Zn         18.5130   -2.1960   38.2210 Zn       11 ZIL7        0.0000 
     41 Zn         17.8240   -0.2980   39.0380 Zn        7 ZIP7        0.0000 
     42 N          18.5010   -2.9640   37.2100 N.am      2 SEC2        0.0000 
     43 N          18.5130   -2.1960   38.2210 N.am     10 SEL2        0.0000 
     44 N          18.4890   -3.7320   36.1990 N.am      6 SEP2        0.0000 
     45 O          21.3460   -1.0605   40.0695 O.2       1 ALC1        0.0000 
     46 O          20.3210   -1.3960   39.2610 O.2       9 ALL1        0.0000 
     47 O          22.3710   -0.7250   40.8780 O.2       5 ALP1        0.0000 
     48 Zn         18.8330   -0.2140   39.1030 Zn        3 ZIC7        0.0000 
     49 Zn         19.8420   -0.1300   39.1680 Zn       11 ZIL7        0.0000 
     50 CA         24.4460  -11.3262   49.4727 C.3       4 GLC5        0.0000 
     51 CA         24.3770  -11.1400   47.7320 C.3      12 GLL5        0.0000 
     52 CA         22.6160  -10.1291   47.8499 C.3       4 GLC5        0.0000 
     53 CA         22.4973  -10.7778   46.3602 C.3       4 GLC5        0.0000 
     54 CA         24.4480   -9.6240   45.3930 C.3      12 GLL5        0.0000 
     55 CA         20.5680  -11.0430   47.0680 C.3       8 GLP5        0.0000 
     56 CA         23.8075  -13.3430   42.4095 C.3       4 GLC5        0.0000 
     57 CA         24.4360  -11.7640   43.9850 C.3      12 GLL5        0.0000 
     58 CA         24.8470  -11.6690   42.0895 C.3       4 GLC5        0.0000 
     59 CA         25.9330  -11.5970   40.5580 C.3       8 GLP5        0.0000 
     60 CA         20.7097   -8.9193   40.7308 C.3       4 GLC5        0.0000 
     61 CA         22.1190   -8.1770   42.2500 C.3      12 GLL5        0.0000 
     62 CA         23.5502   -8.1227   40.7197 C.3       4 GLC5        0.0000 
     63 CA         25.1470   -8.4030   39.8490 C.3       8 GLP5        0.0000 
     64 CA         22.7308   -6.5892   42.9877 C.3       4 GLC5        0.0000 
     65 CA         23.5080   -5.3360   44.3850 C.3       8 GLP5        0.0000 
     66 CA         20.9404   -7.3969   43.1771 C.3       4 GLC5        0.0000 
     67 CA         20.1570   -7.8560   44.9900 C.3       8 GLP5        0.0000 
     68 CA         18.3832   -5.8412   39.7957 C.3       4 GLC5        0.0000 
     69 CA         16.6820   -6.7150   39.1470 C.3       8 GLP5        0.0000 
     70 CA         20.7417   -5.9733   38.8286 C.3       4 GLC5        0.0000 
     71 CA         21.0630   -6.9000   37.0580 C.3       8 GLP5        0.0000 
@<TRIPOS>BOND
@<TRIPOS>SUBSTRUCTURE
     1 ALC1       45 GROUP        1 X    ALC  0     ROOT ALC X 1
     2 SEC2       42 GROUP        1 X    SEC  0     **** SEC X 2
     3 ZIC7       39 GROUP        1 X    ZIC  0     **** ZIC X 5
     4 GLC5        1 GROUP        1 X    GLC  0     **** GLC X 6
     5 ALP1       47 GROUP        1 Y    ALP  0     ROOT ALP Y 8
     6 SEP2       44 GROUP        1 Y    SEP  0     **** SEP Y 9
     7 ZIP7       41 GROUP        1 Y    ZIP  0     **** ZIP Y 12
     8 GLP5        3 GROUP        1 Y    GLP  0     **** GLP Y 13
     9 ALL1       46 GROUP        1 Z    ALL  0     ROOT ALL Z 15
    10 SEL2       43 GROUP        1 Z    SEL  0     **** SEL Z 16
    11 ZIL7       40 GROUP        1 Z    ZIL  0     **** ZIL Z 19
    12 GLL5        2 GROUP        1 Z    GLL  0     **** GLL Z 20
@<TRIPOS>SET

