#    Name: 2vcg_S17_4_ligand
#    Modification time : Tue Mar 25 01:27:34 2014

@<TRIPOS>MOLECULE
2vcg_S17_4_ligand
   51    51     1     0     0
SMALL
NO_CHARGES


@<TRIPOS>ATOM
      1 CD1        24.3890  -11.7780   46.4970 C.ar      1 S171381     0.0000 
      2 CE1        24.3770  -11.1400   47.7320 C.ar      1 S171381     0.0000 
      3 CZ         24.3970   -9.7510   47.8030 C.ar      1 S171381     0.0000 
      4 BR1        24.3770   -8.9240   49.5080 Br        1 S171381     0.0000 
      5 CE2        24.4290   -8.9830   46.6360 C.ar      1 S171381     0.0000 
      6 CD2        24.4480   -9.6240   45.3930 C.ar      1 S171381     0.0000 
      7 CG         24.4210  -11.0240   45.3270 C.ar      1 S171381     0.0000 
      8 CB         24.4360  -11.7640   43.9850 C.3       1 S171381     0.0000 
      9 CA         23.0860  -11.7180   43.2570 C.3       1 S171381     0.0000 
     10 C          22.0260  -12.5340   44.0040 C.2       1 S171381     0.0000 
     11 O          20.9070  -12.0550   44.1800 O.2       1 S171381     0.0000 
     12 OAT        22.3150  -13.7810   44.4820 O.3       1 S171381     0.0000 
     13 CAA        21.4720  -14.8190   43.9600 C.3       1 S171381     0.0000 
     14 N          22.6660  -10.3090   43.1790 N.am      1 S171381     0.0000 
     15 CAV        22.5520   -9.6260   42.0490 C.2       1 S171381     0.0000 
     16 OAC        22.7580  -10.0870   40.9280 O.2       1 S171381     0.0000 
     17 CAP        22.1190   -8.1770   42.2500 C.3       1 S171381     0.0000 
     18 CAN        21.7880   -7.5080   40.9310 C.3       1 S171381     0.0000 
     19 CAL        21.4940   -6.0330   41.1380 C.3       1 S171381     0.0000 
     20 CAK        20.1500   -5.7170   40.5190 C.3       1 S171381     0.0000 
     21 CAM        20.0190   -4.2180   40.3700 C.3       1 S171381     0.0000 
     22 CAO        20.2070   -3.7780   38.9300 C.3       1 S171381     0.0000 
     23 CAU        19.6010   -2.3760   38.7630 C.2       1 S171381     0.0000 
     24 OAB        18.5130   -2.1960   38.2210 O.2       1 S171381     0.0000 
     25 NAR        20.3210   -1.3960   39.2610 N.am      1 S171381     0.0000 
     26 OAE        19.8420   -0.1300   39.1680 O.3       1 S171381     0.0000 
     27 H          24.3743  -12.8039   46.4467 H         1 S171381     0.0000 
     28 H          24.3532  -11.6974   48.5977 H         1 S171381     0.0000 
     29 H          24.4384   -7.9630   46.6896 H         1 S171381     0.0000 
     30 H          24.4816   -9.0719   44.5304 H         1 S171381     0.0000 
     31 H          24.7120  -12.8119   44.1576 H         1 S171381     0.0000 
     32 H          25.2039  -11.3189   43.3398 H         1 S171381     0.0000 
     33 H          23.2137  -12.1209   42.2739 H         1 S171381     0.0000 
     34 H          22.4552   -9.8664   44.1163 H         1 S171381     0.0000 
     35 H          22.9257   -7.6288   42.7439 H         1 S171381     0.0000 
     36 H          21.2405   -8.1540   42.9003 H         1 S171381     0.0000 
     37 H          20.9164   -7.9908   40.4883 H         1 S171381     0.0000 
     38 H          22.6314   -7.6153   40.2483 H         1 S171381     0.0000 
     39 H          22.2636   -5.4412   40.6598 H         1 S171381     0.0000 
     40 H          21.4672   -5.8158   42.1978 H         1 S171381     0.0000 
     41 H          19.3588   -6.0891   41.1600 H         1 S171381     0.0000 
     42 H          20.0800   -6.1867   39.5444 H         1 S171381     0.0000 
     43 H          20.7682   -3.7235   40.9978 H         1 S171381     0.0000 
     44 H          19.0282   -3.9036   40.7156 H         1 S171381     0.0000 
     45 H          19.6995   -4.4632   38.2678 H         1 S171381     0.0000 
     46 H          21.2595   -3.7383   38.6930 H         1 S171381     0.0000 
     47 H          21.2358   -1.5653   39.7180 H         1 S171381     0.0000 
     48 H          21.5396  -14.8869   42.9646 H         1 S171381     0.0000 
     49 H          21.7130  -15.7154   44.3320 H         1 S171381     0.0000 
     50 H          20.5091  -14.6603   44.1782 H         1 S171381     0.0000 
     51 H          20.3368    0.3858   39.8674 H         1 S171381     0.0000 
@<TRIPOS>BOND
     1    2    1 ar   
     2    7    1 ar   
     3   27    1 1    
     4    3    2 ar   
     5   28    2 1    
     6    4    3 1    
     7    5    3 ar   
     8    6    5 ar   
     9   29    5 1    
    10    7    6 ar   
    11   30    6 1    
    12    8    7 1    
    13    9    8 1    
    14   31    8 1    
    15   32    8 1    
    16   10    9 1    
    17   14    9 1    
    18   33    9 1    
    19   11   10 2    
    20   12   10 1    
    21   13   12 1    
    22   48   13 1    
    23   49   13 1    
    24   50   13 1    
    25   15   14 am   
    26   34   14 1    
    27   16   15 2    
    28   17   15 1    
    29   18   17 1    
    30   35   17 1    
    31   36   17 1    
    32   19   18 1    
    33   37   18 1    
    34   38   18 1    
    35   20   19 1    
    36   39   19 1    
    37   40   19 1    
    38   21   20 1    
    39   41   20 1    
    40   42   20 1    
    41   22   21 1    
    42   43   21 1    
    43   44   21 1    
    44   23   22 1    
    45   45   22 1    
    46   46   22 1    
    47   24   23 2    
    48   25   23 am   
    49   26   25 1    
    50   47   25 1    
    51   51   26 1    
@<TRIPOS>SUBSTRUCTURE
     1 S171381     1 GROUP   
@<TRIPOS>SET

