#    Name: 2fsn_ADP_2_INTS_M
#    Modification time : Tue Mar 25 13:06:00 2014

@<TRIPOS>MOLECULE
2fsn_ADP_2_INTS_M
   65     0    15     0     0
SMALL
NO_CHARGES


@<TRIPOS>ATOM
      1 NZ         21.1200   10.9925   51.3215 N.4       3 LYC4        0.0000 
      2 NZ         20.4930   12.3220   52.2530 N.4      13 LYL4        0.0000 
      3 NZ         21.7470    9.6630   50.3900 N.4       8 LYP4        0.0000 
      4 N          19.2415   12.6990   52.9780 N.am      2 SEC2        0.0000 
      5 N          20.4930   12.3220   52.2530 N.am     12 SEL2        0.0000 
      6 N          17.9900   13.0760   53.7030 N.am      7 SEP2        0.0000 
      7 N          19.0335   11.6325   51.9780 N.am      2 SEC2        0.0000 
      8 N          17.5740   10.9430   51.7030 N.am      7 SEP2        0.0000 
      9 N          21.1200   10.9925   51.3215 N.am      2 SEC2        0.0000 
     10 N          21.7470    9.6630   50.3900 N.am      7 SEP2        0.0000 
     11 NZ         22.3360   11.0650   51.0395 N.4       3 LYC4        0.0000 
     12 NZ         22.9250   12.4670   51.6890 N.4      13 LYL4        0.0000 
     13 Zn         23.6785   12.3085   52.2820 Zn        4 ZIC7        0.0000 
     14 Zn         22.9250   12.4670   51.6890 Zn       14 ZIL7        0.0000 
     15 Zn         24.4320   12.1500   52.8750 Zn        9 ZIP7        0.0000 
     16 N          22.3360   11.0650   51.0395 N.am      2 SEC2        0.0000 
     17 N          22.9250   12.4670   51.6890 N.am     12 SEL2        0.0000 
     18 N          21.5740   15.5925   51.5830 N.am      2 SEC2        0.0000 
     19 N          21.6130   14.4670   52.1530 N.am     12 SEL2        0.0000 
     20 N          21.5350   16.7180   51.0130 N.am      7 SEP2        0.0000 
     21 N          20.3875   15.2905   52.3965 N.am      2 SEC2        0.0000 
     22 N          19.1620   16.1140   52.6400 N.am      7 SEP2        0.0000 
     23 NZ         22.5950   11.2560   49.7800 N.4       3 LYC4        0.0000 
     24 NZ         23.4430   12.8490   49.1700 N.4      13 LYL4        0.0000 
     25 N          23.9430   13.2020   47.5430 N.am      2 SEC2        0.0000 
     26 N          23.4430   12.8490   49.1700 N.am     12 SEL2        0.0000 
     27 N          24.4430   13.5550   45.9160 N.am      7 SEP2        0.0000 
     28 NZ         21.5445   10.5725   49.5500 N.4       3 LYC4        0.0000 
     29 NZ         21.3420   11.4820   48.7100 N.4      13 LYL4        0.0000 
     30 N          21.5445   10.5725   49.5500 N.am      2 SEC2        0.0000 
     31 N          21.3420   11.4820   48.7100 N.am     12 SEL2        0.0000 
     32 N          20.7245   10.8270   47.3605 N.am      2 SEC2        0.0000 
     33 N          20.1070   10.1720   46.0110 N.am      7 SEP2        0.0000 
     34 N          23.0810   13.6900   46.7585 N.am      2 SEC2        0.0000 
     35 N          21.7190   13.8250   47.6010 N.am     12 SEL2        0.0000 
     36 CA         22.3325   15.6125   49.1150 C.3       5 GLC5        0.0000 
     37 CA         20.7820   14.8210   47.9040 C.3      15 GLL5        0.0000 
     38 CA         23.8830   16.4040   50.3260 C.3      10 GLP5        0.0000 
     39 CA         20.5160   16.1375   49.4325 C.3       5 GLC5        0.0000 
     40 CA         20.2500   17.4540   50.9610 C.3      10 GLP5        0.0000 
     41 CA         20.9200   17.4970   46.5240 C.3       5 GLC5        0.0000 
     42 CA         20.2740   15.5840   46.7190 C.3      15 GLL5        0.0000 
     43 CA         21.5660   19.4100   46.3290 C.3      10 GLP5        0.0000 
     44 O          16.5595   15.4015   46.7170 O.2       1 ALC1        0.0000 
     45 O          17.8660   15.4220   47.0290 O.2      11 ALL1        0.0000 
     46 O          15.2530   15.3810   46.4050 O.2       6 ALP1        0.0000 
     47 CA         18.9815   17.7025   45.5200 C.3       5 GLC5        0.0000 
     48 CA         18.8120   15.6190   44.9120 C.3      15 GLL5        0.0000 
     49 CA         19.1510   19.7860   46.1280 C.3      10 GLP5        0.0000 
     50 CA         20.9165   17.5470   45.3950 C.3       5 GLC5        0.0000 
     51 CA         20.2670   15.6840   44.4610 C.3      15 GLL5        0.0000 
     52 CA         21.9160   14.8105   44.6455 C.3       5 GLC5        0.0000 
     53 CA         23.5650   13.9370   44.8300 C.3      10 GLP5        0.0000 
     54 CA         22.2630   16.6555   44.6150 C.3       5 GLC5        0.0000 
     55 CA         24.2590   17.6270   44.7690 C.3      10 GLP5        0.0000 
     56 CA         22.0215   15.2380   40.0335 C.3       5 GLC5        0.0000 
     57 CA         20.0780   15.4870   39.9480 C.3      15 GLL5        0.0000 
     58 CA         23.9650   14.9890   40.1190 C.3      10 GLP5        0.0000 
     59 CA         20.4990   17.1900   40.0145 C.3       5 GLC5        0.0000 
     60 CA         20.9200   18.8930   40.0810 C.3      10 GLP5        0.0000 
     61 CA         22.0465   14.5697   46.0708 C.3       5 GLC5        0.0000 
     62 CA         21.9693   13.9790   43.3630 C.3       5 GLC5        0.0000 
     63 CA         20.2820   14.6560   42.1520 C.3      15 GLL5        0.0000 
     64 CA         22.1624   14.4740   40.8339 C.3       5 GLC5        0.0000 
     65 CA         20.4650   13.3860   41.6400 C.3      15 GLL5        0.0000 
@<TRIPOS>BOND
@<TRIPOS>SUBSTRUCTURE
     1 ALC1       44 GROUP        1 X    ALC  0     ROOT ALC X 1
     2 SEC2        4 GROUP        1 X    SEC  0     **** SEC X 2
     3 LYC4        1 GROUP        1 X    LYC  0     **** LYC X 4
     4 ZIC7       13 GROUP        1 X    ZIC  0     **** ZIC X 5
     5 GLC5       36 GROUP        1 X    GLC  0     **** GLC X 6
     6 ALP1       46 GROUP        1 Y    ALP  0     ROOT ALP Y 8
     7 SEP2        6 GROUP        1 Y    SEP  0     **** SEP Y 9
     8 LYP4        3 GROUP        1 Y    LYP  0     **** LYP Y 11
     9 ZIP7       15 GROUP        1 Y    ZIP  0     **** ZIP Y 12
    10 GLP5       38 GROUP        1 Y    GLP  0     **** GLP Y 13
    11 ALL1       45 GROUP        1 Z    ALL  0     ROOT ALL Z 15
    12 SEL2        5 GROUP        1 Z    SEL  0     **** SEL Z 16
    13 LYL4        2 GROUP        1 Z    LYL  0     **** LYL Z 18
    14 ZIL7       14 GROUP        1 Z    ZIL  0     **** ZIL Z 19
    15 GLL5       37 GROUP        1 Z    GLL  0     **** GLL Z 20
@<TRIPOS>SET

