#    Name: 2fsn_ADP_2_ligand
#    Modification time : Tue Mar 25 13:06:00 2014

@<TRIPOS>MOLECULE
2fsn_ADP_2_ligand
   39    41     1     0     0
SMALL
NO_CHARGES


@<TRIPOS>ATOM
      1 PB         21.5180   13.0810   51.5290 P.3       1 ADP328      0.0000 
      2 O1B        20.4930   12.3220   52.2530 O.co2     1 ADP328      0.0000 
      3 O2B        22.9250   12.4670   51.6890 O.co2     1 ADP328      0.0000 
      4 O3B        21.6130   14.4670   52.1530 O.co2     1 ADP328      0.0000 
      5 PA         21.9840   12.8610   48.8610 P.3       1 ADP328      0.0000 
      6 O1A        23.4430   12.8490   49.1700 O.co2     1 ADP328      0.0000 
      7 O2A        21.3420   11.4820   48.7100 O.co2     1 ADP328      0.0000 
      8 O3A        21.0930   13.4280   50.0510 O.3       1 ADP328      0.0000 
      9 O5'        21.7190   13.8250   47.6010 O.3       1 ADP328      0.0000 
     10 C5'        20.7820   14.8210   47.9040 C.3       1 ADP328      0.0000 
     11 C4'        20.2740   15.5840   46.7190 C.3       1 ADP328      0.0000 
     12 O4'        21.1270   15.5670   45.6060 O.3       1 ADP328      0.0000 
     13 C3'        18.9400   15.0100   46.2630 C.3       1 ADP328      0.0000 
     14 O3'        17.8660   15.4220   47.0290 O.3       1 ADP328      0.0000 
     15 C2'        18.8120   15.6190   44.9120 C.3       1 ADP328      0.0000 
     16 O2'        18.2270   16.8890   45.0260 O.3       1 ADP328      0.0000 
     17 C1'        20.2670   15.6840   44.4610 C.3       1 ADP328      0.0000 
     18 N9         20.3820   14.5590   43.5030 N.pl3     1 ADP328      0.0000 
     19 C8         20.5710   13.2550   43.8110 C.2       1 ADP328      0.0000 
     20 N7         20.6310   12.5610   42.6900 N.2       1 ADP328      0.0000 
     21 C5         20.4650   13.3860   41.6400 C.ar      1 ADP328      0.0000 
     22 C6         20.4100   13.1380   40.2510 C.ar      1 ADP328      0.0000 
     23 N6         19.6880   12.0670   39.8990 N.pl3     1 ADP328      0.0000 
     24 N1         20.2510   14.2180   39.4110 N.ar      1 ADP328      0.0000 
     25 C2         20.0780   15.4870   39.9480 C.ar      1 ADP328      0.0000 
     26 N3         20.0970   15.7120   41.3210 N.ar      1 ADP328      0.0000 
     27 C4         20.2820   14.6560   42.1520 C.ar      1 ADP328      0.0000 
     28 H          21.2018   15.5682   48.6304 H         1 ADP328      0.0000 
     29 H          19.8898   14.3931   48.4361 H         1 ADP328      0.0000 
     30 H          20.0656   16.6159   47.0326 H         1 ADP328      0.0000 
     31 H          19.0461   13.9666   46.1471 H         1 ADP328      0.0000 
     32 H          18.2978   14.9463   44.2828 H         1 ADP328      0.0000 
     33 H          20.3923   16.6103   43.9410 H         1 ADP328      0.0000 
     34 H          20.6475   12.9062   44.7154 H         1 ADP328      0.0000 
     35 H          19.6378   11.8728   38.9193 H         1 ADP328      0.0000 
     36 H          19.2636   11.5571   40.6473 H         1 ADP328      0.0000 
     37 H          19.9298   16.2935   39.3061 H         1 ADP328      0.0000 
     38 H          17.0609   15.2412   46.4641 H         1 ADP328      0.0000 
     39 H          18.0001   16.9832   45.9953 H         1 ADP328      0.0000 
@<TRIPOS>BOND
     1    2    1 ar   
     2    3    1 ar   
     3    4    1 ar   
     4    8    1 1    
     5    6    5 ar   
     6    7    5 ar   
     7    8    5 1    
     8    9    5 1    
     9   10    9 1    
    10   11   10 1    
    11   28   10 1    
    12   29   10 1    
    13   12   11 1    
    14   13   11 1    
    15   30   11 1    
    16   17   12 1    
    17   14   13 1    
    18   15   13 1    
    19   31   13 1    
    20   38   14 1    
    21   16   15 1    
    22   17   15 1    
    23   32   15 1    
    24   39   16 1    
    25   18   17 1    
    26   33   17 1    
    27   19   18 1    
    28   27   18 1    
    29   20   19 2    
    30   34   19 1    
    31   21   20 1    
    32   22   21 ar   
    33   27   21 ar   
    34   23   22 1    
    35   24   22 ar   
    36   35   23 1    
    37   36   23 1    
    38   25   24 ar   
    39   26   25 ar   
    40   37   25 1    
    41   27   26 ar   
@<TRIPOS>SUBSTRUCTURE
     1 ADP328      1 GROUP   
@<TRIPOS>SET

