#    Name: 2OFX_1_CAVITY_N1_ALL.mol2
#    Modification time : Tue Mar 11 02:34:41 2014

@<TRIPOS>MOLECULE
2OFX_1_CAVITY_N1_ALL.mol2
   69     0     5     0     0
SMALL
NO_CHARGES


@<TRIPOS>ATOM
      1 O          -9.0297   40.3437    6.6797 O.2       2 ALA2        0.0000 
      2 N          -7.7720   41.9318    5.0530 N.2       2 ALA2        0.0000 
      3 N          -7.1450   40.8083    5.8242 N.2       2 ALA2        0.0000 
      4 O          -8.2883   39.9127    5.4490 O.2       2 ALA2        0.0000 
      5 N          -7.6612   38.7892    6.2202 N.2       2 ALA2        0.0000 
      6 O          -9.4316   39.0171    5.0739 O.2       2 ALA2        0.0000 
      7 CA         -9.9479   36.9980    5.4699 C.3       5 GLY6        0.0000 
      8 CZ         -2.2359   38.7982    7.6573 C.ar      4 PHE5        0.0000 
      9 CZ         -3.3792   37.9026    7.2821 C.ar      4 PHE5        0.0000 
     10 N          -7.0306   41.5008    3.8223 N.2       2 ALA2        0.0000 
     11 CA         -5.7765   39.2539    5.3646 C.3       5 GLY6        0.0000 
     12 CA         -5.1495   38.1304    6.1358 C.3       5 GLY6        0.0000 
     13 CA         -4.5225   37.0070    6.9070 C.3       5 GLY6        0.0000 
     14 OG         -7.5469   39.4817    4.2183 O.2       1 SER1        0.0000 
     15 N          -6.9198   38.3583    4.9895 N.2       2 ALA2        0.0000 
     16 OG         -8.6902   38.5861    3.8432 O.2       1 SER1        0.0000 
     17 N          -8.0631   37.4627    4.6143 N.2       2 ALA2        0.0000 
     18 CA         -0.3512   39.2628    6.8017 C.3       5 GLY6        0.0000 
     19 CZ          0.2759   38.1394    7.5729 C.ar      4 PHE5        0.0000 
     20 CZ          0.9029   37.0159    8.3441 C.ar      4 PHE5        0.0000 
     21 CA         -2.1215   39.4907    5.6554 C.3       5 GLY6        0.0000 
     22 CZ         -1.4945   38.3672    6.4266 C.ar      4 PHE5        0.0000 
     23 CZ         -0.8674   37.2438    7.1977 C.ar      4 PHE5        0.0000 
     24 CZ         -0.2404   36.1203    7.9689 C.ar      4 PHE5        0.0000 
     25 CZ         -3.2648   38.5951    5.2803 C.ar      4 PHE5        0.0000 
     26 CZ         -2.6378   37.4716    6.0514 C.ar      4 PHE5        0.0000 
     27 CZ         -2.0107   36.3482    6.8226 C.ar      4 PHE5        0.0000 
     28 CZ         -4.4081   37.6995    4.9051 C.ar      4 PHE5        0.0000 
     29 CZ         -3.7811   36.5760    5.6763 C.ar      4 PHE5        0.0000 
     30 OG         -6.1784   37.9273    3.7588 O.2       1 SER1        0.0000 
     31 CA          2.1606   38.6040    6.7174 C.3       5 GLY6        0.0000 
     32 OG          2.7876   37.4806    7.4885 O.2       1 SER1        0.0000 
     33 OG          3.4146   36.3571    8.2597 O.2       1 SER1        0.0000 
     34 N           0.3903   38.8319    5.5710 N.2       2 ALA2        0.0000 
     35 CA          1.0173   37.7084    6.3422 C.3       5 GLY6        0.0000 
     36 CA          1.6443   36.5850    7.1134 C.3       5 GLY6        0.0000 
     37 CZ         -0.7530   37.9363    5.1959 C.ar      4 PHE5        0.0000 
     38 CZ         -0.1260   36.8128    5.9671 C.ar      4 PHE5        0.0000 
     39 CA          0.5010   35.6894    6.7382 C.3       5 GLY6        0.0000 
     40 CZ         -1.2693   35.9172    5.5919 C.ar      4 PHE5        0.0000 
     41 CZ         -0.6423   34.7937    6.3631 C.ar      4 PHE5        0.0000 
     42 NZ          2.9020   38.1731    5.4867 N.2       3 LYS4        0.0000 
     43 NZ          3.5290   37.0496    6.2578 N.2       3 LYS4        0.0000 
     44 NZ          4.1561   35.9262    7.0290 N.2       3 LYS4        0.0000 
     45 CA          1.1317   38.4009    4.3404 C.3       5 GLY6        0.0000 
     46 NZ          1.7587   37.2775    5.1115 N.2       3 LYS4        0.0000 
     47 CA          2.3857   36.1540    5.8827 C.3       5 GLY6        0.0000 
     48 CA          3.0127   35.0305    6.6539 C.3       5 GLY6        0.0000 
     49 CZ          0.6154   36.3818    4.7364 C.ar      4 PHE5        0.0000 
     50 CA          1.2424   35.2584    5.5075 C.3       5 GLY6        0.0000 
     51 CZ          0.0991   34.3628    5.1324 C.ar      4 PHE5        0.0000 
     52 NZ          4.8975   35.4952    5.7983 N.2       3 LYS4        0.0000 
     53 NZ          2.5001   36.8465    3.8808 N.2       3 LYS4        0.0000 
     54 NZ          3.1271   35.7230    4.6520 N.2       3 LYS4        0.0000 
     55 CA          3.7542   34.5996    5.4232 C.3       5 GLY6        0.0000 
     56 CZ          1.3568   35.9509    3.5057 C.ar      4 PHE5        0.0000 
     57 CZ          1.9838   34.8274    4.2769 C.ar      4 PHE5        0.0000 
     58 CA          2.6109   33.7040    5.0480 C.3       5 GLY6        0.0000 
     59 CZ          0.8405   33.9318    3.9017 C.ar      4 PHE5        0.0000 
     60 CA          1.4676   32.8084    4.6729 C.3       5 GLY6        0.0000 
     61 O           0.3242   31.9127    4.2977 O.2       2 ALA2        0.0000 
     62 CA          0.9513   30.7893    5.0689 C.3       5 GLY6        0.0000 
     63 O           3.8686   35.2921    3.4213 O.2       2 ALA2        0.0000 
     64 CA          4.4956   34.1686    4.1925 C.3       5 GLY6        0.0000 
     65 O           2.7252   34.3965    3.0462 O.2       2 ALA2        0.0000 
     66 O           3.3523   33.2730    3.8174 O.2       2 ALA2        0.0000 
     67 O           2.2090   32.3774    3.4422 O.2       2 ALA2        0.0000 
     68 O           1.0657   31.4818    3.0671 O.2       2 ALA2        0.0000 
     69 O           1.6927   30.3583    3.8382 O.2       2 ALA2        0.0000 
@<TRIPOS>BOND
@<TRIPOS>SUBSTRUCTURE
     1 SER1       14 GROUP   
     2 ALA2        1 GROUP   
     3 LYS4       42 GROUP   
     4 PHE5        8 GROUP   
     5 GLY6        7 GROUP   
@<TRIPOS>SET

