#    Name: 2ofx_PPS_1_INTS_M
#    Modification time : Tue Mar 25 22:30:04 2014

@<TRIPOS>MOLECULE
2ofx_PPS_1_INTS_M
   86     0    15     0     0
SMALL
NO_CHARGES


@<TRIPOS>ATOM
      1 N           2.9415   28.9865    4.3020 N.am      2 SEC2        0.0000 
      2 N           2.3340   29.7680    3.3210 N.am     12 SEL2        0.0000 
      3 N           3.5490   28.2050    5.2830 N.am      7 SEP2        0.0000 
      4 NZ         -0.3570   31.5165    1.4235 N.4       3 LYC4        0.0000 
      5 NZ          0.3320   30.5740    2.2430 N.4      13 LYL4        0.0000 
      6 NZ         -0.6660   33.6770    0.2390 N.4       8 LYP4        0.0000 
      7 N          -0.3570   31.5165    1.4235 N.am      2 SEC2        0.0000 
      8 N           0.3320   30.5740    2.2430 N.am     12 SEL2        0.0000 
      9 N          -1.0460   32.4590    0.6040 N.am      7 SEP2        0.0000 
     10 N           1.0430   30.7745    1.0705 N.am      2 SEC2        0.0000 
     11 N           1.7540   30.9750   -0.1020 N.am      7 SEP2        0.0000 
     12 NZ         -0.6970   30.8660    5.3910 N.4       3 LYC4        0.0000 
     13 NZ          0.3610   30.1970    4.6450 N.4      13 LYL4        0.0000 
     14 NZ         -3.0810   31.6200    6.0640 N.4       8 LYP4        0.0000 
     15 N          -0.6970   30.8660    5.3910 N.am      2 SEC2        0.0000 
     16 N           0.3610   30.1970    4.6450 N.am     12 SEL2        0.0000 
     17 N          -1.7550   31.5350    6.1370 N.am      7 SEP2        0.0000 
     18 N           4.4470   31.6810    4.7250 N.am      2 SEC2        0.0000 
     19 N           3.9820   32.6440    3.9090 N.am     12 SEL2        0.0000 
     20 N           4.9120   30.7180    5.5410 N.am      7 SEP2        0.0000 
     21 NZ          1.6080   33.4360    1.1095 N.4       3 LYC4        0.0000 
     22 NZ          2.6650   32.7650    1.6620 N.4      13 LYL4        0.0000 
     23 N           1.6080   33.4360    1.1095 N.am      2 SEC2        0.0000 
     24 N           2.6650   32.7650    1.6620 N.am     12 SEL2        0.0000 
     25 N           0.5510   34.1070    0.5570 N.am      7 SEP2        0.0000 
     26 N           2.2095   31.8700    0.7800 N.am      2 SEC2        0.0000 
     27 CA          1.9915   33.9585    6.2720 C.3       5 GLC5        0.0000 
     28 CA          2.1910   34.9020    4.8000 C.3      15 GLL5        0.0000 
     29 CA          1.7920   33.0150    7.7440 C.3      10 GLP5        0.0000 
     30 CA         -0.1930   37.2240    4.0110 C.3       5 GLC5        0.0000 
     31 CA          1.0050   38.1390    5.3000 C.3      15 GLL5        0.0000 
     32 CA         -1.3910   36.3090    2.7220 C.3      10 GLP5        0.0000 
     33 CA          1.0550   38.6790    3.3975 C.3       5 GLC5        0.0000 
     34 CA          1.1050   39.2190    1.4950 C.3      10 GLP5        0.0000 
     35 CA          0.3785   33.8470    7.6145 C.3       5 GLC5        0.0000 
     36 CA         -1.0350   34.6790    7.4850 C.3      15 GLL5        0.0000 
     37 CA         -1.1070   33.2195    8.8300 C.3       5 GLC5        0.0000 
     38 CA         -1.1790   31.7600   10.1750 C.3      10 GLP5        0.0000 
     39 N          -3.0505   33.6830    7.1180 N.am      2 SEC2        0.0000 
     40 N          -2.3760   34.7880    7.5180 N.am     12 SEL2        0.0000 
     41 N          -3.7250   32.5780    6.7180 N.am      7 SEP2        0.0000 
     42 N          -2.7445   34.0340    8.9635 N.am      2 SEC2        0.0000 
     43 N          -3.1130   33.2800   10.4090 N.am      7 SEP2        0.0000 
     44 CA         -3.9940   34.9930    5.3060 C.3       5 GLC5        0.0000 
     45 CA         -3.0060   35.8340    6.9370 C.3      15 GLL5        0.0000 
     46 CA         -4.9820   34.1520    3.6750 C.3      10 GLP5        0.0000 
     47 CA         -3.8710   35.4515    8.5930 C.3       5 GLC5        0.0000 
     48 CA         -4.7360   35.0690   10.2490 C.3      10 GLP5        0.0000 
     49 O          -5.0610   34.7985    7.5580 O.2       1 ALC1        0.0000 
     50 O          -4.3580   35.9290    6.9770 O.2      11 ALL1        0.0000 
     51 O          -5.7640   33.6680    8.1390 O.2       6 ALP1        0.0000 
     52 N           4.3260   39.4745    6.4435 N.am      2 SEC2        0.0000 
     53 N           2.9070   39.2400    6.1420 N.am     12 SEL2        0.0000 
     54 N           5.7450   39.7090    6.7450 N.am      7 SEP2        0.0000 
     55 O           3.4185   39.3830    4.8465 O.2       1 ALC1        0.0000 
     56 O           2.9070   39.2400    6.1420 O.2      11 ALL1        0.0000 
     57 O           3.9300   39.5260    3.5510 O.2       6 ALP1        0.0000 
     58 O           4.1535   38.7270    5.3045 O.2       1 ALC1        0.0000 
     59 O           5.4000   38.2140    4.4670 O.2       6 ALP1        0.0000 
     60 CA          2.2750   34.8990    7.0045 C.3       5 GLC5        0.0000 
     61 CA          2.7580   36.7830    6.2650 C.3      15 GLL5        0.0000 
     62 N           4.9595   38.2705    6.5775 N.am      2 SEC2        0.0000 
     63 N           4.1740   36.8320    6.4100 N.am     12 SEL2        0.0000 
     64 NZ          5.4595   33.8775    8.5350 N.4       3 LYC4        0.0000 
     65 NZ          4.5750   34.8590    7.9710 N.4      13 LYL4        0.0000 
     66 NZ          6.3440   32.8960    9.0990 N.4       8 LYP4        0.0000 
     67 N           5.4595   33.8775    8.5350 N.am      2 SEC2        0.0000 
     68 N           4.5750   34.8590    7.9710 N.am     12 SEL2        0.0000 
     69 N           6.3440   32.8960    9.0990 N.am      7 SEP2        0.0000 
     70 NZ          5.2445   38.4965    7.7185 N.4       3 LYC4        0.0000 
     71 NZ          4.7440   37.2840    8.6920 N.4      13 LYL4        0.0000 
     72 NZ          5.7450   39.7090    6.7450 N.4       8 LYP4        0.0000 
     73 N           3.9465   37.1100    9.6865 N.am      2 SEC2        0.0000 
     74 N           4.7440   37.2840    8.6920 N.am     12 SEL2        0.0000 
     75 N           3.1490   36.9360   10.6810 N.am      7 SEP2        0.0000 
     76 NZ          6.3990   34.5755    8.1170 N.4       3 LYC4        0.0000 
     77 NZ          6.4540   36.2550    7.1350 N.4      13 LYL4        0.0000 
     78 NZ          6.0995   37.9820    6.9400 N.4       3 LYC4        0.0000 
     79 Zn          7.3670   36.4125    6.8905 Zn        4 ZIC7        0.0000 
     80 Zn          6.4540   36.2550    7.1350 Zn       14 ZIL7        0.0000 
     81 Zn          8.2800   36.5700    6.6460 Zn        9 ZIP7        0.0000 
     82 CA          0.5197   35.3195    3.9917 C.3       5 GLC5        0.0000 
     83 CA          2.5140   36.3800    4.8290 C.3      15 GLL5        0.0000 
     84 CA         -1.3130   34.9980    3.1690 C.3      10 GLP5        0.0000 
     85 CA          1.3827   39.1915    7.4145 C.3       5 GLC5        0.0000 
     86 CA          1.2440   40.2540    8.9800 C.3      10 GLP5        0.0000 
@<TRIPOS>BOND
@<TRIPOS>SUBSTRUCTURE
     1 ALC1       49 GROUP        1 X    ALC  0     ROOT ALC X 1
     2 SEC2        1 GROUP        1 X    SEC  0     **** SEC X 2
     3 LYC4        4 GROUP        1 X    LYC  0     **** LYC X 4
     4 ZIC7       79 GROUP        1 X    ZIC  0     **** ZIC X 5
     5 GLC5       27 GROUP        1 X    GLC  0     **** GLC X 6
     6 ALP1       51 GROUP        1 Y    ALP  0     ROOT ALP Y 8
     7 SEP2        3 GROUP        1 Y    SEP  0     **** SEP Y 9
     8 LYP4        6 GROUP        1 Y    LYP  0     **** LYP Y 11
     9 ZIP7       81 GROUP        1 Y    ZIP  0     **** ZIP Y 12
    10 GLP5       29 GROUP        1 Y    GLP  0     **** GLP Y 13
    11 ALL1       50 GROUP        1 Z    ALL  0     ROOT ALL Z 15
    12 SEL2        2 GROUP        1 Z    SEL  0     **** SEL Z 16
    13 LYL4        5 GROUP        1 Z    LYL  0     **** LYL Z 18
    14 ZIL7       80 GROUP        1 Z    ZIL  0     **** ZIL Z 19
    15 GLL5       28 GROUP        1 Z    GLL  0     **** GLL Z 20
@<TRIPOS>SET

