#    Name: 2ofx_PPS_1_ligand
#    Modification time : Tue Mar 25 22:30:04 2014

@<TRIPOS>MOLECULE
2ofx_PPS_1_ligand
   42    44     1     0     0
SMALL
NO_CHARGES


@<TRIPOS>ATOM
      1 S2          1.1240   30.6100    3.4660 S.o2      1 PPS1100     0.0000 
      2 OS1         2.3340   29.7680    3.3210 O.co2     1 PPS1100     0.0000 
      3 OS2         0.3320   30.5740    2.2430 O.co2     1 PPS1100     0.0000 
      4 OS3         0.3610   30.1970    4.6450 O.co2     1 PPS1100     0.0000 
      5 O6P         1.5040   32.1500    3.8440 O.3       1 PPS1100     0.0000 
      6 P2          2.7100   32.9400    3.1590 P.3       1 PPS1100     0.0000 
      7 O4P         3.9820   32.6440    3.9090 O.co2     1 PPS1100     0.0000 
      8 O5P         2.6650   32.7650    1.6620 O.co2     1 PPS1100     0.0000 
      9 O5'         2.3030   34.4600    3.4520 O.3       1 PPS1100     0.0000 
     10 C5'         2.1910   34.9020    4.8000 C.3       1 PPS1100     0.0000 
     11 C4'         2.5140   36.3800    4.8290 C.3       1 PPS1100     0.0000 
     12 O4'         1.4090   37.1300    4.3540 O.3       1 PPS1100     0.0000 
     13 C1'         1.0050   38.1390    5.3000 C.3       1 PPS1100     0.0000 
     14 N9         -0.3960   37.8030    5.6680 N.pl3     1 PPS1100     0.0000 
     15 C4         -0.8650   36.7090    6.2950 C.ar      1 PPS1100     0.0000 
     16 N3         -0.2870   35.6190    6.8970 N.ar      1 PPS1100     0.0000 
     17 C2         -1.0350   34.6790    7.4850 C.ar      1 PPS1100     0.0000 
     18 N1         -2.3760   34.7880    7.5180 N.ar      1 PPS1100     0.0000 
     19 C6         -3.0060   35.8340    6.9370 C.ar      1 PPS1100     0.0000 
     20 N6         -4.3580   35.9290    6.9770 N.pl3     1 PPS1100     0.0000 
     21 C5         -2.2540   36.8330    6.3290 C.ar      1 PPS1100     0.0000 
     22 N7         -2.5850   37.9900    5.6970 N.2       1 PPS1100     0.0000 
     23 C8         -1.4420   38.5540    5.2880 C.2       1 PPS1100     0.0000 
     24 C2'         2.0380   38.1190    6.3980 C.3       1 PPS1100     0.0000 
     25 O2'         2.9070   39.2400    6.1420 O.3       1 PPS1100     0.0000 
     26 C3'         2.7580   36.7830    6.2650 C.3       1 PPS1100     0.0000 
     27 O3'         4.1740   36.8320    6.4100 O.3       1 PPS1100     0.0000 
     28 P1          5.0350   36.2410    7.6460 P.3       1 PPS1100     0.0000 
     29 O1P         4.5750   34.8590    7.9710 O.co2     1 PPS1100     0.0000 
     30 O2P         4.7440   37.2840    8.6920 O.co2     1 PPS1100     0.0000 
     31 O3P         6.4540   36.2550    7.1350 O.co2     1 PPS1100     0.0000 
     32 H           2.8926   34.3868    5.4563 H         1 PPS1100     0.0000 
     33 H           1.1822   34.7658    5.1899 H         1 PPS1100     0.0000 
     34 H           3.3985   36.5592    4.2678 H         1 PPS1100     0.0000 
     35 H           1.0327   39.1002    4.8012 H         1 PPS1100     0.0000 
     36 H          -0.5746   33.8456    7.9267 H         1 PPS1100     0.0000 
     37 H          -4.7559   36.7329    6.5349 H         1 PPS1100     0.0000 
     38 H          -4.8376   35.1868    7.4451 H         1 PPS1100     0.0000 
     39 H          -1.3760   39.3920    4.7849 H         1 PPS1100     0.0000 
     40 H           1.5509   38.1778    7.3257 H         1 PPS1100     0.0000 
     41 H           2.2911   36.0621    6.8821 H         1 PPS1100     0.0000 
     42 H           3.1717   39.1482    5.1821 H         1 PPS1100     0.0000 
@<TRIPOS>BOND
     1    2    1 ar   
     2    3    1 ar   
     3    4    1 ar   
     4    5    1 1    
     5    6    5 1    
     6    7    6 ar   
     7    8    6 ar   
     8    9    6 1    
     9   10    9 1    
    10   11   10 1    
    11   32   10 1    
    12   33   10 1    
    13   12   11 1    
    14   26   11 1    
    15   34   11 1    
    16   13   12 1    
    17   14   13 1    
    18   24   13 1    
    19   35   13 1    
    20   15   14 1    
    21   23   14 1    
    22   16   15 ar   
    23   21   15 ar   
    24   17   16 ar   
    25   18   17 ar   
    26   36   17 1    
    27   19   18 ar   
    28   20   19 1    
    29   21   19 ar   
    30   37   20 1    
    31   38   20 1    
    32   22   21 1    
    33   23   22 2    
    34   39   23 1    
    35   25   24 1    
    36   26   24 1    
    37   40   24 1    
    38   42   25 1    
    39   27   26 1    
    40   41   26 1    
    41   28   27 1    
    42   29   28 ar   
    43   30   28 ar   
    44   31   28 ar   
@<TRIPOS>SUBSTRUCTURE
     1 PPS1100     1 GROUP   
@<TRIPOS>SET

