#    Name: 4jvb_1M0_1_INTS_M
#    Modification time : Tue Mar 25 06:33:57 2014

@<TRIPOS>MOLECULE
4jvb_1M0_1_INTS_M
  117     0     6     0     0
SMALL
NO_CHARGES


@<TRIPOS>ATOM
      1 CA         24.1705   -6.4765  -16.3660 C.3       2 GLC5        0.0000 
      2 CA         24.6040   -8.6720  -16.3760 C.3       6 GLL5        0.0000 
      3 CA         23.7370   -4.2810  -16.3560 C.3       4 GLP5        0.0000 
      4 CA         24.5585   -7.4560  -18.0770 C.3       2 GLC5        0.0000 
      5 CA         24.5130   -6.2400  -19.7780 C.3       4 GLP5        0.0000 
      6 CA         21.7300  -10.6905  -17.8070 C.3       2 GLC5        0.0000 
      7 CA         23.3590  -10.8250  -16.3100 C.3       6 GLL5        0.0000 
      8 CA         20.1010  -10.5560  -19.3040 C.3       4 GLP5        0.0000 
      9 CA         25.8690   -5.6585  -14.5065 C.3       2 GLC5        0.0000 
     10 CA         25.5080   -7.5510  -14.3680 C.3       6 GLL5        0.0000 
     11 CA         26.2300   -3.7660  -14.6450 C.3       4 GLP5        0.0000 
     12 CA         27.1815   -8.1780  -15.7315 C.3       2 GLC5        0.0000 
     13 CA         28.8550   -8.8050  -17.0950 C.3       4 GLP5        0.0000 
     14 CA         28.3100   -8.9370  -14.9415 C.3       2 GLC5        0.0000 
     15 CA         27.7650   -9.0690  -12.7880 C.3       6 GLL5        0.0000 
     16 CA         29.3210   -7.8990  -10.3230 C.3       2 GLC5        0.0000 
     17 CA         28.3050   -9.8340  -10.5680 C.3       6 GLL5        0.0000 
     18 CA         30.3370   -5.9640  -10.0780 C.3       4 GLP5        0.0000 
     19 N          24.5965   -7.4035   -9.4940 N.am      1 SEC2        0.0000 
     20 N          25.0780   -7.9920  -10.7420 N.am      5 SEL2        0.0000 
     21 N          24.1150   -6.8150   -8.2460 N.am      3 SEP2        0.0000 
     22 N          25.8700   -6.7335  -10.4600 N.am      1 SEC2        0.0000 
     23 N          26.6620   -5.4750  -10.1780 N.am      3 SEP2        0.0000 
     24 CA         24.9325   -4.6160  -13.4535 C.3       2 GLC5        0.0000 
     25 CA         23.6350   -5.4660  -12.2620 C.3       6 GLL5        0.0000 
     26 CA         19.7840   -1.7510  -12.6440 C.3       2 GLC5        0.0000 
     27 CA         19.2330   -3.6680  -13.3040 C.3       6 GLL5        0.0000 
     28 CA         20.3350    0.1660  -11.9840 C.3       4 GLP5        0.0000 
     29 CA         19.3390   -3.4265  -11.4280 C.3       2 GLC5        0.0000 
     30 CA         19.4450   -3.1850   -9.5520 C.3       4 GLP5        0.0000 
     31 CA         16.0225   -5.1740  -13.4035 C.3       2 GLC5        0.0000 
     32 CA         17.0570   -3.5260  -14.4440 C.3       6 GLL5        0.0000 
     33 CA         14.9880   -6.8220  -12.3630 C.3       4 GLP5        0.0000 
     34 CA         14.3590   -3.3970  -10.7710 C.3       2 GLC5        0.0000 
     35 CA         15.9270   -2.9940  -12.2480 C.3       6 GLL5        0.0000 
     36 CA         12.7910   -3.8000   -9.2940 C.3       4 GLP5        0.0000 
     37 CA         15.4575   -4.9080  -12.3055 C.3       2 GLC5        0.0000 
     38 CA         17.6860   -3.0895  -10.9000 C.3       2 GLC5        0.0000 
     39 CA         20.9100    1.1545  -16.3355 C.3       2 GLC5        0.0000 
     40 CA         18.9330    0.4730  -16.8150 C.3       6 GLL5        0.0000 
     41 CA         22.8870    1.8360  -15.8560 C.3       4 GLP5        0.0000 
     42 CA         21.6190   -1.3530  -19.5765 C.3       2 GLC5        0.0000 
     43 CA         19.6790   -0.8840  -18.6010 C.3       6 GLL5        0.0000 
     44 CA         23.5590   -1.8220  -20.5520 C.3       4 GLP5        0.0000 
     45 N          19.9795   -3.4010  -19.3820 N.am      1 SEC2        0.0000 
     46 N          19.7330   -3.3000  -18.1020 N.am      5 SEL2        0.0000 
     47 N          20.2260   -3.5020  -20.6620 N.am      3 SEP2        0.0000 
     48 CA         20.1125   -9.2820  -17.9090 C.3       2 GLC5        0.0000 
     49 CA         20.1240   -8.0080  -16.5140 C.3       6 GLL5        0.0000 
     50 CA         17.1410   -6.6740  -17.8275 C.3       2 GLC5        0.0000 
     51 CA         18.6130   -6.2580  -17.2580 C.3       6 GLL5        0.0000 
     52 CA         15.6690   -7.0900  -18.3970 C.3       4 GLP5        0.0000 
     53 CA         25.8342   -9.1627  -17.9080 C.3       2 GLC5        0.0000 
     54 CA         23.9030   -9.7190  -16.9840 C.3       6 GLL5        0.0000 
     55 CA         27.4150   -9.1300  -19.1360 C.3       4 GLP5        0.0000 
     56 CA         25.2760  -11.3910  -16.1595 C.3       2 GLC5        0.0000 
     57 CA         26.9210  -12.5100  -15.6720 C.3       4 GLP5        0.0000 
     58 CA         24.0365  -10.8745  -18.3930 C.3       2 GLC5        0.0000 
     59 CA         24.4420  -11.4770  -20.1390 C.3       4 GLP5        0.0000 
     60 CA         21.6330  -10.6765  -14.7995 C.3       2 GLC5        0.0000 
     61 CA         19.7910  -10.5290  -13.9890 C.3       4 GLP5        0.0000 
     62 CA         24.7522  -11.3652  -13.4017 C.3       2 GLC5        0.0000 
     63 CA         23.5910  -10.8230  -14.9100 C.3       6 GLL5        0.0000 
     64 CA         25.5860  -12.4590  -12.1890 C.3       4 GLP5        0.0000 
     65 CA         25.6309  -10.9866  -15.2374 C.3       2 GLC5        0.0000 
     66 CA         24.2460   -9.7200  -14.3190 C.3       6 GLL5        0.0000 
     67 CA         26.3858  -10.6335  -12.3670 C.3       2 GLC5        0.0000 
     68 CA         28.7240  -10.8328  -13.6620 C.3       2 GLC5        0.0000 
     69 CA         29.2220  -12.2620  -14.9650 C.3       4 GLP5        0.0000 
     70 CA         28.9330  -11.5400  -10.5395 C.3       2 GLC5        0.0000 
     71 CA         28.6870   -9.7380  -11.9300 C.3       6 GLL5        0.0000 
     72 CA         29.3700  -13.2940   -9.8300 C.3       4 GLP5        0.0000 
     73 CA         27.0410  -11.1225  -11.7190 C.3       2 GLC5        0.0000 
     74 CA         27.2590  -10.3125   -8.5173 C.3       2 GLC5        0.0000 
     75 CA         26.8150  -11.0790   -6.7070 C.3       4 GLP5        0.0000 
     76 CA         25.6382  -10.5038  -10.6210 C.3       2 GLC5        0.0000 
     77 CA         27.1010   -9.2580  -10.0870 C.3       6 GLL5        0.0000 
     78 CA         24.5880  -12.0610  -10.7190 C.3       4 GLP5        0.0000 
     79 CA         24.8917   -9.2112   -9.4470 C.3       2 GLC5        0.0000 
     80 CA         23.0950   -9.4760   -8.3710 C.3       4 GLP5        0.0000 
     81 CA         21.6952   -6.5862  -10.7750 C.3       2 GLC5        0.0000 
     82 CA         23.4970   -6.8380  -12.1980 C.3       6 GLL5        0.0000 
     83 CA         20.5290   -6.0770   -9.2090 C.3       4 GLP5        0.0000 
     84 CA         20.7950   -8.5233  -12.0727 C.3       2 GLC5        0.0000 
     85 CA         22.2260   -7.3530  -12.4840 C.3       6 GLL5        0.0000 
     86 CA         19.8900  -10.1590  -11.4870 C.3       4 GLP5        0.0000 
     87 CA         20.9058   -5.9000  -11.0303 C.3       2 GLC5        0.0000 
     88 CA         21.1740   -6.4220  -12.8330 C.3       6 GLL5        0.0000 
     89 CA         21.8328   -5.5452  -10.8095 C.3       2 GLC5        0.0000 
     90 CA         22.6380   -4.5610  -12.5580 C.3       6 GLL5        0.0000 
     91 CA         22.8758   -4.5367  -14.5350 C.3       2 GLC5        0.0000 
     92 CA         15.3717   -1.1448  -12.7315 C.3       2 GLC5        0.0000 
     93 CA         16.8400   -2.4410  -13.3660 C.3       6 GLL5        0.0000 
     94 CA         14.3600    0.4280  -12.6560 C.3       4 GLP5        0.0000 
     95 CA         17.4087    0.5570  -17.4480 C.3       2 GLC5        0.0000 
     96 CA         18.8040   -0.6970  -16.0530 C.3       6 GLL5        0.0000 
     97 CA         15.9490    1.2260  -18.4620 C.3       4 GLP5        0.0000 
     98 CA         17.7410    0.4972  -18.4185 C.3       2 GLC5        0.0000 
     99 CA         19.3870    0.4210  -18.1490 C.3       6 GLL5        0.0000 
    100 CA         17.8543   -1.9264  -18.8624 C.3       2 GLC5        0.0000 
    101 CA         16.2290   -2.4310  -19.8270 C.3       4 GLP5        0.0000 
    102 CA         21.3505   -0.2724  -18.0095 C.3       2 GLC5        0.0000 
    103 CA         19.5070   -1.9980  -17.8390 C.3       6 GLL5        0.0000 
    104 CA         23.1810    0.5700  -17.9120 C.3       4 GLP5        0.0000 
    105 CA         21.1760   -5.6450  -17.9913 C.3       2 GLC5        0.0000 
    106 CA         20.7480   -5.7280  -16.3580 C.3       6 GLL5        0.0000 
    107 CA         22.2070   -5.7680  -19.3500 C.3       4 GLP5        0.0000 
    108 CA         22.1695   -5.2880  -16.3751 C.3       2 GLC5        0.0000 
    109 CA         21.0590   -7.0680  -16.1560 C.3       6 GLL5        0.0000 
    110 CA         21.3993   -6.6530  -17.8425 C.3       2 GLC5        0.0000 
    111 CA         17.7522   -8.4125  -16.2885 C.3       2 GLC5        0.0000 
    112 CA         15.9850   -9.0200  -15.7900 C.3       4 GLP5        0.0000 
    113 CA         19.7721   -9.0495  -15.3432 C.3       2 GLC5        0.0000 
    114 CA         18.9150   -7.6020  -17.0600 C.3       6 GLL5        0.0000 
    115 CA         18.7480   -7.7890  -18.8505 C.3       2 GLC5        0.0000 
    116 CA         18.7320   -8.6480  -20.5420 C.3       4 GLP5        0.0000 
    117 CA         20.4855   -6.3490  -18.2545 C.3       2 GLC5        0.0000 
@<TRIPOS>BOND
@<TRIPOS>SUBSTRUCTURE
     1 SEC2       19 GROUP        1 X    SEC  0     ROOT SEC X 2
     2 GLC5        1 GROUP        1 X    GLC  0     **** GLC X 6
     3 SEP2       21 GROUP        1 Y    SEP  0     ROOT SEP Y 9
     4 GLP5        3 GROUP        1 Y    GLP  0     **** GLP Y 13
     5 SEL2       20 GROUP        1 Z    SEL  0     ROOT SEL Z 16
     6 GLL5        2 GROUP        1 Z    GLL  0     **** GLL Z 20
@<TRIPOS>SET

