#    Name: 4jvb_1M0_1_ligand
#    Modification time : Tue Mar 25 06:33:57 2014

@<TRIPOS>MOLECULE
4jvb_1M0_1_ligand
   73    79     1     0     0
SMALL
NO_CHARGES


@<TRIPOS>ATOM
      1 CBK        24.6040   -8.6720  -16.3760 C.ar      1 1M0201      0.0000 
      2 CBL        23.9030   -9.7190  -16.9840 C.ar      1 1M0201      0.0000 
      3 CBM        23.3590  -10.8250  -16.3100 C.ar      1 1M0201      0.0000 
      4 CBN        23.5910  -10.8230  -14.9100 C.ar      1 1M0201      0.0000 
      5 CBO        24.2460   -9.7200  -14.3190 C.ar      1 1M0201      0.0000 
      6 CBI        24.7630   -8.6550  -14.9910 C.ar      1 1M0201      0.0000 
      7 CBH        25.5080   -7.5510  -14.3680 C.3       1 1M0201      0.0000 
      8 NBC        25.5820   -7.8320  -12.8900 N.pl3     1 1M0201      0.0000 
      9 CBB        26.6060   -8.5470  -12.3020 C.ar      1 1M0201      0.0000 
     10 CBG        27.7650   -9.0690  -12.7880 C.ar      1 1M0201      0.0000 
     11 CBF        28.6870   -9.7380  -11.9300 C.ar      1 1M0201      0.0000 
     12 CBE        28.3050   -9.8340  -10.5680 C.ar      1 1M0201      0.0000 
     13 CBD        27.1010   -9.2580  -10.0870 C.ar      1 1M0201      0.0000 
     14 CBA        26.2760   -8.6350  -10.9590 C.ar      1 1M0201      0.0000 
     15 NAZ        25.0780   -7.9920  -10.7420 N.2       1 1M0201      0.0000 
     16 CAY        24.6400   -7.5300  -11.9210 C.2       1 1M0201      0.0000 
     17 CAV        23.4970   -6.8380  -12.1980 C.ar      1 1M0201      0.0000 
     18 CAU        22.2260   -7.3530  -12.4840 C.ar      1 1M0201      0.0000 
     19 CAT        21.1740   -6.4220  -12.8330 C.ar      1 1M0201      0.0000 
     20 CAW        23.6350   -5.4660  -12.2620 C.ar      1 1M0201      0.0000 
     21 CAX        22.6380   -4.5610  -12.5580 C.ar      1 1M0201      0.0000 
     22 CAS        21.3910   -5.0240  -12.8700 C.ar      1 1M0201      0.0000 
     23 OAR        20.5910   -3.9290  -13.2210 O.3       1 1M0201      0.0000 
     24 CAQ        19.2330   -3.6680  -13.3040 C.3       1 1M0201      0.0000 
     25 CAJ        18.5530   -3.8570  -14.6740 C.3       1 1M0201      0.0000 
     26 CBJ        17.0570   -3.5260  -14.4440 C.3       1 1M0201      0.0000 
     27 CBP        16.8400   -2.4410  -13.3660 C.2       1 1M0201      0.0000 
     28 CBQ        15.9270   -2.9940  -12.2480 C.2       1 1M0201      0.0000 
     29 NAI        19.0160   -3.1840  -16.0240 N.pl3     1 1M0201      0.0000 
     30 CAE        19.0530   -1.9210  -16.5500 C.ar      1 1M0201      0.0000 
     31 CAF        18.8040   -0.6970  -16.0530 C.ar      1 1M0201      0.0000 
     32 CAA        18.9330    0.4730  -16.8150 C.ar      1 1M0201      0.0000 
     33 CAB        19.3870    0.4210  -18.1490 C.ar      1 1M0201      0.0000 
     34 CAC        19.6790   -0.8840  -18.6010 C.ar      1 1M0201      0.0000 
     35 CAD        19.5070   -1.9980  -17.8390 C.ar      1 1M0201      0.0000 
     36 NAG        19.7330   -3.3000  -18.1020 N.2       1 1M0201      0.0000 
     37 CAH        19.3850   -3.9970  -17.0300 C.2       1 1M0201      0.0000 
     38 CAK        19.5420   -5.3160  -16.9070 C.ar      1 1M0201      0.0000 
     39 CAL        20.7480   -5.7280  -16.3580 C.ar      1 1M0201      0.0000 
     40 CAM        21.0590   -7.0680  -16.1560 C.ar      1 1M0201      0.0000 
     41 CAN        20.1240   -8.0080  -16.5140 C.ar      1 1M0201      0.0000 
     42 CAO        18.9150   -7.6020  -17.0600 C.ar      1 1M0201      0.0000 
     43 CAP        18.6130   -6.2580  -17.2580 C.ar      1 1M0201      0.0000 
     44 H          24.9992   -7.9197  -16.9497 H         1 1M0201      0.0000 
     45 H          23.7708   -9.6765  -18.0357 H         1 1M0201      0.0000 
     46 H          22.8616  -11.5393  -16.7606 H         1 1M0201      0.0000 
     47 H          23.2882  -11.6077  -14.3417 H         1 1M0201      0.0000 
     48 H          24.3329   -9.7421  -13.2542 H         1 1M0201      0.0000 
     49 H          24.9972   -6.6082  -14.5261 H         1 1M0201      0.0000 
     50 H          26.5128   -7.4932  -14.7702 H         1 1M0201      0.0000 
     51 H          28.0071   -8.9941  -13.7916 H         1 1M0201      0.0000 
     52 H          29.5380  -10.1100  -12.2676 H         1 1M0201      0.0000 
     53 H          28.9192  -10.3364   -9.9083 H         1 1M0201      0.0000 
     54 H          26.8869   -9.3291   -9.0882 H         1 1M0201      0.0000 
     55 H          22.0284   -8.3372  -12.4537 H         1 1M0201      0.0000 
     56 H          20.2443   -6.8019  -13.0590 H         1 1M0201      0.0000 
     57 H          24.6130   -5.0659  -12.0619 H         1 1M0201      0.0000 
     58 H          22.8359   -3.5521  -12.5426 H         1 1M0201      0.0000 
     59 H          18.9860   -2.6094  -12.9801 H         1 1M0201      0.0000 
     60 H          18.6365   -4.2984  -12.5736 H         1 1M0201      0.0000 
     61 H          18.5230   -4.9808  -14.8694 H         1 1M0201      0.0000 
     62 H          16.5366   -4.4386  -14.1402 H         1 1M0201      0.0000 
     63 H          16.6229   -3.1825  -15.3871 H         1 1M0201      0.0000 
     64 H          17.1909   -1.6142  -13.3854 H         1 1M0201      0.0000 
     65 H          18.4975   -0.5864  -15.0507 H         1 1M0201      0.0000 
     66 H          18.6941    1.3833  -16.3984 H         1 1M0201      0.0000 
     67 H          19.4903    1.2156  -18.7101 H         1 1M0201      0.0000 
     68 H          20.0489   -0.9784  -19.5839 H         1 1M0201      0.0000 
     69 H          21.4516   -5.0027  -16.0850 H         1 1M0201      0.0000 
     70 H          21.9546   -7.3360  -15.7545 H         1 1M0201      0.0000 
     71 H          20.3134   -9.0113  -16.3803 H         1 1M0201      0.0000 
     72 H          18.2122   -8.3220  -17.3300 H         1 1M0201      0.0000 
     73 H          17.7108   -5.9899  -17.6590 H         1 1M0201      0.0000 
@<TRIPOS>BOND
     1    2    1 ar   
     2    6    1 ar   
     3   44    1 1    
     4    3    2 ar   
     5   45    2 1    
     6    4    3 ar   
     7   46    3 1    
     8    5    4 ar   
     9   47    4 1    
    10    6    5 ar   
    11   48    5 1    
    12    7    6 1    
    13    8    7 1    
    14   49    7 1    
    15   50    7 1    
    16    9    8 1    
    17   16    8 1    
    18   10    9 ar   
    19   14    9 ar   
    20   11   10 ar   
    21   51   10 1    
    22   12   11 ar   
    23   52   11 1    
    24   13   12 ar   
    25   53   12 1    
    26   14   13 ar   
    27   54   13 1    
    28   15   14 1    
    29   16   15 2    
    30   17   16 1    
    31   18   17 ar   
    32   20   17 ar   
    33   19   18 ar   
    34   55   18 1    
    35   22   19 ar   
    36   56   19 1    
    37   21   20 ar   
    38   57   20 1    
    39   22   21 ar   
    40   58   21 1    
    41   23   22 1    
    42   24   23 1    
    43   25   24 1    
    44   59   24 1    
    45   60   24 1    
    46   26   25 1    
    47   29   25 1    
    48   61   25 1    
    49   27   26 1    
    50   62   26 1    
    51   63   26 1    
    52   28   27 2    
    53   64   27 1    
    54   30   29 1    
    55   37   29 1    
    56   31   30 ar   
    57   35   30 ar   
    58   32   31 ar   
    59   65   31 1    
    60   33   32 ar   
    61   66   32 1    
    62   34   33 ar   
    63   67   33 1    
    64   35   34 ar   
    65   68   34 1    
    66   36   35 1    
    67   37   36 2    
    68   38   37 1    
    69   39   38 ar   
    70   43   38 ar   
    71   40   39 ar   
    72   69   39 1    
    73   41   40 ar   
    74   70   40 1    
    75   42   41 ar   
    76   71   41 1    
    77   43   42 ar   
    78   72   42 1    
    79   73   43 1    
@<TRIPOS>SUBSTRUCTURE
     1 1M0201      1 GROUP   
@<TRIPOS>SET

