#    Name: 2f7e_2EA_1_INTS_M
#    Modification time : Tue Mar 25 12:20:48 2014

@<TRIPOS>MOLECULE
2f7e_2EA_1_INTS_M
   79     0    12     0     0
SMALL
NO_CHARGES


@<TRIPOS>ATOM
      1 CA          6.4910    8.1310    1.9490 C.3       4 GLC5        0.0000 
      2 CA          7.1390   10.0700    2.8160 C.3      12 GLL5        0.0000 
      3 CA          5.8430    6.1920    1.0820 C.3       8 GLP5        0.0000 
      4 CA          3.5395   10.6770    0.0520 C.3       4 GLC5        0.0000 
      5 CA          4.6990    9.6670    1.3390 C.3      12 GLL5        0.0000 
      6 CA          2.3800   11.6870   -1.2350 C.3       8 GLP5        0.0000 
      7 CA          5.5730   10.8585   -0.7100 C.3       4 GLC5        0.0000 
      8 CA          5.9660    9.6760    0.6850 C.3      12 GLL5        0.0000 
      9 CA          5.1800   12.0410   -2.1050 C.3       8 GLP5        0.0000 
     10 N           1.9040    9.6455    5.1490 N.am      2 SEC2        0.0000 
     11 N           3.3720   10.0440    4.7870 N.am     10 SEL2        0.0000 
     12 N           0.4360    9.2470    5.5110 N.am      6 SEP2        0.0000 
     13 CA          1.6000   10.5900    3.9315 C.3       4 GLC5        0.0000 
     14 CA          3.3960    9.8550    3.4280 C.3      12 GLL5        0.0000 
     15 CA         -0.1960   11.3250    4.4350 C.3       8 GLP5        0.0000 
     16 CA          1.9660    8.3165    3.6905 C.3       4 GLC5        0.0000 
     17 CA          0.5360    6.7780    3.9530 C.3       8 GLP5        0.0000 
     18 CA         11.2320   14.1790   -0.7880 C.3       4 GLC5        0.0000 
     19 CA         12.8970   13.7010    0.3450 C.3      12 GLL5        0.0000 
     20 CA          9.5670   14.6570   -1.9210 C.3       8 GLP5        0.0000 
     21 CA         12.2985   12.8880   -1.8155 C.3       4 GLC5        0.0000 
     22 CA         13.7820   12.9750   -0.5090 C.3      12 GLL5        0.0000 
     23 CA         10.8150   12.8010   -3.1220 C.3       8 GLP5        0.0000 
     24 CA         10.8710   11.3520   -1.9415 C.3       4 GLC5        0.0000 
     25 CA         10.9270    9.9030   -0.7610 C.3      12 GLL5        0.0000 
     26 N          10.2380   11.0000   -2.5405 N.am      2 SEC2        0.0000 
     27 N           9.8270   10.5090   -1.2770 N.am     10 SEL2        0.0000 
     28 N          10.6490   11.4910   -3.8040 N.am      6 SEP2        0.0000 
     29 CA          9.0625   11.9000   -1.6115 C.3       4 GLC5        0.0000 
     30 CA          8.6530   10.4970   -0.5890 C.3      12 GLL5        0.0000 
     31 CA          9.4720   13.3030   -2.6340 C.3       8 GLP5        0.0000 
     32 CA          6.9165   11.2690   -1.3470 C.3       4 GLC5        0.0000 
     33 CA          9.2890    8.7400   -1.7505 C.3       4 GLC5        0.0000 
     34 CA          9.9250    6.9830   -2.9120 C.3       8 GLP5        0.0000 
     35 OD1        13.7695    7.1020   -0.1535 O.co2     3 ASC3        0.0000 
     36 OD1        14.1940    7.0140    1.2520 O.co2    11 ASL3        0.0000 
     37 OD1        13.3450    7.1900   -1.5590 O.co2     7 ASP3        0.0000 
     38 O          13.2525    5.9445    1.1550 O.2       1 ALC1        0.0000 
     39 O          14.1940    7.0140    1.2520 O.2       9 ALL1        0.0000 
     40 O          12.3110    4.8750    1.0580 O.2       5 ALP1        0.0000 
     41 O          13.7695    7.1020   -0.1535 O.2       1 ALC1        0.0000 
     42 O          13.3450    7.1900   -1.5590 O.2       5 ALP1        0.0000 
     43 CA          4.3163    8.4573   -0.3735 C.3       4 GLC5        0.0000 
     44 CA          3.3000    7.2430   -1.7590 C.3       8 GLP5        0.0000 
     45 CA          5.5805    7.9559    1.2228 C.3       4 GLC5        0.0000 
     46 CA          4.6410    9.8600    2.7450 C.3      12 GLL5        0.0000 
     47 CA          5.1747   11.8550    6.1480 C.3       4 GLC5        0.0000 
     48 CA          5.8080   10.2560    4.8940 C.3      12 GLL5        0.0000 
     49 CA          5.1820   13.4630    7.0990 C.3       8 GLP5        0.0000 
     50 CA          6.7633   12.0591    3.7480 C.3       4 GLC5        0.0000 
     51 CA          7.3700   13.9570    3.4730 C.3       8 GLP5        0.0000 
     52 CA          4.3377   11.7250    4.1100 C.3       4 GLC5        0.0000 
     53 CA          3.5080   13.2030    3.0230 C.3       8 GLP5        0.0000 
     54 CA          4.8298    8.4390    4.7920 C.3       4 GLC5        0.0000 
     55 CA          4.5270   10.2380    5.5000 C.3      12 GLL5        0.0000 
     56 CA          4.4920    6.6310    4.3870 C.3       8 GLP5        0.0000 
     57 CA          3.8474   11.5188    2.9254 C.3       4 GLC5        0.0000 
     58 CA          4.3394    8.2328    3.6074 C.3       4 GLC5        0.0000 
     59 CA         15.1997   13.2480    0.7840 C.3       4 GLC5        0.0000 
     60 CA         17.0600   13.1580    1.6500 C.3       8 GLP5        0.0000 
     61 CA         14.1613   15.3020   -0.2810 C.3       4 GLC5        0.0000 
     62 CA         14.9830   17.2660   -0.4800 C.3       8 GLP5        0.0000 
     63 CA         12.7140   15.1560    1.7442 C.3       4 GLC5        0.0000 
     64 CA         12.6950   16.8580    2.4920 C.3       8 GLP5        0.0000 
     65 CA         13.9125   13.4175    3.2410 C.3       4 GLC5        0.0000 
     66 CA         13.1270   11.9790    2.1040 C.3      12 GLL5        0.0000 
     67 CA         14.9770   14.2420    4.6060 C.3       8 GLP5        0.0000 
     68 CA         14.9540   12.8755    1.7630 C.3       4 GLC5        0.0000 
     69 CA         11.0155   13.2302    1.6051 C.3       4 GLC5        0.0000 
     70 CA          9.1010   13.7440    1.6600 C.3       8 GLP5        0.0000 
     71 CA         15.7656   11.9596    1.2997 C.3       4 GLC5        0.0000 
     72 CA         14.0340   11.2410    1.2190 C.3      12 GLL5        0.0000 
     73 CA          8.6770   11.9642    0.9415 C.3       4 GLC5        0.0000 
     74 CA          7.9343    7.9057    0.6827 C.3       4 GLC5        0.0000 
     75 CA          8.5120    9.8700    0.6690 C.3      12 GLL5        0.0000 
     76 CA          7.1080    6.2570    0.2480 C.3       8 GLP5        0.0000 
     77 CA         10.6884    7.9771   -0.7365 C.3       4 GLC5        0.0000 
     78 CA          9.6680    9.2370    1.2000 C.3      12 GLL5        0.0000 
     79 CA         11.0850    6.5490   -2.0050 C.3       8 GLP5        0.0000 
@<TRIPOS>BOND
@<TRIPOS>SUBSTRUCTURE
     1 ALC1       38 GROUP        1 X    ALC  0     ROOT ALC X 1
     2 SEC2       10 GROUP        1 X    SEC  0     **** SEC X 2
     3 ASC3       35 GROUP        1 X    ASC  0     **** ASC X 3
     4 GLC5        1 GROUP        1 X    GLC  0     **** GLC X 6
     5 ALP1       40 GROUP        1 Y    ALP  0     ROOT ALP Y 8
     6 SEP2       12 GROUP        1 Y    SEP  0     **** SEP Y 9
     7 ASP3       37 GROUP        1 Y    ASP  0     **** ASP Y 10
     8 GLP5        3 GROUP        1 Y    GLP  0     **** GLP Y 13
     9 ALL1       39 GROUP        1 Z    ALL  0     ROOT ALL Z 15
    10 SEL2       11 GROUP        1 Z    SEL  0     **** SEL Z 16
    11 ASL3       36 GROUP        1 Z    ASL  0     **** ASL Z 17
    12 GLL5        2 GROUP        1 Z    GLL  0     **** GLL Z 20
@<TRIPOS>SET

