#    Name: 2f7e_2EA_1_ligand
#    Modification time : Tue Mar 25 12:20:48 2014

@<TRIPOS>MOLECULE
2f7e_2EA_1_ligand
   53    57     1     0     0
SMALL
NO_CHARGES


@<TRIPOS>ATOM
      1 C1          7.1940    9.8740    1.4010 C.ar      1 2EA351      0.0000 
      2 C2          7.1390   10.0700    2.8160 C.ar      1 2EA351      0.0000 
      3 C3          5.8710   10.0630    3.4880 C.ar      1 2EA351      0.0000 
      4 C4          4.6410    9.8600    2.7450 C.ar      1 2EA351      0.0000 
      5 C5          4.6990    9.6670    1.3390 C.ar      1 2EA351      0.0000 
      6 C6          5.9660    9.6760    0.6850 C.ar      1 2EA351      0.0000 
      7 C7          5.8080   10.2560    4.8940 C.ar      1 2EA351      0.0000 
      8 C8          4.5270   10.2380    5.5000 C.ar      1 2EA351      0.0000 
      9 N1          3.3720   10.0440    4.7870 N.ar      1 2EA351      0.0000 
     10 C9          3.3960    9.8550    3.4280 C.ar      1 2EA351      0.0000 
     11 C10        12.8970   13.7010    0.3450 C.ar      1 2EA351      0.0000 
     12 C11        13.7820   12.9750   -0.5090 C.ar      1 2EA351      0.0000 
     13 C12        14.3270   11.7740   -0.0610 C.ar      1 2EA351      0.0000 
     14 C13        14.0340   11.2410    1.2190 C.ar      1 2EA351      0.0000 
     15 C14        13.1270   11.9790    2.1040 C.ar      1 2EA351      0.0000 
     16 C15        12.5690   13.2070    1.6480 C.ar      1 2EA351      0.0000 
     17 N2         15.1980   10.9050   -0.7010 N.2       1 2EA351      0.0000 
     18 C16        15.4590    9.8460    0.1300 C.2       1 2EA351      0.0000 
     19 C17        14.7620   10.0150    1.3200 C.3       1 2EA351      0.0000 
     20 C18        10.9270    9.9030   -0.7610 C.ar      1 2EA351      0.0000 
     21 N3          9.8270   10.5090   -1.2770 N.ar      1 2EA351      0.0000 
     22 C19         8.6530   10.4970   -0.5890 C.ar      1 2EA351      0.0000 
     23 C20         8.5120    9.8700    0.6690 C.ar      1 2EA351      0.0000 
     24 C21         9.6680    9.2370    1.2000 C.ar      1 2EA351      0.0000 
     25 C22        10.9040    9.2440    0.4890 C.ar      1 2EA351      0.0000 
     26 O1         12.1110    8.6530    0.8970 O.3       1 2EA351      0.0000 
     27 C24        12.2990    8.2130    2.2420 C.3       1 2EA351      0.0000 
     28 C23        13.8010    7.8520    2.3940 C.3       1 2EA351      0.0000 
     29 C25        14.7550    9.0790    2.5210 C.3       1 2EA351      0.0000 
     30 N4         14.1940    7.0140    1.2520 N.4       1 2EA351      0.0000 
     31 H           7.9909   10.2135    3.3448 H         1 2EA351      0.0000 
     32 H           3.8510    9.5243    0.8046 H         1 2EA351      0.0000 
     33 H           6.0054    9.5361   -0.3353 H         1 2EA351      0.0000 
     34 H           6.6380   10.3992    5.4349 H         1 2EA351      0.0000 
     35 H           4.4811   10.3805    6.5359 H         1 2EA351      0.0000 
     36 H           2.5370    9.7101    2.8925 H         1 2EA351      0.0000 
     37 H          12.4933   14.5815    0.0243 H         1 2EA351      0.0000 
     38 H          14.0017   13.3438   -1.4302 H         1 2EA351      0.0000 
     39 H          12.9155   11.6091    3.0111 H         1 2EA351      0.0000 
     40 H          11.9384   13.7346    2.2441 H         1 2EA351      0.0000 
     41 H          16.0303    9.1018   -0.0689 H         1 2EA351      0.0000 
     42 H          15.8810   10.7522    1.8620 H         1 2EA351      0.0000 
     43 H          11.8301    9.9110   -1.2863 H         1 2EA351      0.0000 
     44 H           7.8055   10.9665   -0.9907 H         1 2EA351      0.0000 
     45 H           9.6148    8.7667    2.1095 H         1 2EA351      0.0000 
     46 H          11.7274    7.3224    2.4697 H         1 2EA351      0.0000 
     47 H          12.0773    8.9872    2.9654 H         1 2EA351      0.0000 
     48 H          13.9012    7.2588    3.3119 H         1 2EA351      0.0000 
     49 H          14.4658    9.6435    3.4248 H         1 2EA351      0.0000 
     50 H          15.7769    8.6995    2.6968 H         1 2EA351      0.0000 
     51 H          14.0594    7.4865    0.3810 H         1 2EA351      0.0000 
     52 H          15.1581    6.7523    1.2977 H         1 2EA351      0.0000 
     53 H          13.6623    6.1681    1.2118 H         1 2EA351      0.0000 
@<TRIPOS>BOND
     1    2    1 ar   
     2    6    1 ar   
     3   23    1 1    
     4    3    2 ar   
     5   31    2 1    
     6    4    3 ar   
     7    7    3 ar   
     8    5    4 ar   
     9   10    4 ar   
    10    6    5 ar   
    11   32    5 1    
    12   33    6 1    
    13    8    7 ar   
    14   34    7 1    
    15    9    8 ar   
    16   35    8 1    
    17   10    9 ar   
    18   36   10 1    
    19   12   11 ar   
    20   16   11 ar   
    21   37   11 1    
    22   13   12 ar   
    23   38   12 1    
    24   14   13 ar   
    25   17   13 1    
    26   15   14 ar   
    27   19   14 1    
    28   16   15 ar   
    29   39   15 1    
    30   40   16 1    
    31   18   17 2    
    32   19   18 1    
    33   41   18 1    
    34   29   19 1    
    35   42   19 1    
    36   21   20 ar   
    37   25   20 ar   
    38   43   20 1    
    39   22   21 ar   
    40   23   22 ar   
    41   44   22 1    
    42   24   23 ar   
    43   25   24 ar   
    44   45   24 1    
    45   26   25 1    
    46   27   26 1    
    47   28   27 1    
    48   46   27 1    
    49   47   27 1    
    50   29   28 1    
    51   30   28 1    
    52   48   28 1    
    53   49   29 1    
    54   50   29 1    
    55   51   30 1    
    56   52   30 1    
    57   53   30 1    
@<TRIPOS>SUBSTRUCTURE
     1 2EA351      1 GROUP   
@<TRIPOS>SET

