#    Name: 1EKO_1_CAVITY_N1_ALL.mol2
#    Modification time : Mon Mar 10 21:07:41 2014

@<TRIPOS>MOLECULE
1EKO_1_CAVITY_N1_ALL.mol2
   97     0     5     0     0
SMALL
NO_CHARGES


@<TRIPOS>ATOM
      1 OG         74.5022   38.8740   87.1554 O.2       1 SER1        0.0000 
      2 OG         74.9476   37.3546   90.4710 O.2       1 SER1        0.0000 
      3 DU         74.2924   35.3429   90.3157 H         5 CUB7        0.0000 
      4 OG         73.9907   36.6163   89.5826 O.2       1 SER1        0.0000 
      5 OG         73.6889   37.8896   88.8494 O.2       1 SER1        0.0000 
      6 CZ         73.3355   34.6047   89.4273 C.ar      3 PHE5        0.0000 
      7 DU         73.0338   35.8780   88.6941 H         5 CUB7        0.0000 
      8 OG         72.7320   37.1514   87.9610 O.2       1 SER1        0.0000 
      9 OG         72.4303   38.4247   87.2278 O.2       1 SER1        0.0000 
     10 CZ         72.3787   33.8664   88.5389 C.ar      3 PHE5        0.0000 
     11 CZ         72.0769   35.1397   87.8057 C.ar      3 PHE5        0.0000 
     12 DU         71.7751   36.4131   87.0725 H         5 CUB7        0.0000 
     13 CZ         71.4734   37.6864   86.3394 C.ar      3 PHE5        0.0000 
     14 CA         74.7378   33.8235   93.6313 C.3       4 GLY6        0.0000 
     15 DU         74.4360   35.0968   92.8981 H         5 CUB7        0.0000 
     16 O          74.1343   36.3702   92.1650 O.2       2 ALA2        0.0000 
     17 O          73.8325   37.6436   91.4318 O.2       2 ALA2        0.0000 
     18 CA         73.4791   34.3586   92.0097 C.3       4 GLY6        0.0000 
     19 DU         73.1774   35.6319   91.2765 H         5 CUB7        0.0000 
     20 DU         72.8756   36.9053   90.5434 H         5 CUB7        0.0000 
     21 OG         72.5739   38.1786   89.8102 O.2       1 SER1        0.0000 
     22 CZ         72.2205   34.8936   90.3881 C.ar      3 PHE5        0.0000 
     23 CZ         71.9187   36.1670   89.6549 C.ar      3 PHE5        0.0000 
     24 CA         71.6170   37.4403   88.9218 C.3       4 GLY6        0.0000 
     25 CZ         70.9619   35.4287   88.7665 C.ar      3 PHE5        0.0000 
     26 DU         70.6601   36.7020   88.0334 H         5 CUB7        0.0000 
     27 CZ         70.3584   37.9754   87.3002 C.ar      3 PHE5        0.0000 
     28 CZ         70.0050   34.6904   87.8781 C.ar      3 PHE5        0.0000 
     29 CZ         69.7032   35.9638   87.1449 C.ar      3 PHE5        0.0000 
     30 CZ         69.4015   37.2371   86.4118 C.ar      3 PHE5        0.0000 
     31 CA         75.5365   35.5890   96.3689 C.3       4 GLY6        0.0000 
     32 CA         74.5796   34.8508   95.4805 C.3       4 GLY6        0.0000 
     33 CA         74.2779   36.1241   94.7474 C.3       4 GLY6        0.0000 
     34 CA         73.6227   34.1125   94.5921 C.3       4 GLY6        0.0000 
     35 O          73.3210   35.3858   93.8589 O.2       2 ALA2        0.0000 
     36 O          73.0192   36.6592   93.1258 O.2       2 ALA2        0.0000 
     37 CZ         72.3641   34.6475   92.9705 C.ar      3 PHE5        0.0000 
     38 O          72.0623   35.9209   92.2374 O.2       2 ALA2        0.0000 
     39 CA         71.7606   37.1942   91.5042 C.3       4 GLY6        0.0000 
     40 CZ         71.1055   35.1826   91.3489 C.ar      3 PHE5        0.0000 
     41 CZ         70.8037   36.4560   90.6158 C.ar      3 PHE5        0.0000 
     42 CA         70.5020   37.7293   89.8826 C.3       4 GLY6        0.0000 
     43 CZ         69.8468   35.7177   89.7273 C.ar      3 PHE5        0.0000 
     44 CZ         69.5451   36.9910   88.9942 C.ar      3 PHE5        0.0000 
     45 CZ         68.5882   36.2527   88.1058 C.ar      3 PHE5        0.0000 
     46 CZ         67.6313   35.5144   87.2173 C.ar      3 PHE5        0.0000 
     47 CZ         67.3295   36.7878   86.4842 C.ar      3 PHE5        0.0000 
     48 O          66.6744   34.7762   86.3289 O.2       2 ALA2        0.0000 
     49 DU         66.3727   36.0495   85.5958 H         5 CUB7        0.0000 
     50 CZ         66.0709   37.3229   84.8626 C.ar      3 PHE5        0.0000 
     51 O          65.4158   35.3112   84.7073 O.2       2 ALA2        0.0000 
     52 N          65.1140   36.5846   83.9742 N.2       2 ALA2        0.0000 
     53 CA         73.4646   35.1397   96.4413 C.3       4 GLY6        0.0000 
     54 N          72.5077   34.4014   95.5529 N.2       2 ALA2        0.0000 
     55 O          72.2059   35.6748   94.8198 O.2       2 ALA2        0.0000 
     56 O          70.9473   36.2099   93.1982 O.2       2 ALA2        0.0000 
     57 O          70.6456   37.4832   92.4650 O.2       2 ALA2        0.0000 
     58 CZ         69.6887   36.7449   91.5766 C.ar      3 PHE5        0.0000 
     59 CA         69.3869   38.0183   90.8434 C.3       4 GLY6        0.0000 
     60 CA         68.4300   37.2800   89.9550 C.3       4 GLY6        0.0000 
     61 CZ         68.1283   38.5533   89.2219 C.ar      3 PHE5        0.0000 
     62 CZ         67.4731   36.5417   89.0666 C.ar      3 PHE5        0.0000 
     63 CZ         67.1714   37.8151   88.3334 C.ar      3 PHE5        0.0000 
     64 CZ         66.5163   35.8034   88.1782 C.ar      3 PHE5        0.0000 
     65 CZ         66.2145   37.0768   87.4450 C.ar      3 PHE5        0.0000 
     66 CZ         65.9127   38.3501   86.7118 C.ar      3 PHE5        0.0000 
     67 O          65.2576   36.3385   86.5566 O.2       2 ALA2        0.0000 
     68 CA         64.9559   37.6118   85.8234 C.3       4 GLY6        0.0000 
     69 O          64.3007   35.6002   85.6681 O.2       2 ALA2        0.0000 
     70 CA         68.5736   37.0339   92.5374 C.3       4 GLY6        0.0000 
     71 CA         68.2719   38.3072   91.8043 C.3       4 GLY6        0.0000 
     72 CA         67.6167   36.2956   91.6490 C.3       4 GLY6        0.0000 
     73 CA         67.3150   37.5690   90.9158 C.3       4 GLY6        0.0000 
     74 CA         67.0132   38.8423   90.1827 C.3       4 GLY6        0.0000 
     75 CZ         66.6599   35.5573   90.7606 C.ar      3 PHE5        0.0000 
     76 CZ         66.3581   36.8307   90.0274 C.ar      3 PHE5        0.0000 
     77 DU         66.0563   38.1040   89.2943 H         5 CUB7        0.0000 
     78 CZ         65.7546   39.3774   88.5611 C.ar      3 PHE5        0.0000 
     79 CZ         65.4012   36.0924   89.1390 C.ar      3 PHE5        0.0000 
     80 O          65.0995   37.3657   88.4058 O.2       2 ALA2        0.0000 
     81 CA         64.7977   38.6391   87.6727 C.3       4 GLY6        0.0000 
     82 O          64.1426   36.6275   87.5174 O.2       2 ALA2        0.0000 
     83 CA         63.8408   37.9008   86.7842 C.3       4 GLY6        0.0000 
     84 CA         66.1999   37.8579   91.8767 C.3       4 GLY6        0.0000 
     85 O          65.8982   39.1313   91.1435 O.2       2 ALA2        0.0000 
     86 CA         65.5448   35.8463   91.7214 C.3       4 GLY6        0.0000 
     87 CA         65.2431   37.1196   90.9882 C.3       4 GLY6        0.0000 
     88 O          64.9413   38.3930   90.2551 O.2       2 ALA2        0.0000 
     89 CZ         64.6396   39.6664   89.5219 C.ar      3 PHE5        0.0000 
     90 CZ         64.2862   36.3814   90.0998 C.ar      3 PHE5        0.0000 
     91 CZ         63.9844   37.6547   89.3666 C.ar      3 PHE5        0.0000 
     92 CA         63.6827   38.9281   88.6335 C.3       4 GLY6        0.0000 
     93 CZ         63.0275   36.9164   88.4782 C.ar      3 PHE5        0.0000 
     94 CZ         64.1280   37.4086   91.9491 C.ar      3 PHE5        0.0000 
     95 N          63.8263   38.6820   91.2159 N.2       2 ALA2        0.0000 
     96 CZ         63.1711   36.6703   91.0606 C.ar      3 PHE5        0.0000 
     97 N          62.8694   37.9437   90.3275 N.2       2 ALA2        0.0000 
@<TRIPOS>BOND
@<TRIPOS>SUBSTRUCTURE
     1 SER1        1 GROUP   
     2 ALA2       16 GROUP   
     3 PHE5        6 GROUP   
     4 GLY6       14 GROUP   
     5 CUB7        3 GROUP   
@<TRIPOS>SET

