#    Name: 1eko_I84_1_INTS_M
#    Modification time : Tue Mar 25 00:03:26 2014

@<TRIPOS>MOLECULE
1eko_I84_1_INTS_M
   31     0     6     0     0
SMALL
NO_CHARGES


@<TRIPOS>ATOM
      1 CA         70.6605   31.7140   86.6080 C.3       2 GLC5        0.0000 
      2 CA         71.0980   33.3940   85.7190 C.3       6 GLL5        0.0000 
      3 CA         70.2230   30.0340   87.4970 C.3       4 GLP5        0.0000 
      4 CA         70.4170   33.2830   87.8335 C.3       2 GLC5        0.0000 
      5 CA         69.7360   33.1720   89.9480 C.3       4 GLP5        0.0000 
      6 CA         64.5565   38.7290   85.5085 C.3       2 GLC5        0.0000 
      7 CA         65.4100   37.2430   86.3660 C.3       6 GLL5        0.0000 
      8 CA         63.7030   40.2150   84.6510 C.3       4 GLP5        0.0000 
      9 CA         66.9745   38.3500   85.8580 C.3       2 GLC5        0.0000 
     10 CA         68.5390   39.4570   85.3500 C.3       4 GLP5        0.0000 
     11 CA         68.4755   35.4365   90.9210 C.3       2 GLC5        0.0000 
     12 CA         68.0240   37.3050   90.8090 C.3       6 GLL5        0.0000 
     13 CA         68.9270   33.5680   91.0330 C.3       4 GLP5        0.0000 
     14 CA         67.4600   36.6785   92.6155 C.3       2 GLC5        0.0000 
     15 CA         66.8960   36.0520   94.4220 C.3       4 GLP5        0.0000 
     16 CA         62.8450   39.7880   91.4335 C.3       2 GLC5        0.0000 
     17 CA         63.7230   37.7590   91.4490 C.3       6 GLL5        0.0000 
     18 CA         61.9670   41.8170   91.4180 C.3       4 GLP5        0.0000 
     19 CA         63.2095   37.1790   92.9385 C.3       2 GLC5        0.0000 
     20 CA         62.6960   36.5990   94.4280 C.3       4 GLP5        0.0000 
     21 N          61.5740   39.3625   90.8835 N.am      1 SEC2        0.0000 
     22 N          61.4600   38.1300   90.9090 N.am      5 SEL2        0.0000 
     23 N          61.6880   40.5950   90.8580 N.am      3 SEP2        0.0000 
     24 N          65.7300   40.4975   91.1955 N.am      1 SEC2        0.0000 
     25 N          65.8810   39.3380   90.1320 N.am      5 SEL2        0.0000 
     26 N          65.5790   41.6570   92.2590 N.am      3 SEP2        0.0000 
     27 CA         70.4749   30.6688   85.6281 C.3       2 GLC5        0.0000 
     28 CA         70.9900   32.7060   84.3620 C.3       6 GLL5        0.0000 
     29 CA         69.0623   38.7720   90.5072 C.3       2 GLC5        0.0000 
     30 CA         67.8690   36.9450   89.3520 C.3       6 GLL5        0.0000 
     31 CA         70.1780   40.4190   90.9340 C.3       4 GLP5        0.0000 
@<TRIPOS>BOND
@<TRIPOS>SUBSTRUCTURE
     1 SEC2       21 GROUP        1 X    SEC  0     ROOT SEC X 2
     2 GLC5        1 GROUP        1 X    GLC  0     **** GLC X 6
     3 SEP2       23 GROUP        1 Y    SEP  0     ROOT SEP Y 9
     4 GLP5        3 GROUP        1 Y    GLP  0     **** GLP Y 13
     5 SEL2       22 GROUP        1 Z    SEL  0     ROOT SEL Z 16
     6 GLL5        2 GROUP        1 Z    GLL  0     **** GLL Z 20
@<TRIPOS>SET

