#    Name: 1eko_I84_1_ligand
#    Modification time : Tue Mar 25 00:03:26 2014

@<TRIPOS>MOLECULE
1eko_I84_1_ligand
   48    49     1     0     0
SMALL
NO_CHARGES


@<TRIPOS>ATOM
      1 C1         71.0380   32.6580   81.8940 C.ar      1 I84320      0.0000 
      2 C2         71.1540   33.3870   83.1060 C.ar      1 I84320      0.0000 
      3 C3         70.9900   32.7060   84.3620 C.ar      1 I84320      0.0000 
      4 C4         70.7150   31.3120   84.3670 C.ar      1 I84320      0.0000 
      5 C5         70.6010   30.5980   83.1540 C.ar      1 I84320      0.0000 
      6 C6         70.7630   31.2690   81.9190 C.ar      1 I84320      0.0000 
      7 C11        71.4480   34.8680   83.0890 C.3       1 I84320      0.0000 
      8 C15        71.0980   33.3940   85.7190 C.3       1 I84320      0.0000 
      9 C16        69.7350   33.9750   86.1780 C.2       1 I84320      0.0000 
     10 N19        69.8740   35.2070   86.7710 N.am      1 I84320      0.0000 
     11 C20        68.8290   35.8860   87.3640 C.ar      1 I84320      0.0000 
     12 O21        68.6690   33.3620   86.0080 O.2       1 I84320      0.0000 
     13 C22        68.9200   36.2490   88.7180 C.ar      1 I84320      0.0000 
     14 C23        67.8690   36.9450   89.3520 C.ar      1 I84320      0.0000 
     15 C24        66.6870   37.2970   88.6140 C.ar      1 I84320      0.0000 
     16 C25        66.6030   36.9220   87.2240 C.ar      1 I84320      0.0000 
     17 C26        67.6710   36.2270   86.6240 C.ar      1 I84320      0.0000 
     18 C29        65.4100   37.2430   86.3660 C.3       1 I84320      0.0000 
     19 C33        68.0240   37.3050   90.8090 C.3       1 I84320      0.0000 
     20 S37        65.3560   38.1890   89.4410 S.o2      1 I84320      0.0000 
     21 N38        64.8000   37.1930   90.7100 N.pl3     1 I84320      0.0000 
     22 C39        63.7230   37.7590   91.4490 C.3       1 I84320      0.0000 
     23 C40        62.3720   37.1620   91.0610 C.2       1 I84320      0.0000 
     24 O43        61.4600   38.1300   90.9090 O.co2     1 I84320      0.0000 
     25 O44        62.1460   35.9990   90.9270 O.co2     1 I84320      0.0000 
     26 O45        64.2090   38.3100   88.6010 O.2       1 I84320      0.0000 
     27 O46        65.8810   39.3380   90.1320 O.2       1 I84320      0.0000 
     28 H          71.1536   33.1385   81.0001 H         1 I84320      0.0000 
     29 H          70.5991   30.8245   85.2597 H         1 I84320      0.0000 
     30 H          70.4015   29.5968   83.1670 H         1 I84320      0.0000 
     31 H          70.6815   30.7507   81.0428 H         1 I84320      0.0000 
     32 H          71.8205   34.2084   85.6598 H         1 I84320      0.0000 
     33 H          71.4395   32.6773   86.4664 H         1 I84320      0.0000 
     34 H          70.8284   35.6593   86.7743 H         1 I84320      0.0000 
     35 H          69.7618   36.0058   89.2561 H         1 I84320      0.0000 
     36 H          67.6119   35.9613   85.6318 H         1 I84320      0.0000 
     37 H          65.2485   36.3838   90.7974 H         1 I84320      0.0000 
     38 H          63.6571   38.8547   91.2973 H         1 I84320      0.0000 
     39 H          63.8525   37.6056   92.5388 H         1 I84320      0.0000 
     40 H          72.3199   35.0685   82.6422 H         1 I84320      0.0000 
     41 H          70.7430   35.3810   82.5994 H         1 I84320      0.0000 
     42 H          71.4981   35.2473   84.0129 H         1 I84320      0.0000 
     43 H          65.2499   38.2283   86.3062 H         1 I84320      0.0000 
     44 H          65.5239   36.9073   85.4309 H         1 I84320      0.0000 
     45 H          64.5725   36.8312   86.7253 H         1 I84320      0.0000 
     46 H          68.1452   36.4938   91.3811 H         1 I84320      0.0000 
     47 H          68.8172   37.8939   90.9637 H         1 I84320      0.0000 
     48 H          67.2241   37.7931   91.1581 H         1 I84320      0.0000 
@<TRIPOS>BOND
     1    2    1 ar   
     2    6    1 ar   
     3   28    1 1    
     4    3    2 ar   
     5    7    2 1    
     6    4    3 ar   
     7    8    3 1    
     8    5    4 ar   
     9   29    4 1    
    10    6    5 ar   
    11   30    5 1    
    12   31    6 1    
    13   40    7 1    
    14   41    7 1    
    15   42    7 1    
    16    9    8 1    
    17   32    8 1    
    18   33    8 1    
    19   10    9 am   
    20   12    9 2    
    21   11   10 1    
    22   34   10 1    
    23   13   11 ar   
    24   17   11 ar   
    25   14   13 ar   
    26   35   13 1    
    27   15   14 ar   
    28   19   14 1    
    29   16   15 ar   
    30   20   15 1    
    31   17   16 ar   
    32   18   16 1    
    33   36   17 1    
    34   43   18 1    
    35   44   18 1    
    36   45   18 1    
    37   46   19 1    
    38   47   19 1    
    39   48   19 1    
    40   21   20 1    
    41   26   20 2    
    42   27   20 2    
    43   22   21 1    
    44   37   21 1    
    45   23   22 1    
    46   38   22 1    
    47   39   22 1    
    48   24   23 ar   
    49   25   23 ar   
@<TRIPOS>SUBSTRUCTURE
     1 I84320      1 GROUP   
@<TRIPOS>SET

