#    Name: 1hdg_NAD_1_INTS_M
#    Modification time : Tue Mar 25 05:21:53 2014

@<TRIPOS>MOLECULE
1hdg_NAD_1_INTS_M
   84     0     9     0     0
SMALL
NO_CHARGES


@<TRIPOS>ATOM
      1 N          29.3535   52.1655  139.1885 N.am      2 SEC2        0.0000 
      2 N          28.6400   50.8260  139.7570 N.am      8 SEL2        0.0000 
      3 N          30.0670   53.5050  138.6200 N.am      5 SEP2        0.0000 
      4 N          28.5745   49.7160  138.8175 N.am      2 SEC2        0.0000 
      5 N          28.5090   48.6060  137.8780 N.am      5 SEP2        0.0000 
      6 CA         29.9085   53.7975  144.9090 C.3       3 GLC5        0.0000 
      7 CA         29.4050   51.9790  143.9440 C.3       9 GLL5        0.0000 
      8 CA         30.4120   55.6160  145.8740 C.3       6 GLP5        0.0000 
      9 O          32.6275   51.0720  144.9225 O.2       1 ALC1        0.0000 
     10 O          31.5590   51.1080  143.5690 O.2       7 ALL1        0.0000 
     11 O          33.6960   51.0360  146.2760 O.2       4 ALP1        0.0000 
     12 O          32.2445   52.0020  144.4815 O.2       1 ALC1        0.0000 
     13 O          32.9300   52.8960  145.3940 O.2       4 ALP1        0.0000 
     14 O          32.5740   50.3275  146.0110 O.2       1 ALC1        0.0000 
     15 O          31.4520   49.6190  145.7460 O.2       7 ALL1        0.0000 
     16 CA         30.1895   53.5750  146.0335 C.3       3 GLC5        0.0000 
     17 CA         29.9670   51.5340  146.1930 C.3       9 GLL5        0.0000 
     18 CA         27.6890   52.8495  148.6330 C.3       3 GLC5        0.0000 
     19 CA         28.8080   51.4610  149.5780 C.3       9 GLL5        0.0000 
     20 CA         26.5700   54.2380  147.6880 C.3       6 GLP5        0.0000 
     21 CA         29.5970   51.8620  152.7860 C.3       3 GLC5        0.0000 
     22 CA         28.7880   51.9630  150.8920 C.3       9 GLL5        0.0000 
     23 CA         30.4060   51.7610  154.6800 C.3       6 GLP5        0.0000 
     24 CA         28.2015   53.5640  149.5770 C.3       3 GLC5        0.0000 
     25 CA         27.6150   55.1650  148.2620 C.3       6 GLP5        0.0000 
     26 O          28.0855   52.0805  153.3980 O.2       1 ALC1        0.0000 
     27 O          27.9920   51.5350  151.8660 O.2       7 ALL1        0.0000 
     28 O          28.1790   52.6260  154.9300 O.2       4 ALP1        0.0000 
     29 N          29.4860   54.1100  151.9335 N.am      2 SEC2        0.0000 
     30 N          29.5940   52.9960  151.1310 N.am      8 SEL2        0.0000 
     31 N          29.3780   55.2240  152.7360 N.am      5 SEP2        0.0000 
     32 CA         32.1345   53.4480  149.3170 C.3       3 GLC5        0.0000 
     33 CA         30.3440   53.5430  150.1840 C.3       9 GLL5        0.0000 
     34 CA         33.9250   53.3530  148.4500 C.3       6 GLP5        0.0000 
     35 CA         31.1090   51.5390  150.2195 C.3       3 GLC5        0.0000 
     36 CA         31.8740   49.5350  150.2550 C.3       6 GLP5        0.0000 
     37 CA         28.9795   54.3540  149.2230 C.3       3 GLC5        0.0000 
     38 CA         30.7290   50.7775  149.4270 C.3       3 GLC5        0.0000 
     39 CA         29.5840   52.0200  148.5990 C.3       9 GLL5        0.0000 
     40 CA         28.5995   53.5925  148.4305 C.3       3 GLC5        0.0000 
     41 N          27.9305   54.8990  138.7150 N.am      2 SEC2        0.0000 
     42 N          27.2170   53.8380  139.4060 N.am      8 SEL2        0.0000 
     43 N          28.6440   55.9600  138.0240 N.am      5 SEP2        0.0000 
     44 CA         25.0525   56.4510  143.0285 C.3       3 GLC5        0.0000 
     45 CA         23.7720   55.1170  141.7810 C.3       9 GLL5        0.0000 
     46 CA         26.3330   57.7850  144.2760 C.3       6 GLP5        0.0000 
     47 N          23.7505   57.4510  141.3015 N.am      2 SEC2        0.0000 
     48 N          23.5220   56.0200  140.6780 N.am      8 SEL2        0.0000 
     49 N          23.9790   58.8820  141.9250 N.am      5 SEP2        0.0000 
     50 O          22.1685   56.0180  143.6650 O.2       1 ALC1        0.0000 
     51 O          21.5620   54.8580  142.7870 O.2       7 ALL1        0.0000 
     52 O          22.7750   57.1780  144.5430 O.2       4 ALP1        0.0000 
     53 CA         24.0695   56.3715  138.9125 C.3       3 GLC5        0.0000 
     54 CA         22.2480   55.7290  140.0540 C.3       9 GLL5        0.0000 
     55 CA         25.8910   57.0140  137.7710 C.3       6 GLP5        0.0000 
     56 CA         20.7955   56.5760  141.2940 C.3       3 GLC5        0.0000 
     57 CA         19.3430   57.4230  142.5340 C.3       6 GLP5        0.0000 
     58 N          23.1535   54.0425  132.6745 N.am      2 SEC2        0.0000 
     59 N          23.1040   54.4790  134.1110 N.am      8 SEL2        0.0000 
     60 N          23.2030   53.6060  131.2380 N.am      5 SEP2        0.0000 
     61 CA         24.2200   56.9590  136.0775 C.3       3 GLC5        0.0000 
     62 CA         22.3200   56.5070  135.8370 C.3       9 GLL5        0.0000 
     63 CA         26.1200   57.4110  136.3180 C.3       6 GLP5        0.0000 
     64 CA         20.8375   56.4465  134.6585 C.3       3 GLC5        0.0000 
     65 CA         19.3550   56.3860  133.4800 C.3       6 GLP5        0.0000 
     66 CA         20.7455   57.7965  135.0075 C.3       3 GLC5        0.0000 
     67 CA         21.7870   57.4230  136.7150 C.3       9 GLL5        0.0000 
     68 CA         19.7040   58.1700  133.3000 C.3       6 GLP5        0.0000 
     69 CA         22.2620   59.0470  135.3955 C.3       3 GLC5        0.0000 
     70 CA         22.7370   60.6710  134.0760 C.3       6 GLP5        0.0000 
     71 CA         27.5840   53.1433  144.8752 C.3       3 GLC5        0.0000 
     72 CA         26.4310   54.4390  146.1490 C.3       6 GLP5        0.0000 
     73 CA         30.2855   52.3431  142.3059 C.3       3 GLC5        0.0000 
     74 CA         28.0690   51.7160  143.2590 C.3       9 GLL5        0.0000 
     75 CA         31.0720   53.3940  140.8240 C.3       6 GLP5        0.0000 
     76 CA         29.7400   50.1745  150.1120 C.3       3 GLC5        0.0000 
     77 CA         30.6820   48.6370  149.9890 C.3       6 GLP5        0.0000 
     78 CA         23.1461   54.1409  143.5257 C.3       3 GLC5        0.0000 
     79 CA         22.5050   54.2610  141.8740 C.3       9 GLL5        0.0000 
     80 CA         22.8280   53.7780  145.2960 C.3       6 GLP5        0.0000 
     81 CA         24.3662   56.0778  137.3852 C.3       3 GLC5        0.0000 
     82 CA         22.8280   54.9780  137.6770 C.3       9 GLL5        0.0000 
     83 CA         23.8457   57.1495  137.5845 C.3       3 GLC5        0.0000 
     84 CA         21.8140   57.1470  138.0810 C.3       9 GLL5        0.0000 
@<TRIPOS>BOND
@<TRIPOS>SUBSTRUCTURE
     1 ALC1        9 GROUP        1 X    ALC  0     ROOT ALC X 1
     2 SEC2        1 GROUP        1 X    SEC  0     **** SEC X 2
     3 GLC5        6 GROUP        1 X    GLC  0     **** GLC X 6
     4 ALP1       11 GROUP        1 Y    ALP  0     ROOT ALP Y 8
     5 SEP2        3 GROUP        1 Y    SEP  0     **** SEP Y 9
     6 GLP5        8 GROUP        1 Y    GLP  0     **** GLP Y 13
     7 ALL1       10 GROUP        1 Z    ALL  0     ROOT ALL Z 15
     8 SEL2        2 GROUP        1 Z    SEL  0     **** SEL Z 16
     9 GLL5        7 GROUP        1 Z    GLL  0     **** GLL Z 20
@<TRIPOS>SET

