#    Name: 1hdg_NAD_1_ligand
#    Modification time : Tue Mar 25 05:21:53 2014

@<TRIPOS>MOLECULE
1hdg_NAD_1_ligand
   70    74     1     0     0
SMALL
NO_CHARGES


@<TRIPOS>ATOM
      1 PA         27.6490   50.8040  140.8340 P.3       1 NAD336      0.0000 
      2 O1A        27.2510   49.5970  141.5690 O.co2     1 NAD336      0.0000 
      3 O2A        28.6400   50.8260  139.7570 O.co2     1 NAD336      0.0000 
      4 O5B        28.4160   51.7240  141.8630 O.3       1 NAD336      0.0000 
      5 C5B        28.0690   51.7160  143.2590 C.3       1 NAD336      0.0000 
      6 C4B        29.4050   51.9790  143.9440 C.3       1 NAD336      0.0000 
      7 O4B        29.2630   52.4130  145.3010 O.3       1 NAD336      0.0000 
      8 C3B        30.2610   50.7370  143.9740 C.3       1 NAD336      0.0000 
      9 O3B        31.5590   51.1080  143.5690 O.3       1 NAD336      0.0000 
     10 C2B        30.1920   50.2420  145.4140 C.3       1 NAD336      0.0000 
     11 O2B        31.4520   49.6190  145.7460 O.3       1 NAD336      0.0000 
     12 C1B        29.9670   51.5340  146.1930 C.3       1 NAD336      0.0000 
     13 N9A        29.2500   51.3790  147.4780 N.pl3     1 NAD336      0.0000 
     14 C8A        28.2650   50.5140  147.7430 C.2       1 NAD336      0.0000 
     15 N7A        28.0010   50.5330  149.0530 N.2       1 NAD336      0.0000 
     16 C5A        28.8080   51.4610  149.5780 C.ar      1 NAD336      0.0000 
     17 C6A        28.7880   51.9630  150.8920 C.ar      1 NAD336      0.0000 
     18 N6A        27.9920   51.5350  151.8660 N.pl3     1 NAD336      0.0000 
     19 N1A        29.5940   52.9960  151.1310 N.ar      1 NAD336      0.0000 
     20 C2A        30.3440   53.5430  150.1840 C.ar      1 NAD336      0.0000 
     21 N3A        30.3440   53.0780  148.9400 N.ar      1 NAD336      0.0000 
     22 C4A        29.5840   52.0200  148.5990 C.ar      1 NAD336      0.0000 
     23 O3         26.3620   51.6310  140.3960 O.3       1 NAD336      0.0000 
     24 PN         26.0770   52.9160  139.4590 P.3       1 NAD336      0.0000 
     25 O1N        25.4540   52.4680  138.1730 O.co2     1 NAD336      0.0000 
     26 O2N        27.2170   53.8380  139.4060 O.co2     1 NAD336      0.0000 
     27 O5D        24.9180   53.6540  140.2660 O.3       1 NAD336      0.0000 
     28 C5D        25.0750   54.3760  141.4930 C.3       1 NAD336      0.0000 
     29 C4D        23.7720   55.1170  141.7810 C.3       1 NAD336      0.0000 
     30 O4D        23.5220   56.0200  140.6780 O.3       1 NAD336      0.0000 
     31 C3D        22.5050   54.2610  141.8740 C.3       1 NAD336      0.0000 
     32 O3D        21.5620   54.8580  142.7870 O.3       1 NAD336      0.0000 
     33 C2D        21.8830   54.3130  140.4770 C.3       1 NAD336      0.0000 
     34 O2D        20.4540   54.0330  140.4580 O.3       1 NAD336      0.0000 
     35 C1D        22.2480   55.7290  140.0540 C.3       1 NAD336      0.0000 
     36 N1N        22.3080   55.9290  138.5810 N.pl3     1 NAD336      0.0000 
     37 C2N        22.8280   54.9780  137.6770 C.ar      1 NAD336      0.0000 
     38 C3N        22.8550   55.3050  136.3220 C.ar      1 NAD336      0.0000 
     39 C7N        23.4890   54.3920  135.2870 C.2       1 NAD336      0.0000 
     40 O7N        23.1040   54.4790  134.1110 O.2       1 NAD336      0.0000 
     41 N7N        24.3380   53.4850  135.7720 N.am      1 NAD336      0.0000 
     42 C4N        22.3200   56.5070  135.8370 C.ar      1 NAD336      0.0000 
     43 C5N        21.7870   57.4230  136.7150 C.ar      1 NAD336      0.0000 
     44 C6N        21.8140   57.1470  138.0810 C.ar      1 NAD336      0.0000 
     45 H          27.7053   50.7633  143.5773 H         1 NAD336      0.0000 
     46 H          27.3963   52.5069  143.5105 H         1 NAD336      0.0000 
     47 H          29.9461   52.7304  143.3658 H         1 NAD336      0.0000 
     48 H          29.8075   50.0130  143.3386 H         1 NAD336      0.0000 
     49 H          29.3613   49.6202  145.5161 H         1 NAD336      0.0000 
     50 H          30.9657   51.9638  146.3813 H         1 NAD336      0.0000 
     51 H          27.8106   49.9566  147.0830 H         1 NAD336      0.0000 
     52 H          27.3629   50.7953  151.6271 H         1 NAD336      0.0000 
     53 H          28.0939   51.9913  152.7500 H         1 NAD336      0.0000 
     54 H          30.9593   54.3723  150.4251 H         1 NAD336      0.0000 
     55 H          25.8747   55.1132  141.4296 H         1 NAD336      0.0000 
     56 H          25.2763   53.7103  142.3317 H         1 NAD336      0.0000 
     57 H          23.8701   55.6887  142.6869 H         1 NAD336      0.0000 
     58 H          22.7532   53.2781  142.1046 H         1 NAD336      0.0000 
     59 H          22.4535   53.6400  139.8572 H         1 NAD336      0.0000 
     60 H          21.4910   56.3964  140.4823 H         1 NAD336      0.0000 
     61 H          23.1695   54.0867  138.0107 H         1 NAD336      0.0000 
     62 H          24.7894   52.9002  135.0981 H         1 NAD336      0.0000 
     63 H          24.4468   53.4713  136.7660 H         1 NAD336      0.0000 
     64 H          22.3314   56.6926  134.8263 H         1 NAD336      0.0000 
     65 H          21.3747   58.2971  136.3776 H         1 NAD336      0.0000 
     66 H          21.4612   57.8562  138.7515 H         1 NAD336      0.0000 
     67 H          31.9085   51.6790  144.3119 H         1 NAD336      0.0000 
     68 H          32.0852   50.3787  145.8937 H         1 NAD336      0.0000 
     69 H          22.0463   55.6361  143.1870 H         1 NAD336      0.0000 
     70 H          20.1298   54.2801  141.3711 H         1 NAD336      0.0000 
@<TRIPOS>BOND
     1    2    1 ar   
     2    3    1 ar   
     3    4    1 1    
     4   23    1 1    
     5    5    4 1    
     6    6    5 1    
     7   45    5 1    
     8   46    5 1    
     9    7    6 1    
    10    8    6 1    
    11   47    6 1    
    12   12    7 1    
    13    9    8 1    
    14   10    8 1    
    15   48    8 1    
    16   67    9 1    
    17   11   10 1    
    18   12   10 1    
    19   49   10 1    
    20   68   11 1    
    21   13   12 1    
    22   50   12 1    
    23   14   13 1    
    24   22   13 1    
    25   15   14 2    
    26   51   14 1    
    27   16   15 1    
    28   17   16 ar   
    29   22   16 ar   
    30   18   17 1    
    31   19   17 ar   
    32   52   18 1    
    33   53   18 1    
    34   20   19 ar   
    35   21   20 ar   
    36   54   20 1    
    37   22   21 ar   
    38   24   23 1    
    39   25   24 ar   
    40   26   24 ar   
    41   27   24 1    
    42   28   27 1    
    43   29   28 1    
    44   55   28 1    
    45   56   28 1    
    46   30   29 1    
    47   31   29 1    
    48   57   29 1    
    49   35   30 1    
    50   32   31 1    
    51   33   31 1    
    52   58   31 1    
    53   69   32 1    
    54   34   33 1    
    55   35   33 1    
    56   59   33 1    
    57   70   34 1    
    58   36   35 1    
    59   60   35 1    
    60   37   36 ar   
    61   44   36 ar   
    62   38   37 ar   
    63   61   37 1    
    64   39   38 1    
    65   42   38 ar   
    66   40   39 2    
    67   41   39 am   
    68   62   41 1    
    69   63   41 1    
    70   43   42 ar   
    71   64   42 1    
    72   44   43 ar   
    73   65   43 1    
    74   66   44 1    
@<TRIPOS>SUBSTRUCTURE
     1 NAD336      1 GROUP   
@<TRIPOS>SET

