#    Name: 2rg5_279_1_INTS_M
#    Modification time : Mon Mar 24 23:51:58 2014

@<TRIPOS>MOLECULE
2rg5_279_1_INTS_M
   65     0     6     0     0
SMALL
NO_CHARGES


@<TRIPOS>ATOM
      1 CA         -4.1885    0.0765   12.2520 C.3       2 GLC5        0.0000 
      2 CA         -3.8850   -0.0190   14.0800 C.3       6 GLL5        0.0000 
      3 CA         -4.4920    0.1720   10.4240 C.3       4 GLP5        0.0000 
      4 CA         -5.3850    1.0430   13.1165 C.3       2 GLC5        0.0000 
      5 CA         -6.8850    2.1050   12.1530 C.3       4 GLP5        0.0000 
      6 CA         -6.6565   -0.0875   13.9465 C.3       2 GLC5        0.0000 
      7 CA         -4.9140   -0.4950   14.9190 C.3       6 GLL5        0.0000 
      8 CA         -8.3990    0.3200   12.9740 C.3       4 GLP5        0.0000 
      9 CA         -0.7740   -2.2390   16.6835 C.3       2 GLC5        0.0000 
     10 CA         -2.2600   -1.1680   15.4190 C.3       6 GLL5        0.0000 
     11 CA          0.7120   -3.3100   17.9480 C.3       4 GLP5        0.0000 
     12 CA         -2.4810   -0.7965   12.2145 C.3       2 GLC5        0.0000 
     13 CA         -2.5430   -0.3520   14.3350 C.3       6 GLL5        0.0000 
     14 CA         -2.4190   -1.2410   10.0940 C.3       4 GLP5        0.0000 
     15 CA         -4.9545    0.7075   15.9295 C.3       2 GLC5        0.0000 
     16 CA         -4.6090   -1.3150   16.0190 C.3       6 GLL5        0.0000 
     17 CA         -5.3000    2.7300   15.8400 C.3       4 GLP5        0.0000 
     18 CA         -5.7830   -3.2680   18.2135 C.3       2 GLC5        0.0000 
     19 CA         -5.6800   -1.8450   16.9270 C.3       6 GLL5        0.0000 
     20 CA         -5.8860   -4.6910   19.5000 C.3       4 GLP5        0.0000 
     21 CA         -6.5855   -0.2570   17.2080 C.3       2 GLC5        0.0000 
     22 CA         -7.4910    1.3310   17.4890 C.3       4 GLP5        0.0000 
     23 CA         -1.8320   -5.7885   16.8020 C.3       2 GLC5        0.0000 
     24 CA         -2.3500   -5.2380   18.6190 C.3       6 GLL5        0.0000 
     25 CA         -1.3140   -6.3390   14.9850 C.3       4 GLP5        0.0000 
     26 CA          0.6210   -9.3860   23.8225 C.3       2 GLC5        0.0000 
     27 CA          1.1250   -7.4270   22.9230 C.3       6 GLL5        0.0000 
     28 CA          0.1170  -11.3450   24.7220 C.3       4 GLP5        0.0000 
     29 CA          3.1325   -6.7845   23.3865 C.3       2 GLC5        0.0000 
     30 CA          5.1400   -6.1420   23.8500 C.3       4 GLP5        0.0000 
     31 CA          1.8570   -7.1785   21.1090 C.3       2 GLC5        0.0000 
     32 CA          2.5890   -6.9300   19.2950 C.3       4 GLP5        0.0000 
     33 CA         -1.4370    2.6160   10.9960 C.3       2 GLC5        0.0000 
     34 CA          0.2780    1.3670   11.0850 C.3       6 GLL5        0.0000 
     35 CA         -3.1520    3.8650   10.9070 C.3       4 GLP5        0.0000 
     36 CA         -1.0705    0.0630   10.5895 C.3       2 GLC5        0.0000 
     37 CA          1.4360    1.5450   12.6900 C.3       2 GLC5        0.0000 
     38 CA          2.5940    1.7230   14.2950 C.3       4 GLP5        0.0000 
     39 CA          1.0545   -0.1405   10.1025 C.3       2 GLC5        0.0000 
     40 CA          1.8310   -1.6480    9.1200 C.3       4 GLP5        0.0000 
     41 CA          0.1980    3.1610   11.9245 C.3       2 GLC5        0.0000 
     42 CA          0.1180    4.9550   12.7640 C.3       4 GLP5        0.0000 
     43 N           1.0840   -0.1075   14.1210 N.am      1 SEC2        0.0000 
     44 N          -0.2850   -0.4870   13.7610 N.am      5 SEL2        0.0000 
     45 N           2.4530    0.2720   14.4810 N.am      3 SEP2        0.0000 
     46 N          -1.9750   -8.2060   21.0385 N.am      1 SEC2        0.0000 
     47 N          -1.7670   -6.8690   21.1840 N.am      5 SEL2        0.0000 
     48 N          -2.1830   -9.5430   20.8930 N.am      3 SEP2        0.0000 
     49 CA         -1.2147   -2.1545   13.8045 C.3       2 GLC5        0.0000 
     50 CA         -0.0280   -3.5490   12.7320 C.3       4 GLP5        0.0000 
     51 CA         -0.4235   -3.6092   19.6493 C.3       2 GLC5        0.0000 
     52 CA         -1.6320   -4.5170   21.0300 C.3       6 GLL5        0.0000 
     53 CA         -4.3856    1.2127   15.1286 C.3       2 GLC5        0.0000 
     54 CA         -3.2215   -5.1908   17.6730 C.3       2 GLC5        0.0000 
     55 CA         -2.0560   -4.2370   19.6850 C.3       6 GLL5        0.0000 
     56 CA         -4.2400   -5.6440   16.1940 C.3       4 GLP5        0.0000 
     57 CA         -5.0344   -3.3609   15.8965 C.3       2 GLC5        0.0000 
     58 CA         -5.2590   -5.0590   15.2610 C.3       4 GLP5        0.0000 
     59 CA         -4.0574   -4.5418   19.3152 C.3       2 GLC5        0.0000 
     60 CA         -0.7584   -3.8513   18.5392 C.3       2 GLC5        0.0000 
     61 CA          0.3605   -8.4805   21.9537 C.3       2 GLC5        0.0000 
     62 CA         -0.1570   -6.8670   23.5180 C.3       6 GLL5        0.0000 
     63 CA          0.2370   -9.8140   20.6870 C.3       4 GLP5        0.0000 
     64 CA          1.6505   -7.9590   24.2653 C.3       2 GLC5        0.0000 
     65 CA          2.8170   -8.7710   25.3100 C.3       4 GLP5        0.0000 
@<TRIPOS>BOND
@<TRIPOS>SUBSTRUCTURE
     1 SEC2       43 GROUP        1 X    SEC  0     ROOT SEC X 2
     2 GLC5        1 GROUP        1 X    GLC  0     **** GLC X 6
     3 SEP2       45 GROUP        1 Y    SEP  0     ROOT SEP Y 9
     4 GLP5        3 GROUP        1 Y    GLP  0     **** GLP Y 13
     5 SEL2       44 GROUP        1 Z    SEL  0     ROOT SEL Z 16
     6 GLL5        2 GROUP        1 Z    GLL  0     **** GLL Z 20
@<TRIPOS>SET

