#    Name: 2rg5_279_1_ligand
#    Modification time : Mon Mar 24 23:51:58 2014

@<TRIPOS>MOLECULE
2rg5_279_1_ligand
   50    52     1     0     0
SMALL
NO_CHARGES


@<TRIPOS>ATOM
      1 C1         -3.8850   -0.0190   14.0800 C.ar      1 279501      0.0000 
      2 C2         -4.9140   -0.4950   14.9190 C.ar      1 279501      0.0000 
      3 C3         -2.2600   -1.1680   15.4190 C.ar      1 279501      0.0000 
      4 C4         -1.4860   -3.3000   21.6710 C.2       1 279501      0.0000 
      5 C5         -2.5430   -0.3520   14.3350 C.ar      1 279501      0.0000 
      6 C6         -1.6320   -4.5170   21.0300 C.2       1 279501      0.0000 
      7 C7         -4.6090   -1.3150   16.0190 C.ar      1 279501      0.0000 
      8 C8         -2.0560   -4.2370   19.6850 C.2       1 279501      0.0000 
      9 C9         -3.2700   -1.6460   16.2550 C.ar      1 279501      0.0000 
     10 C10        -2.1590   -2.8570   19.5990 C.2       1 279501      0.0000 
     11 C11        -2.1300   -0.2140   20.0540 C.2       1 279501      0.0000 
     12 C12        -2.5320   -1.9590   18.5480 C.2       1 279501      0.0000 
     13 C13        -1.3570    0.0700   13.5290 C.2       1 279501      0.0000 
     14 C14        -1.3530   -5.8080   21.6400 C.2       1 279501      0.0000 
     15 C15        -5.6800   -1.8450   16.9270 C.3       1 279501      0.0000 
     16 C16        -2.3500   -5.2380   18.6190 C.3       1 279501      0.0000 
     17 C17         1.1250   -7.4270   22.9230 C.3       1 279501      0.0000 
     18 C18         0.2780    1.3670   11.0850 C.3       1 279501      0.0000 
     19 C19        -0.1570   -6.8670   23.5180 C.3       1 279501      0.0000 
     20 N20        -1.7940   -0.9580   21.0640 N.2       1 279501      0.0000 
     21 N21        -2.4920   -0.6700   18.8050 N.2       1 279501      0.0000 
     22 N22        -1.8180   -2.3020   20.8000 N.pl3     1 279501      0.0000 
     23 N23        -2.9030   -2.4660   17.3270 N.pl3     1 279501      0.0000 
     24 N24        -0.5610   -5.7080   22.7640 N.am      1 279501      0.0000 
     25 N25        -1.5080    1.0530   12.5640 N.am      1 279501      0.0000 
     26 O26        -0.2850   -0.4870   13.7610 O.2       1 279501      0.0000 
     27 O27        -1.7670   -6.8690   21.1840 O.2       1 279501      0.0000 
     28 O28        -0.2810    1.7590   12.3370 O.3       1 279501      0.0000 
     29 H          -4.1198    0.5755   13.2769 H         1 279501      0.0000 
     30 H          -5.8870   -0.2408   14.7240 H         1 279501      0.0000 
     31 H          -1.2751   -1.4321   15.6171 H         1 279501      0.0000 
     32 H          -1.1984   -3.1865   22.5780 H         1 279501      0.0000 
     33 H          -2.1360    0.8646   20.1723 H         1 279501      0.0000 
     34 H           0.0335   -6.6159   24.5644 H         1 279501      0.0000 
     35 H          -0.9189   -7.6498   23.4855 H         1 279501      0.0000 
     36 H          -2.9151   -3.5027   17.1824 H         1 279501      0.0000 
     37 H          -0.2329   -4.7833   23.0977 H         1 279501      0.0000 
     38 H          -2.3221    1.2561   12.0914 H         1 279501      0.0000 
     39 H          -5.3002   -2.4119   17.6580 H         1 279501      0.0000 
     40 H          -6.1940   -1.1075   17.3651 H         1 279501      0.0000 
     41 H          -6.3409   -2.4091   16.4320 H         1 279501      0.0000 
     42 H          -1.5534   -5.8065   18.4134 H         1 279501      0.0000 
     43 H          -3.0905   -5.8558   18.8837 H         1 279501      0.0000 
     44 H          -2.6258   -4.7995   17.7636 H         1 279501      0.0000 
     45 H           1.8686   -6.7588   22.9472 H         1 279501      0.0000 
     46 H           1.4418   -8.2360   23.4181 H         1 279501      0.0000 
     47 H           1.0042   -7.6966   21.9676 H         1 279501      0.0000 
     48 H           1.1377    1.8420   10.8971 H         1 279501      0.0000 
     49 H           0.4724    0.3865   11.0558 H         1 279501      0.0000 
     50 H          -0.3394    1.5662   10.3240 H         1 279501      0.0000 
@<TRIPOS>BOND
     1    2    1 ar   
     2    5    1 ar   
     3   29    1 1    
     4    7    2 ar   
     5   30    2 1    
     6    5    3 ar   
     7    9    3 ar   
     8   31    3 1    
     9    6    4 2    
    10   22    4 1    
    11   32    4 1    
    12   13    5 1    
    13    8    6 1    
    14   14    6 1    
    15    9    7 ar   
    16   15    7 1    
    17   10    8 2    
    18   16    8 1    
    19   23    9 1    
    20   12   10 1    
    21   22   10 1    
    22   20   11 2    
    23   21   11 1    
    24   33   11 1    
    25   21   12 2    
    26   23   12 1    
    27   25   13 am   
    28   26   13 2    
    29   24   14 am   
    30   27   14 2    
    31   39   15 1    
    32   40   15 1    
    33   41   15 1    
    34   42   16 1    
    35   43   16 1    
    36   44   16 1    
    37   19   17 1    
    38   45   17 1    
    39   46   17 1    
    40   47   17 1    
    41   28   18 1    
    42   48   18 1    
    43   49   18 1    
    44   50   18 1    
    45   24   19 1    
    46   34   19 1    
    47   35   19 1    
    48   22   20 1    
    49   36   23 1    
    50   37   24 1    
    51   28   25 1    
    52   38   25 1    
@<TRIPOS>SUBSTRUCTURE
     1 279501      1 GROUP   
@<TRIPOS>SET

