#    Name: 4fa3_0SL_1_INTS_M
#    Modification time : Mon Mar 24 19:10:46 2014

@<TRIPOS>MOLECULE
4fa3_0SL_1_INTS_M
   40     0     6     0     0
SMALL
NO_CHARGES


@<TRIPOS>ATOM
      1 CA         -0.5250    9.8585   15.5910 C.3       2 GLC5        0.0000 
      2 CA         -2.4750    9.1550   14.7280 C.3       6 GLL5        0.0000 
      3 CA          1.4250   10.5620   16.4540 C.3       4 GLP5        0.0000 
      4 CA         -3.4270    1.6160   15.1805 C.3       2 GLC5        0.0000 
      5 CA         -4.4330    2.6500   13.9330 C.3       6 GLL5        0.0000 
      6 CA         -2.4210    0.5820   16.4280 C.3       4 GLP5        0.0000 
      7 CA         -6.0165    2.0590   13.6320 C.3       2 GLC5        0.0000 
      8 CA         -7.6000    1.4680   13.3310 C.3       4 GLP5        0.0000 
      9 CA         -4.1395   -0.0050   11.9550 C.3       2 GLC5        0.0000 
     10 CA         -4.2490    2.0270   12.5270 C.3       6 GLL5        0.0000 
     11 CA         -4.0300   -2.0370   11.3830 C.3       4 GLP5        0.0000 
     12 CA         -5.8935    1.8630   12.2325 C.3       2 GLC5        0.0000 
     13 CA         -7.5380    1.6990   11.9380 C.3       4 GLP5        0.0000 
     14 CA         -3.3200    0.2835   11.0380 C.3       2 GLC5        0.0000 
     15 CA         -2.8420    2.1290   12.0000 C.3       6 GLL5        0.0000 
     16 CA         -3.7980   -1.5620   10.0760 C.3       4 GLP5        0.0000 
     17 CA         -1.3230    3.3310   11.0080 C.3       2 GLC5        0.0000 
     18 CA          0.1960    4.5330   10.0160 C.3       4 GLP5        0.0000 
     19 CA         -0.4165    0.8405   13.4555 C.3       2 GLC5        0.0000 
     20 CA         -1.8030    2.1700   13.1280 C.3       6 GLL5        0.0000 
     21 CA          0.9700   -0.4890   13.7830 C.3       4 GLP5        0.0000 
     22 N           1.0925    1.4325   12.1070 N.am      1 SEC2        0.0000 
     23 N          -0.2450    1.7140   11.4060 N.am      5 SEL2        0.0000 
     24 N           2.4300    1.1510   12.8080 N.am      3 SEP2        0.0000 
     25 N           0.8920    2.8820   14.7070 N.am      1 SEC2        0.0000 
     26 N           0.5580    2.5430   13.3560 N.am      5 SEL2        0.0000 
     27 N           1.2260    3.2210   16.0580 N.am      3 SEP2        0.0000 
     28 CA         -3.1427   10.0895   16.6842 C.3       2 GLC5        0.0000 
     29 CA         -3.5820   10.3810   18.8170 C.3       4 GLP5        0.0000 
     30 CA         -5.0557    9.5935   12.4918 C.3       2 GLC5        0.0000 
     31 CA         -4.2870   10.7410   14.1720 C.3       6 GLL5        0.0000 
     32 CA         -5.3570    8.9550   10.7260 C.3       4 GLP5        0.0000 
     33 CA         -5.2957    8.4515   12.7538 C.3       2 GLC5        0.0000 
     34 CA         -4.7600    8.4430   14.7070 C.3       6 GLL5        0.0000 
     35 CA         -2.1515    1.6712   15.0080 C.3       2 GLC5        0.0000 
     36 CA         -1.9610    3.3510   14.0480 C.3       6 GLL5        0.0000 
     37 CA         -0.7475    3.9182   12.4445 C.3       2 GLC5        0.0000 
     38 CA          0.3870    5.0760   11.3010 C.3       4 GLP5        0.0000 
     39 CA         -4.1923    3.6650   11.2488 C.3       2 GLC5        0.0000 
     40 CA         -4.8390    5.2520   10.2340 C.3       4 GLP5        0.0000 
@<TRIPOS>BOND
@<TRIPOS>SUBSTRUCTURE
     1 SEC2       22 GROUP        1 X    SEC  0     ROOT SEC X 2
     2 GLC5        1 GROUP        1 X    GLC  0     **** GLC X 6
     3 SEP2       24 GROUP        1 Y    SEP  0     ROOT SEP Y 9
     4 GLP5        3 GROUP        1 Y    GLP  0     **** GLP Y 13
     5 SEL2       23 GROUP        1 Z    SEL  0     ROOT SEL Z 16
     6 GLL5        2 GROUP        1 Z    GLL  0     **** GLL Z 20
@<TRIPOS>SET

