#    Name: 4fa3_0SL_1_ligand
#    Modification time : Mon Mar 24 19:10:46 2014

@<TRIPOS>MOLECULE
4fa3_0SL_1_ligand
   38    40     1     0     0
SMALL
NO_CHARGES


@<TRIPOS>ATOM
      1 CAK        -2.9650    6.8480   15.2530 C.ar      1 0SL402      0.0000 
      2 CAS        -3.3930    8.1460   14.9070 C.ar      1 0SL402      0.0000 
      3 CAI        -2.4750    9.1550   14.7280 C.ar      1 0SL402      0.0000 
      4 CAF        -2.9320   10.4410   14.3750 C.ar      1 0SL402      0.0000 
      5 CAE        -4.2870   10.7410   14.1720 C.ar      1 0SL402      0.0000 
      6 CAH        -5.2220    9.7230   14.3430 C.ar      1 0SL402      0.0000 
      7 CAR        -4.7600    8.4430   14.7070 C.ar      1 0SL402      0.0000 
      8 CAJ        -5.7090    7.4530   14.8560 C.ar      1 0SL402      0.0000 
      9 CAG        -5.3000    6.1800   15.2190 C.ar      1 0SL402      0.0000 
     10 CAQ        -3.9500    5.9000   15.4370 C.ar      1 0SL402      0.0000 
     11 SAV        -3.6390    4.3160   15.8300 S.o2      1 0SL402      0.0000 
     12 OAB        -4.9290    3.8020   16.3440 O.2       1 0SL402      0.0000 
     13 OAC        -2.4940    4.3390   16.8000 O.2       1 0SL402      0.0000 
     14 NAU        -3.4000    3.6510   14.2770 N.pl3     1 0SL402      0.0000 
     15 CAO        -1.9610    3.3510   14.0480 C.3       1 0SL402      0.0000 
     16 CAN        -4.4330    2.6500   13.9330 C.3       1 0SL402      0.0000 
     17 CAL        -4.2490    2.0270   12.5270 C.3       1 0SL402      0.0000 
     18 CAM        -2.8420    2.1290   12.0000 C.3       1 0SL402      0.0000 
     19 CAT        -1.8030    2.1700   13.1280 C.3       1 0SL402      0.0000 
     20 CAP        -0.3740    2.1780   12.5640 C.2       1 0SL402      0.0000 
     21 OAD        -0.2450    1.7140   11.4060 O.co2     1 0SL402      0.0000 
     22 OAA         0.5580    2.5430   13.3560 O.co2     1 0SL402      0.0000 
     23 H          -1.9888    6.6389   15.3568 H         1 0SL402      0.0000 
     24 H          -1.4743    8.9905   14.8455 H         1 0SL402      0.0000 
     25 H          -2.2272   11.2032   14.2601 H         1 0SL402      0.0000 
     26 H          -4.5741   11.6770   13.9074 H         1 0SL402      0.0000 
     27 H          -6.2128    9.8917   14.2104 H         1 0SL402      0.0000 
     28 H          -6.7012    7.6531   14.7013 H         1 0SL402      0.0000 
     29 H          -5.9983    5.4267   15.3307 H         1 0SL402      0.0000 
     30 H          -1.4699    3.1317   15.0021 H         1 0SL402      0.0000 
     31 H          -1.4652    4.2211   13.6045 H         1 0SL402      0.0000 
     32 H          -5.4383    3.1053   13.9690 H         1 0SL402      0.0000 
     33 H          -4.4311    1.8258   14.6678 H         1 0SL402      0.0000 
     34 H          -4.9436    2.5301   11.8361 H         1 0SL402      0.0000 
     35 H          -4.5523    0.9695   12.5788 H         1 0SL402      0.0000 
     36 H          -2.7380    3.0374   11.3952 H         1 0SL402      0.0000 
     37 H          -2.6248    1.2694   11.3552 H         1 0SL402      0.0000 
     38 H          -1.9047    1.2535   13.7212 H         1 0SL402      0.0000 
@<TRIPOS>BOND
     1    2    1 ar   
     2   10    1 ar   
     3   23    1 1    
     4    3    2 ar   
     5    7    2 ar   
     6    4    3 ar   
     7   24    3 1    
     8    5    4 ar   
     9   25    4 1    
    10    6    5 ar   
    11   26    5 1    
    12    7    6 ar   
    13   27    6 1    
    14    8    7 ar   
    15    9    8 ar   
    16   28    8 1    
    17   10    9 ar   
    18   29    9 1    
    19   11   10 1    
    20   12   11 2    
    21   13   11 2    
    22   14   11 1    
    23   15   14 1    
    24   16   14 1    
    25   19   15 1    
    26   30   15 1    
    27   31   15 1    
    28   17   16 1    
    29   32   16 1    
    30   33   16 1    
    31   18   17 1    
    32   34   17 1    
    33   35   17 1    
    34   19   18 1    
    35   36   18 1    
    36   37   18 1    
    37   20   19 1    
    38   38   19 1    
    39   21   20 ar   
    40   22   20 ar   
@<TRIPOS>SUBSTRUCTURE
     1 0SL402      1 GROUP   
@<TRIPOS>SET

