#    Name: 1ouy_094_1_INTS_M
#    Modification time : Mon Mar 24 20:37:03 2014

@<TRIPOS>MOLECULE
1ouy_094_1_INTS_M
   75     0     9     0     0
SMALL
NO_CHARGES


@<TRIPOS>ATOM
      1 CA         35.4755   33.3735   33.1675 C.3       3 GLC5        0.0000 
      2 CA         37.0730   33.2760   32.3530 C.3       9 GLL5        0.0000 
      3 CA         33.8780   33.4710   33.9820 C.3       6 GLP5        0.0000 
      4 CA         36.5415   34.7090   31.2550 C.3       3 GLC5        0.0000 
      5 CA         36.0100   36.1420   30.1570 C.3       6 GLP5        0.0000 
      6 CA         37.9255   34.6720   33.1370 C.3       3 GLC5        0.0000 
      7 CA         38.7780   36.0680   33.9210 C.3       6 GLP5        0.0000 
      8 CA         36.9230   30.6295   33.8745 C.3       3 GLC5        0.0000 
      9 CA         38.5430   31.5490   33.0140 C.3       9 GLL5        0.0000 
     10 CA         35.3030   29.7100   34.7350 C.3       6 GLP5        0.0000 
     11 CA         42.4270   30.1660   29.4500 C.3       3 GLC5        0.0000 
     12 CA         42.1610   30.3360   31.5450 C.3       9 GLL5        0.0000 
     13 CA         42.6930   29.9960   27.3550 C.3       6 GLP5        0.0000 
     14 CA         40.6620   29.3300   30.5325 C.3       3 GLC5        0.0000 
     15 CA         39.1630   28.3240   29.5200 C.3       6 GLP5        0.0000 
     16 N          46.2505   38.0695   33.5565 N.am      2 SEC2        0.0000 
     17 N          46.5150   36.8420   33.2720 N.am      8 SEL2        0.0000 
     18 N          45.9860   39.2970   33.8410 N.am      5 SEP2        0.0000 
     19 N          47.5790   37.9845   33.2410 N.am      2 SEC2        0.0000 
     20 N          48.6430   39.1270   33.2100 N.am      5 SEP2        0.0000 
     21 O          43.4485   37.0140   33.3800 O.2       1 ALC1        0.0000 
     22 O          44.4820   35.9910   33.4170 O.2       7 ALL1        0.0000 
     23 O          42.4150   38.0370   33.3430 O.2       4 ALP1        0.0000 
     24 CA         50.0950   32.9840   35.2905 C.3       3 GLC5        0.0000 
     25 CA         48.2200   33.6570   34.6480 C.3       9 GLL5        0.0000 
     26 CA         51.9700   32.3110   35.9330 C.3       6 GLP5        0.0000 
     27 CA         47.7595   34.5330   36.0410 C.3       3 GLC5        0.0000 
     28 CA         47.2990   35.4090   37.4340 C.3       6 GLP5        0.0000 
     29 CA         46.8150   33.0575   35.4890 C.3       3 GLC5        0.0000 
     30 CA         45.4100   32.4580   36.3300 C.3       6 GLP5        0.0000 
     31 CA         50.9655   33.2290   34.2950 C.3       3 GLC5        0.0000 
     32 CA         49.9610   34.1470   32.6570 C.3       9 GLL5        0.0000 
     33 CA         47.3805   34.5805   28.0915 C.3       3 GLC5        0.0000 
     34 CA         46.8530   35.6080   29.6160 C.3       9 GLL5        0.0000 
     35 CA         47.9080   33.5530   26.5670 C.3       6 GLP5        0.0000 
     36 CA         44.6590   35.8640   29.6610 C.3       3 GLC5        0.0000 
     37 CA         42.4650   36.1200   29.7060 C.3       6 GLP5        0.0000 
     38 CA         46.0735   37.1080   29.3850 C.3       3 GLC5        0.0000 
     39 CA         45.2940   38.6080   29.1540 C.3       6 GLP5        0.0000 
     40 CA         45.1260   26.5930   28.9940 C.3       3 GLC5        0.0000 
     41 CA         45.7370   27.5000   30.7870 C.3       9 GLL5        0.0000 
     42 CA         44.5150   25.6860   27.2010 C.3       6 GLP5        0.0000 
     43 CA         45.2985   27.2550   27.9550 C.3       3 GLC5        0.0000 
     44 CA         46.0820   28.8240   28.7090 C.3       9 GLL5        0.0000 
     45 CA         42.2265   32.5570   28.5890 C.3       3 GLC5        0.0000 
     46 CA         41.0890   32.7100   29.9250 C.3       9 GLL5        0.0000 
     47 CA         43.3640   32.4040   27.2530 C.3       6 GLP5        0.0000 
     48 CA         41.7770   34.4150   29.8155 C.3       3 GLC5        0.0000 
     49 CA         39.9840   33.8190   28.4040 C.3       3 GLC5        0.0000 
     50 CA         38.8790   34.9280   26.8830 C.3       6 GLP5        0.0000 
     51 CA         37.5385   34.5895   30.6325 C.3       3 GLC5        0.0000 
     52 CA         39.0670   33.0370   31.1080 C.3       9 GLL5        0.0000 
     53 CA         39.2198   33.7940   32.9607 C.3       3 GLC5        0.0000 
     54 CA         40.0590   35.5010   33.3360 C.3       6 GLP5        0.0000 
     55 CA         39.6805   29.6848   30.9038 C.3       3 GLC5        0.0000 
     56 CA         39.7580   30.8530   32.8080 C.3       9 GLL5        0.0000 
     57 CA         39.5856   32.2110   34.3044 C.3       3 GLC5        0.0000 
     58 CA         40.1020   32.9520   35.9120 C.3       6 GLP5        0.0000 
     59 CA         43.0953   35.2212   31.3087 C.3       3 GLC5        0.0000 
     60 CA         43.9760   33.6940   32.5880 C.3       9 GLL5        0.0000 
     61 CA         41.8922   34.9117   33.1238 C.3       3 GLC5        0.0000 
     62 CA         43.4750   34.9510   33.2350 C.3       9 GLL5        0.0000 
     63 CA         44.7391   33.3768   34.5779 C.3       3 GLC5        0.0000 
     64 CA         51.1672   35.6015   33.1305 C.3       3 GLC5        0.0000 
     65 CA         52.1780   36.8530   34.2500 C.3       6 GLP5        0.0000 
     66 CA         48.2975   34.2888   28.5950 C.3       3 GLC5        0.0000 
     67 CA         49.3710   35.0070   30.4350 C.3       9 GLL5        0.0000 
     68 CA         44.2240   29.7188   28.3841 C.3       3 GLC5        0.0000 
     69 CA         45.6110   30.0690   29.4600 C.3       9 GLL5        0.0000 
     70 CA         39.8645   34.0922   32.1750 C.3       3 GLC5        0.0000 
     71 CA         40.2730   32.3300   30.9200 C.3       9 GLL5        0.0000 
     72 CA         39.3985   31.5977   29.4746 C.3       3 GLC5        0.0000 
     73 CA         38.9230   30.4170   28.1840 C.3       6 GLP5        0.0000 
     74 CA         36.8793   32.1172   31.1111 C.3       3 GLC5        0.0000 
     75 CA         35.1780   31.5910   30.3510 C.3       6 GLP5        0.0000 
@<TRIPOS>BOND
@<TRIPOS>SUBSTRUCTURE
     1 ALC1       21 GROUP        1 X    ALC  0     ROOT ALC X 1
     2 SEC2       16 GROUP        1 X    SEC  0     **** SEC X 2
     3 GLC5        1 GROUP        1 X    GLC  0     **** GLC X 6
     4 ALP1       23 GROUP        1 Y    ALP  0     ROOT ALP Y 8
     5 SEP2       18 GROUP        1 Y    SEP  0     **** SEP Y 9
     6 GLP5        3 GROUP        1 Y    GLP  0     **** GLP Y 13
     7 ALL1       22 GROUP        1 Z    ALL  0     ROOT ALL Z 15
     8 SEL2       17 GROUP        1 Z    SEL  0     **** SEL Z 16
     9 GLL5        2 GROUP        1 Z    GLL  0     **** GLL Z 20
@<TRIPOS>SET

