#    Name: 1ouy_094_1_ligand
#    Modification time : Mon Mar 24 20:37:03 2014

@<TRIPOS>MOLECULE
1ouy_094_1_ligand
   51    55     1     0     0
SMALL
NO_CHARGES


@<TRIPOS>ATOM
      1 F1         37.0730   33.2760   32.3530 F         1 094501      0.0000 
      2 C1         38.2180   32.6250   32.1570 C.ar      1 094501      0.0000 
      3 C2         38.5430   31.5490   33.0140 C.ar      1 094501      0.0000 
      4 C3         39.7580   30.8530   32.8080 C.ar      1 094501      0.0000 
      5 C4         40.6380   31.2380   31.7670 C.ar      1 094501      0.0000 
      6 S1         42.1610   30.3360   31.5450 S.3       1 094501      0.0000 
      7 C5         43.4540   31.5380   31.7920 C.ar      1 094501      0.0000 
      8 C6         44.8030   31.3040   31.4080 C.ar      1 094501      0.0000 
      9 C7         45.7430   32.3490   31.6290 C.ar      1 094501      0.0000 
     10 C8         45.3470   33.5860   32.2450 C.ar      1 094501      0.0000 
     11 N1         46.2210   34.6870   32.4770 N.am      1 094501      0.0000 
     12 C9         45.7840   35.8880   33.0660 C.2       1 094501      0.0000 
     13 O1         46.5150   36.8420   33.2720 O.2       1 094501      0.0000 
     14 N2         44.4820   35.9910   33.4170 N.am      1 094501      0.0000 
     15 C10        43.4750   34.9510   33.2350 C.3       1 094501      0.0000 
     16 C11        43.9760   33.6940   32.5880 C.ar      1 094501      0.0000 
     17 N3         43.0750   32.7050   32.3870 N.ar      1 094501      0.0000 
     18 C12        47.5780   34.6360   32.1330 C.ar      1 094501      0.0000 
     19 C13        48.5990   34.1770   33.0440 C.ar      1 094501      0.0000 
     20 CL1        48.2200   33.6570   34.6480 Cl        1 094501      0.0000 
     21 C14        49.9610   34.1470   32.6570 C.ar      1 094501      0.0000 
     22 C15        50.3520   34.5530   31.3650 C.ar      1 094501      0.0000 
     23 C16        49.3710   35.0070   30.4350 C.ar      1 094501      0.0000 
     24 C17        48.0030   35.0420   30.8110 C.ar      1 094501      0.0000 
     25 CL2        46.8530   35.6080   29.6160 Cl        1 094501      0.0000 
     26 C18        45.2450   30.0490   30.7750 C.2       1 094501      0.0000 
     27 C19        45.2790   28.7450   31.5960 C.2       1 094501      0.0000 
     28 C20        45.7370   27.5000   30.7870 C.3       1 094501      0.0000 
     29 N4         46.6500   27.8440   29.6650 N.4       1 094501      0.0000 
     30 C21        46.0820   28.8240   28.7090 C.3       1 094501      0.0000 
     31 C22        45.6110   30.0690   29.4600 C.3       1 094501      0.0000 
     32 C23        40.2730   32.3300   30.9200 C.ar      1 094501      0.0000 
     33 F2         41.0890   32.7100   29.9250 F         1 094501      0.0000 
     34 C24        39.0670   33.0370   31.1080 C.ar      1 094501      0.0000 
     35 H          37.9173   31.2798   33.7633 H         1 094501      0.0000 
     36 H          40.0028   30.0665   33.4147 H         1 094501      0.0000 
     37 H          46.7185   32.2241   31.3471 H         1 094501      0.0000 
     38 H          44.1223   36.8847   33.8644 H         1 094501      0.0000 
     39 H          42.6260   35.3454   32.6255 H         1 094501      0.0000 
     40 H          43.0224   34.6825   34.2203 H         1 094501      0.0000 
     41 H          50.6689   33.8257   33.3267 H         1 094501      0.0000 
     42 H          51.3321   34.5248   31.0891 H         1 094501      0.0000 
     43 H          49.6542   35.3045   29.5049 H         1 094501      0.0000 
     44 H          45.0472   28.7009   32.4956 H         1 094501      0.0000 
     45 H          44.8363   26.9961   30.4080 H         1 094501      0.0000 
     46 H          46.2307   26.8090   31.4853 H         1 094501      0.0000 
     47 H          45.2310   28.3930   28.1820 H         1 094501      0.0000 
     48 H          46.8330   29.1223   27.9777 H         1 094501      0.0000 
     49 H          46.4378   30.8641   29.2688 H         1 094501      0.0000 
     50 H          44.7655   30.5154   28.7980 H         1 094501      0.0000 
     51 H          38.8199   33.8103   30.5133 H         1 094501      0.0000 
@<TRIPOS>BOND
     1    2    1 1    
     2    3    2 ar   
     3   34    2 ar   
     4    4    3 ar   
     5   35    3 1    
     6    5    4 ar   
     7   36    4 1    
     8    6    5 1    
     9   32    5 ar   
    10    7    6 1    
    11    8    7 ar   
    12   17    7 ar   
    13    9    8 ar   
    14   26    8 1    
    15   10    9 ar   
    16   37    9 1    
    17   11   10 1    
    18   16   10 ar   
    19   12   11 am   
    20   18   11 1    
    21   13   12 2    
    22   14   12 am   
    23   15   14 1    
    24   38   14 1    
    25   16   15 1    
    26   39   15 1    
    27   40   15 1    
    28   17   16 ar   
    29   19   18 ar   
    30   24   18 ar   
    31   20   19 1    
    32   21   19 ar   
    33   22   21 ar   
    34   41   21 1    
    35   23   22 ar   
    36   42   22 1    
    37   24   23 ar   
    38   43   23 1    
    39   25   24 1    
    40   27   26 2    
    41   31   26 1    
    42   28   27 1    
    43   44   27 1    
    44   29   28 1    
    45   45   28 1    
    46   46   28 1    
    47   30   29 1    
    48   31   30 1    
    49   47   30 1    
    50   48   30 1    
    51   49   31 1    
    52   50   31 1    
    53   33   32 1    
    54   34   32 ar   
    55   51   34 1    
@<TRIPOS>SUBSTRUCTURE
     1 094501      1 GROUP   
@<TRIPOS>SET

