#    Name: 3zdi_UGJ_1_INTS_M
#    Modification time : Tue Mar 25 02:46:28 2014

@<TRIPOS>MOLECULE
3zdi_UGJ_1_INTS_M
   50     0     6     0     0
SMALL
NO_CHARGES


@<TRIPOS>ATOM
      1 O          -8.7955   -9.0565    6.2230 O.2       1 ALC1        0.0000 
      2 O          -8.9880   -7.9960    7.1490 O.2       5 ALL1        0.0000 
      3 O          -8.6030  -10.1170    5.2970 O.2       3 ALP1        0.0000 
      4 CA        -12.4100   -5.0905    9.3690 C.3       2 GLC5        0.0000 
      5 CA        -10.7820   -4.8220    8.2470 C.3       6 GLL5        0.0000 
      6 CA        -14.0380   -5.3590   10.4910 C.3       4 GLP5        0.0000 
      7 CA        -10.8035   -8.5230    9.5920 C.3       2 GLC5        0.0000 
      8 CA         -8.9520   -8.4090   10.5150 C.3       6 GLL5        0.0000 
      9 CA        -12.6550   -8.6370    8.6690 C.3       4 GLP5        0.0000 
     10 CA         -6.6950   -3.8880   10.1305 C.3       2 GLC5        0.0000 
     11 CA         -6.4210   -5.5800    9.2570 C.3       6 GLL5        0.0000 
     12 CA         -6.9690   -2.1960   11.0040 C.3       4 GLP5        0.0000 
     13 CA         -4.6945   -4.9040    9.4380 C.3       2 GLC5        0.0000 
     14 CA         -2.9680   -4.2280    9.6190 C.3       4 GLP5        0.0000 
     15 CA         -6.4575   -4.5735    7.6705 C.3       2 GLC5        0.0000 
     16 CA         -6.4940   -3.5670    6.0840 C.3       4 GLP5        0.0000 
     17 CA         -9.9440   -6.1845   13.6525 C.3       2 GLC5        0.0000 
     18 CA         -9.0130   -5.2830   12.0670 C.3       6 GLL5        0.0000 
     19 CA        -10.8750   -7.0860   15.2380 C.3       4 GLP5        0.0000 
     20 CA        -12.2585   -4.7090   10.4680 C.3       2 GLC5        0.0000 
     21 CA        -10.4790   -4.0590   10.4450 C.3       6 GLL5        0.0000 
     22 CA         -9.3030   -6.9020    3.4500 C.3       2 GLC5        0.0000 
     23 CA        -10.6670   -6.8690    4.7990 C.3       6 GLL5        0.0000 
     24 CA         -7.9390   -6.9350    2.1010 C.3       4 GLP5        0.0000 
     25 CA        -11.6130   -5.4100    3.9780 C.3       2 GLC5        0.0000 
     26 CA        -12.5590   -3.9510    3.1570 C.3       4 GLP5        0.0000 
     27 CA        -11.4235   -8.4920    4.7400 C.3       2 GLC5        0.0000 
     28 CA        -12.1800  -10.1150    4.6810 C.3       4 GLP5        0.0000 
     29 CA        -11.4138   -7.5905    7.6850 C.3       2 GLC5        0.0000 
     30 CA         -9.7830   -6.8110    7.2390 C.3       6 GLL5        0.0000 
     31 CA        -10.5642   -8.4660    6.1290 C.3       2 GLC5        0.0000 
     32 CA        -10.9560  -10.3880    5.5570 C.3       4 GLP5        0.0000 
     33 CA        -11.7530   -4.7677    4.7888 C.3       2 GLC5        0.0000 
     34 CA        -10.5620   -6.2770    6.1630 C.3       6 GLL5        0.0000 
     35 CA        -11.2225   -2.8060    6.9543 C.3       2 GLC5        0.0000 
     36 CA        -11.3880   -0.7550    6.4460 C.3       4 GLP5        0.0000 
     37 CA        -11.8560   -6.7470    8.0658 C.3       2 GLC5        0.0000 
     38 CA        -11.3320   -4.8920    6.6780 C.3       6 GLL5        0.0000 
     39 CA         -9.1438   -4.0857    7.0946 C.3       2 GLC5        0.0000 
     40 CA         -9.9460   -5.9180    8.4420 C.3       6 GLL5        0.0000 
     41 CA         -7.7860   -2.7840    6.2370 C.3       4 GLP5        0.0000 
     42 CA        -11.1510   -7.3182    8.8745 C.3       2 GLC5        0.0000 
     43 CA         -7.9417  -10.7755   12.1223 C.3       2 GLC5        0.0000 
     44 CA         -8.0980   -9.4610   10.8140 C.3       6 GLL5        0.0000 
     45 CA         -8.4690  -12.1630   13.5210 C.3       4 GLP5        0.0000 
     46 CA        -11.0741   -6.0815   11.6999 C.3       2 GLC5        0.0000 
     47 CA        -12.8980   -6.7170   12.2580 C.3       4 GLP5        0.0000 
     48 CA         -8.4343   -3.4153   10.9610 C.3       2 GLC5        0.0000 
     49 CA         -8.5899   -5.8102    5.5910 C.3       2 GLC5        0.0000 
     50 CA         -6.7600   -4.9140    5.4320 C.3       4 GLP5        0.0000 
@<TRIPOS>BOND
@<TRIPOS>SUBSTRUCTURE
     1 ALC1        1 GROUP        1 X    ALC  0     ROOT ALC X 1
     2 GLC5        4 GROUP        1 X    GLC  0     **** GLC X 6
     3 ALP1        3 GROUP        1 Y    ALP  0     ROOT ALP Y 8
     4 GLP5        6 GROUP        1 Y    GLP  0     **** GLP Y 13
     5 ALL1        2 GROUP        1 Z    ALL  0     ROOT ALL Z 15
     6 GLL5        5 GROUP        1 Z    GLL  0     **** GLL Z 20
@<TRIPOS>SET

