#    Name: 3zdi_UGJ_1_ligand
#    Modification time : Tue Mar 25 02:46:28 2014

@<TRIPOS>MOLECULE
3zdi_UGJ_1_ligand
   30    32     1     0     0
SMALL
NO_CHARGES


@<TRIPOS>ATOM
      1 N01        -8.9880   -7.9960    7.1490 N.pl3     1 UGJ1386     0.0000 
      2 C02        -9.7830   -6.8110    7.2390 C.2       1 UGJ1386     0.0000 
      3 C03       -10.5620   -6.2770    6.1630 C.2       1 UGJ1386     0.0000 
      4 S04       -11.3320   -4.8920    6.6780 S.3       1 UGJ1386     0.0000 
      5 C05       -10.7820   -4.8220    8.2470 C.ar      1 UGJ1386     0.0000 
      6 C06        -9.9460   -5.9180    8.4420 C.ar      1 UGJ1386     0.0000 
      7 C07        -9.3480   -6.0810    9.7180 C.ar      1 UGJ1386     0.0000 
      8 C08        -8.4360   -7.2130   10.0370 C.ar      1 UGJ1386     0.0000 
      9 C09        -8.9520   -8.4090   10.5150 C.ar      1 UGJ1386     0.0000 
     10 C10        -8.0980   -9.4610   10.8140 C.ar      1 UGJ1386     0.0000 
     11 C11        -6.7310   -9.3150   10.6330 C.ar      1 UGJ1386     0.0000 
     12 C12        -6.2140   -8.1190   10.1570 C.ar      1 UGJ1386     0.0000 
     13 C13        -7.0670   -7.0680    9.8560 C.ar      1 UGJ1386     0.0000 
     14 CL         -6.4210   -5.5800    9.2570 Cl        1 UGJ1386     0.0000 
     15 C15        -9.6270   -5.1370   10.7150 C.ar      1 UGJ1386     0.0000 
     16 C16        -9.0130   -5.2830   12.0670 C.1       1 UGJ1386     0.0000 
     17 N17        -8.5440   -5.3930   13.1030 N.1       1 UGJ1386     0.0000 
     18 C18       -10.4790   -4.0590   10.4450 C.ar      1 UGJ1386     0.0000 
     19 N19       -10.7690   -3.0920   11.4580 N.pl3     1 UGJ1386     0.0000 
     20 N20       -11.0330   -3.9270    9.2280 N.ar      1 UGJ1386     0.0000 
     21 C21       -10.6670   -6.8690    4.7990 C.1       1 UGJ1386     0.0000 
     22 N22       -10.7460   -7.3230    3.7560 N.1       1 UGJ1386     0.0000 
     23 H          -9.0282   -8.4878    6.2792 H         1 UGJ1386     0.0000 
     24 H          -8.4585   -8.2335    7.9634 H         1 UGJ1386     0.0000 
     25 H          -9.9666   -8.5158   10.6476 H         1 UGJ1386     0.0000 
     26 H          -8.4790  -10.3481   11.1695 H         1 UGJ1386     0.0000 
     27 H          -6.0968  -10.0974   10.8528 H         1 UGJ1386     0.0000 
     28 H          -5.1989   -8.0121   10.0275 H         1 UGJ1386     0.0000 
     29 H         -11.3608   -2.3334   11.1856 H         1 UGJ1386     0.0000 
     30 H         -10.3556   -3.2556   12.3537 H         1 UGJ1386     0.0000 
@<TRIPOS>BOND
     1    2    1 1    
     2   23    1 1    
     3   24    1 1    
     4    3    2 2    
     5    6    2 1    
     6    4    3 1    
     7   21    3 1    
     8    5    4 1    
     9    6    5 ar   
    10   20    5 ar   
    11    7    6 ar   
    12    8    7 1    
    13   15    7 ar   
    14    9    8 ar   
    15   13    8 ar   
    16   10    9 ar   
    17   25    9 1    
    18   11   10 ar   
    19   26   10 1    
    20   12   11 ar   
    21   27   11 1    
    22   13   12 ar   
    23   28   12 1    
    24   14   13 1    
    25   16   15 1    
    26   18   15 ar   
    27   17   16 3    
    28   19   18 1    
    29   20   18 ar   
    30   29   19 1    
    31   30   19 1    
    32   22   21 3    
@<TRIPOS>SUBSTRUCTURE
     1 UGJ1386     1 GROUP   
@<TRIPOS>SET

