#    Name: 3id8_MRK_1_INTS_M
#    Modification time : Tue Mar 25 16:18:14 2014

@<TRIPOS>MOLECULE
3id8_MRK_1_INTS_M
   60     0     9     0     0
SMALL
NO_CHARGES


@<TRIPOS>ATOM
      1 CA         -8.8725   -2.7360   19.5960 C.3       3 GLC5        0.0000 
      2 CA         -7.9540   -2.2790   21.2970 C.3       9 GLL5        0.0000 
      3 CA         -9.7910   -3.1930   17.8950 C.3       6 GLP5        0.0000 
      4 CA         -9.1600   -4.9545   21.6390 C.3       3 GLC5        0.0000 
      5 CA         -8.0070   -3.4100   22.6280 C.3       9 GLL5        0.0000 
      6 CA        -10.3130   -6.4990   20.6500 C.3       6 GLP5        0.0000 
      7 CA         -6.3485   -4.3725   21.5310 C.3       3 GLC5        0.0000 
      8 CA         -4.6900   -5.3350   20.4340 C.3       6 GLP5        0.0000 
      9 CA        -10.6165   -2.2475   23.2940 C.3       3 GLC5        0.0000 
     10 CA         -8.6010   -2.8430   23.7520 C.3       9 GLL5        0.0000 
     11 CA        -12.6320   -1.6520   22.8360 C.3       6 GLP5        0.0000 
     12 N         -10.2980   -0.9605   24.1170 N.am      2 SEC2        0.0000 
     13 N          -8.9870   -1.5430   23.5910 N.am      8 SEL2        0.0000 
     14 N         -11.6090   -0.3780   24.6430 N.am      5 SEP2        0.0000 
     15 O          -9.6460    1.0860   23.1100 O.2       1 ALC1        0.0000 
     16 O          -8.9620    0.1540   21.9170 O.2       7 ALL1        0.0000 
     17 O         -10.3300    2.0180   24.3030 O.2       4 ALP1        0.0000 
     18 CA         -9.6755    7.0120   18.3195 C.3       3 GLC5        0.0000 
     19 CA        -10.2800    5.8010   19.2480 C.3       9 GLL5        0.0000 
     20 CA         -9.0710    8.2230   17.3910 C.3       6 GLP5        0.0000 
     21 CA         -7.3400    3.6990   20.4460 C.3       3 GLC5        0.0000 
     22 CA         -8.8430    3.9500   18.9260 C.3       9 GLL5        0.0000 
     23 CA         -5.8370    3.4480   21.9660 C.3       6 GLP5        0.0000 
     24 CA        -11.6100    4.4355   23.5250 C.3       3 GLC5        0.0000 
     25 CA        -11.8490    4.4850   21.5220 C.3       9 GLL5        0.0000 
     26 CA        -11.3710    4.3860   25.5280 C.3       6 GLP5        0.0000 
     27 CA        -12.0625    3.4930   19.7340 C.3       3 GLC5        0.0000 
     28 CA        -12.2760    2.5010   17.9460 C.3       6 GLP5        0.0000 
     29 CA        -13.2430    4.3055   22.8610 C.3       3 GLC5        0.0000 
     30 CA        -14.6370    4.1260   24.2000 C.3       6 GLP5        0.0000 
     31 CA         -9.4705    8.2380   23.6540 C.3       3 GLC5        0.0000 
     32 CA        -11.1600    8.3390   22.4080 C.3       9 GLL5        0.0000 
     33 CA         -7.7810    8.1370   24.9000 C.3       6 GLP5        0.0000 
     34 CA        -14.2165    9.0845   21.6795 C.3       3 GLC5        0.0000 
     35 CA        -12.5790    8.1950   21.5340 C.3       9 GLL5        0.0000 
     36 CA        -15.8540    9.9740   21.8250 C.3       6 GLP5        0.0000 
     37 CA        -14.3660    7.1880   22.2540 C.3       3 GLC5        0.0000 
     38 CA        -16.1530    6.1810   22.9740 C.3       6 GLP5        0.0000 
     39 CA        -14.6945    5.2170   19.6175 C.3       3 GLC5        0.0000 
     40 CA        -13.6090    6.6910   20.0040 C.3       9 GLL5        0.0000 
     41 CA        -15.7800    3.7430   19.2310 C.3       6 GLP5        0.0000 
     42 CA        -12.2410    8.0165   19.2490 C.3       3 GLC5        0.0000 
     43 CA        -10.8730    9.3420   18.4940 C.3       6 GLP5        0.0000 
     44 CA        -15.4915    7.7870   20.0160 C.3       3 GLC5        0.0000 
     45 CA        -17.3740    8.8830   20.0280 C.3       6 GLP5        0.0000 
     46 CA        -14.8810    6.4360   21.4890 C.3       3 GLC5        0.0000 
     47 O          -6.8555    3.4095   17.6115 O.2       1 ALC1        0.0000 
     48 O          -7.4130    2.1230   18.5510 O.2       7 ALL1        0.0000 
     49 O          -6.2980    4.6960   16.6720 O.2       4 ALP1        0.0000 
     50 CA         -6.3057   -1.8453   21.7888 C.3       3 GLC5        0.0000 
     51 CA         -4.6310   -0.8460   21.6150 C.3       6 GLP5        0.0000 
     52 CA         -7.6325    2.9411   21.1650 C.3       3 GLC5        0.0000 
     53 CA        -10.1190    2.5550   20.9600 C.3       9 GLL5        0.0000 
     54 CA        -11.3035    2.8510   19.3725 C.3       3 GLC5        0.0000 
     55 CA        -11.3005    1.5571   20.7703 C.3       3 GLC5        0.0000 
     56 CA        -10.5430    3.8470   20.6380 C.3       9 GLL5        0.0000 
     57 CA        -12.5380    0.0610   20.9100 C.3       6 GLP5        0.0000 
     58 CA        -11.1832    3.8387   18.6875 C.3       3 GLC5        0.0000 
     59 CA         -9.9010    4.5520   19.6100 C.3       9 GLL5        0.0000 
     60 CA        -10.5330    2.8164   18.6465 C.3       3 GLC5        0.0000 
@<TRIPOS>BOND
@<TRIPOS>SUBSTRUCTURE
     1 ALC1       15 GROUP        1 X    ALC  0     ROOT ALC X 1
     2 SEC2       12 GROUP        1 X    SEC  0     **** SEC X 2
     3 GLC5        1 GROUP        1 X    GLC  0     **** GLC X 6
     4 ALP1       17 GROUP        1 Y    ALP  0     ROOT ALP Y 8
     5 SEP2       14 GROUP        1 Y    SEP  0     **** SEP Y 9
     6 GLP5        3 GROUP        1 Y    GLP  0     **** GLP Y 13
     7 ALL1       16 GROUP        1 Z    ALL  0     ROOT ALL Z 15
     8 SEL2       13 GROUP        1 Z    SEL  0     **** SEL Z 16
     9 GLL5        2 GROUP        1 Z    GLL  0     **** GLL Z 20
@<TRIPOS>SET

