#    Name: 3id8_MRK_1_ligand
#    Modification time : Tue Mar 25 16:18:15 2014

@<TRIPOS>MOLECULE
3id8_MRK_1_ligand
   35    37     1     0     0
SMALL
NO_CHARGES


@<TRIPOS>ATOM
      1 S1         -7.9540   -2.2790   21.2970 S.3       1 MRK501      0.0000 
      2 C2         -8.0070   -3.4100   22.6280 C.2       1 MRK501      0.0000 
      3 C3         -8.6010   -2.8430   23.7520 C.2       1 MRK501      0.0000 
      4 N4         -8.9870   -1.5430   23.5910 N.2       1 MRK501      0.0000 
      5 C5         -8.6920   -1.1210   22.3450 C.2       1 MRK501      0.0000 
      6 N6         -8.9620    0.1540   21.9170 N.am      1 MRK501      0.0000 
      7 C7         -8.6670    0.5720   20.6780 C.2       1 MRK501      0.0000 
      8 O8         -8.1390   -0.1510   19.8430 O.2       1 MRK501      0.0000 
      9 C9         -8.4270    2.6630   19.2500 C.ar      1 MRK501      0.0000 
     10 C10        -9.0470    1.9640   20.2860 C.ar      1 MRK501      0.0000 
     11 C11       -10.1190    2.5550   20.9600 C.ar      1 MRK501      0.0000 
     12 C12       -10.5430    3.8470   20.6380 C.ar      1 MRK501      0.0000 
     13 C13        -9.9010    4.5520   19.6100 C.ar      1 MRK501      0.0000 
     14 F14       -10.2800    5.8010   19.2480 F         1 MRK501      0.0000 
     15 C15        -8.8430    3.9500   18.9260 C.ar      1 MRK501      0.0000 
     16 S16       -11.8490    4.4850   21.5220 S.3       1 MRK501      0.0000 
     17 N17       -12.6700    6.9890   21.0840 N.pl3     1 MRK501      0.0000 
     18 C18       -11.8780    6.1330   21.7420 C.2       1 MRK501      0.0000 
     19 N19       -11.1540    6.7390   22.6770 N.2       1 MRK501      0.0000 
     20 C20       -11.1600    8.3390   22.4080 C.2       1 MRK501      0.0000 
     21 C21       -12.5790    8.1950   21.5340 C.2       1 MRK501      0.0000 
     22 C22       -13.6090    6.6910   20.0040 C.3       1 MRK501      0.0000 
     23 N23        -7.4130    2.1230   18.5510 N.pl3     1 MRK501      0.0000 
     24 H          -7.6433   -4.2270   22.4291 H         1 MRK501      0.0000 
     25 H          -8.7276   -3.3532   24.5955 H         1 MRK501      0.0000 
     26 H          -9.4186    0.8197   22.5976 H         1 MRK501      0.0000 
     27 H         -10.6037    2.0307   21.7050 H         1 MRK501      0.0000 
     28 H          -8.3655    4.4683   18.1712 H         1 MRK501      0.0000 
     29 H         -10.7472    8.9012   22.5760 H         1 MRK501      0.0000 
     30 H         -13.0814    8.9819   21.5004 H         1 MRK501      0.0000 
     31 H          -7.4296    1.1284   18.4487 H         1 MRK501      0.0000 
     32 H          -6.7328    2.7643   18.1959 H         1 MRK501      0.0000 
     33 H         -13.1487    6.2912   19.2114 H         1 MRK501      0.0000 
     34 H         -14.3129    6.0419   20.2924 H         1 MRK501      0.0000 
     35 H         -14.0811    7.5128   19.6850 H         1 MRK501      0.0000 
@<TRIPOS>BOND
     1    2    1 1    
     2    5    1 1    
     3    3    2 2    
     4   24    2 1    
     5    4    3 1    
     6   25    3 1    
     7    5    4 2    
     8    6    5 1    
     9    7    6 am   
    10   26    6 1    
    11    8    7 2    
    12   10    7 1    
    13   10    9 ar   
    14   15    9 ar   
    15   23    9 1    
    16   11   10 ar   
    17   12   11 ar   
    18   27   11 1    
    19   13   12 ar   
    20   16   12 1    
    21   14   13 1    
    22   15   13 ar   
    23   28   15 1    
    24   18   16 1    
    25   18   17 1    
    26   21   17 1    
    27   22   17 1    
    28   19   18 2    
    29   20   19 1    
    30   21   20 2    
    31   29   20 1    
    32   30   21 1    
    33   33   22 1    
    34   34   22 1    
    35   35   22 1    
    36   31   23 1    
    37   32   23 1    
@<TRIPOS>SUBSTRUCTURE
     1 MRK501      1 GROUP   
@<TRIPOS>SET

