#    Name: 1uyf_PU1_1_INTS_M
#    Modification time : Tue Mar 25 07:19:01 2014

@<TRIPOS>MOLECULE
1uyf_PU1_1_INTS_M
   75     0     6     0     0
SMALL
NO_CHARGES


@<TRIPOS>ATOM
      1 CA          1.5770   13.7515   25.9470 C.3       2 GLC5        0.0000 
      2 CA          2.3120   14.0680   24.3150 C.3       6 GLL5        0.0000 
      3 CA          0.8420   13.4350   27.5790 C.3       4 GLP5        0.0000 
      4 CA          2.8780   14.3730   22.6595 C.3       2 GLC5        0.0000 
      5 CA          3.4440   14.6780   21.0040 C.3       4 GLP5        0.0000 
      6 CA          1.5605   15.6940   25.3425 C.3       2 GLC5        0.0000 
      7 CA          0.8090   17.3200   26.3700 C.3       4 GLP5        0.0000 
      8 CA          0.6405   15.2380   23.4290 C.3       2 GLC5        0.0000 
      9 CA         -1.0310   16.4080   22.5430 C.3       4 GLP5        0.0000 
     10 CA          3.0940   12.9035   26.1260 C.3       2 GLC5        0.0000 
     11 CA          3.8980   13.2920   24.2100 C.3       6 GLL5        0.0000 
     12 CA          2.2900   12.5150   28.0420 C.3       4 GLP5        0.0000 
     13 CA          3.2080   14.1190   27.0885 C.3       2 GLC5        0.0000 
     14 CA          4.1260   15.7230   26.1350 C.3       6 GLL5        0.0000 
     15 CA          4.1495   15.6735   27.9165 C.3       2 GLC5        0.0000 
     16 CA          4.1730   15.6240   29.6980 C.3       4 GLP5        0.0000 
     17 CA          4.3095   16.2125   23.9590 C.3       2 GLC5        0.0000 
     18 CA          4.4930   16.7020   21.7830 C.3       4 GLP5        0.0000 
     19 CA          2.4675   16.5215   26.2525 C.3       2 GLC5        0.0000 
     20 CA          5.0910   17.5230   26.1550 C.3       2 GLC5        0.0000 
     21 CA          6.0560   19.3230   26.1750 C.3       4 GLP5        0.0000 
     22 CA          6.7430   15.7095   23.1295 C.3       2 GLC5        0.0000 
     23 CA          7.7660   15.2710   24.5720 C.3       6 GLL5        0.0000 
     24 CA          5.7200   16.1480   21.6870 C.3       4 GLP5        0.0000 
     25 CA          8.8425   14.7155   23.0235 C.3       2 GLC5        0.0000 
     26 CA          9.9190   14.1600   21.4750 C.3       4 GLP5        0.0000 
     27 CA          7.7670   16.9865   24.5770 C.3       2 GLC5        0.0000 
     28 CA          7.7680   18.7020   24.5820 C.3       4 GLP5        0.0000 
     29 CA          8.0480   10.5200   25.3850 C.3       2 GLC5        0.0000 
     30 CA          8.1810   10.7080   23.1560 C.3       6 GLL5        0.0000 
     31 CA          7.9150   10.3320   27.6140 C.3       4 GLP5        0.0000 
     32 CA          9.9945   10.1020   23.1685 C.3       2 GLC5        0.0000 
     33 CA         11.8080    9.4960   23.1810 C.3       4 GLP5        0.0000 
     34 CA          8.9795   11.8135   22.0060 C.3       2 GLC5        0.0000 
     35 CA          9.7780   12.9190   20.8560 C.3       4 GLP5        0.0000 
     36 CA          1.2695   10.3650   21.9005 C.3       2 GLC5        0.0000 
     37 CA          3.0410   11.2150   22.9470 C.3       6 GLL5        0.0000 
     38 CA         -0.5020    9.5150   20.8540 C.3       4 GLP5        0.0000 
     39 CA         -0.3385   10.2435   22.7635 C.3       2 GLC5        0.0000 
     40 CA         -0.1750   10.9720   24.6730 C.3       6 GLL5        0.0000 
     41 CA         -2.6065    9.4500   25.5605 C.3       2 GLC5        0.0000 
     42 CA         -1.4840   11.1340   24.9560 C.3       6 GLL5        0.0000 
     43 CA         -3.7290    7.7660   26.1650 C.3       4 GLP5        0.0000 
     44 O          -3.8230   11.9060   24.1985 O.2       1 ALC1        0.0000 
     45 O          -2.4570   11.8080   24.1250 O.2       5 ALL1        0.0000 
     46 O          -5.1890   12.0040   24.2720 O.2       3 ALP1        0.0000 
     47 CA         -0.1470   11.7215   27.2660 C.3       2 GLC5        0.0000 
     48 CA         -1.1360   10.0080   26.9530 C.3       6 GLL5        0.0000 
     49 CA          2.6890   11.0875   26.8750 C.3       2 GLC5        0.0000 
     50 CA          3.0880    9.6600   25.7080 C.3       6 GLL5        0.0000 
     51 CA          4.3060   10.2960   26.7760 C.3       2 GLC5        0.0000 
     52 CA          5.5240   10.9320   27.8440 C.3       4 GLP5        0.0000 
     53 CA         -2.2590    8.2280   29.0845 C.3       2 GLC5        0.0000 
     54 CA         -1.6960    9.5510   28.0950 C.3       6 GLL5        0.0000 
     55 CA         -2.8220    6.9050   30.0740 C.3       4 GLP5        0.0000 
     56 CA         -2.3170   10.4215   29.5825 C.3       2 GLC5        0.0000 
     57 CA         -2.9380   11.2920   31.0700 C.3       4 GLP5        0.0000 
     58 CA         -0.0570   10.5805   28.7875 C.3       2 GLC5        0.0000 
     59 CA          1.5820   11.6100   29.4800 C.3       4 GLP5        0.0000 
     60 CA          5.5847   12.2855   26.2575 C.3       2 GLC5        0.0000 
     61 CA          5.0260   13.9110   24.7110 C.3       6 GLL5        0.0000 
     62 CA          5.7443   11.3915   25.8083 C.3       2 GLC5        0.0000 
     63 CA          6.5020   12.1950   24.0430 C.3       6 GLL5        0.0000 
     64 CA          5.3702   12.2580   22.0463 C.3       2 GLC5        0.0000 
     65 CA          4.7760   12.6650   20.3200 C.3       4 GLP5        0.0000 
     66 CA          4.1530   12.3031   21.8695 C.3       2 GLC5        0.0000 
     67 CA         -1.5022   12.8885   25.4718 C.3       2 GLC5        0.0000 
     68 CA         -2.1750   14.7240   26.1290 C.3       4 GLP5        0.0000 
     69 CA          0.3594   12.0593   26.3874 C.3       2 GLC5        0.0000 
     70 CA         -2.5725    8.7728   26.8445 C.3       2 GLC5        0.0000 
     71 CA          4.6383    8.1828   26.3392 C.3       2 GLC5        0.0000 
     72 CA          2.9510    8.1510   25.6090 C.3       6 GLL5        0.0000 
     73 CA          6.1060    8.5500   27.7060 C.3       4 GLP5        0.0000 
     74 CA          5.7037    8.2257   25.6070 C.3       2 GLC5        0.0000 
     75 CA          4.7800    7.7670   23.7480 C.3       6 GLL5        0.0000 
@<TRIPOS>BOND
@<TRIPOS>SUBSTRUCTURE
     1 ALC1       44 GROUP        1 X    ALC  0     ROOT ALC X 1
     2 GLC5        1 GROUP        1 X    GLC  0     **** GLC X 6
     3 ALP1       46 GROUP        1 Y    ALP  0     ROOT ALP Y 8
     4 GLP5        3 GROUP        1 Y    GLP  0     **** GLP Y 13
     5 ALL1       45 GROUP        1 Z    ALL  0     ROOT ALL Z 15
     6 GLL5        2 GROUP        1 Z    GLL  0     **** GLL Z 20
@<TRIPOS>SET

