#    Name: 1uyf_PU1_1_ligand
#    Modification time : Tue Mar 25 07:19:02 2014

@<TRIPOS>MOLECULE
1uyf_PU1_1_ligand
   50    52     1     0     0
SMALL
NO_CHARGES


@<TRIPOS>ATOM
      1 CL          2.3120   14.0680   24.3150 Cl        1 PU11224     0.0000 
      2 C13         3.8980   13.2920   24.2100 C.ar      1 PU11224     0.0000 
      3 C15         5.0260   13.9110   24.7110 C.ar      1 PU11224     0.0000 
      4 O3          5.1190   15.1390   25.3580 O.3       1 PU11224     0.0000 
      5 C20         4.1260   15.7230   26.1350 C.3       1 PU11224     0.0000 
      6 C17         6.2650   13.3670   24.6310 C.ar      1 PU11224     0.0000 
      7 O2          7.3090   14.0870   25.2130 O.3       1 PU11224     0.0000 
      8 C19         7.7660   15.2710   24.5720 C.3       1 PU11224     0.0000 
      9 C16         6.5020   12.1950   24.0430 C.ar      1 PU11224     0.0000 
     10 O1          7.8340   11.7330   24.1060 O.3       1 PU11224     0.0000 
     11 C18         8.1810   10.7080   23.1560 C.3       1 PU11224     0.0000 
     12 C14         5.4270   11.5070   23.5020 C.ar      1 PU11224     0.0000 
     13 C12         4.1400   12.0430   23.5720 C.ar      1 PU11224     0.0000 
     14 C6          3.0410   11.2150   22.9470 C.3       1 PU11224     0.0000 
     15 C5          1.8300   11.0150   23.8120 C.2       1 PU11224     0.0000 
     16 N3          0.6270   11.4450   23.5600 N.2       1 PU11224     0.0000 
     17 C2         -0.1750   10.9720   24.6730 C.ar      1 PU11224     0.0000 
     18 C3         -1.4840   11.1340   24.9560 C.ar      1 PU11224     0.0000 
     19 N5         -2.4570   11.8080   24.1250 N.pl3     1 PU11224     0.0000 
     20 C1          0.5830   10.3140   25.5770 C.ar      1 PU11224     0.0000 
     21 N1          0.1470    9.8430   26.7050 N.ar      1 PU11224     0.0000 
     22 C4         -1.1360   10.0080   26.9530 C.ar      1 PU11224     0.0000 
     23 N2         -1.8970   10.6050   26.0990 N.ar      1 PU11224     0.0000 
     24 N4          1.9230   10.3260   25.0990 N.pl3     1 PU11224     0.0000 
     25 C7          3.0880    9.6600   25.7080 C.3       1 PU11224     0.0000 
     26 C8          2.9510    8.1510   25.6090 C.3       1 PU11224     0.0000 
     27 C9          3.3900    7.4800   24.3360 C.3       1 PU11224     0.0000 
     28 C10         4.7800    7.7670   23.7480 C.1       1 PU11224     0.0000 
     29 C11         5.8230    8.0360   23.2680 C.1       1 PU11224     0.0000 
     30 F          -1.6960    9.5510   28.0950 F         1 PU11224     0.0000 
     31 H           5.5742   10.5953   23.0451 H         1 PU11224     0.0000 
     32 H           3.4563   10.2231   22.6668 H         1 PU11224     0.0000 
     33 H           2.7321   11.6932   21.9927 H         1 PU11224     0.0000 
     34 H          -2.1160   12.1801   23.2617 H         1 PU11224     0.0000 
     35 H          -3.3901   11.8459   24.4825 H         1 PU11224     0.0000 
     36 H           3.1767    9.9348   26.7640 H         1 PU11224     0.0000 
     37 H           4.0096    9.9618   25.2001 H         1 PU11224     0.0000 
     38 H           1.8767    7.8822   25.8071 H         1 PU11224     0.0000 
     39 H           3.5085    7.6905   26.4708 H         1 PU11224     0.0000 
     40 H           2.6267    7.7000   23.5278 H         1 PU11224     0.0000 
     41 H           3.3015    6.3580   24.4678 H         1 PU11224     0.0000 
     42 H           3.8801   15.1492   26.9162 H         1 PU11224     0.0000 
     43 H           4.4131   16.6084   26.5006 H         1 PU11224     0.0000 
     44 H           3.2886   15.8797   25.6113 H         1 PU11224     0.0000 
     45 H           8.5161   15.7000   25.0753 H         1 PU11224     0.0000 
     46 H           8.1005   15.0875   23.6477 H         1 PU11224     0.0000 
     47 H           7.0395   15.9534   24.4907 H         1 PU11224     0.0000 
     48 H           9.1342   10.4209   23.2510 H         1 PU11224     0.0000 
     49 H           7.6161    9.8906   23.2687 H         1 PU11224     0.0000 
     50 H           8.0612   11.0194   22.2133 H         1 PU11224     0.0000 
@<TRIPOS>BOND
     1    2    1 1    
     2    3    2 ar   
     3   13    2 ar   
     4    4    3 1    
     5    6    3 ar   
     6    5    4 1    
     7   42    5 1    
     8   43    5 1    
     9   44    5 1    
    10    7    6 1    
    11    9    6 ar   
    12    8    7 1    
    13   45    8 1    
    14   46    8 1    
    15   47    8 1    
    16   10    9 1    
    17   12    9 ar   
    18   11   10 1    
    19   48   11 1    
    20   49   11 1    
    21   50   11 1    
    22   13   12 ar   
    23   31   12 1    
    24   14   13 1    
    25   15   14 1    
    26   32   14 1    
    27   33   14 1    
    28   16   15 2    
    29   24   15 1    
    30   17   16 1    
    31   18   17 ar   
    32   20   17 ar   
    33   19   18 1    
    34   23   18 ar   
    35   34   19 1    
    36   35   19 1    
    37   21   20 ar   
    38   24   20 1    
    39   22   21 ar   
    40   23   22 ar   
    41   30   22 1    
    42   25   24 1    
    43   26   25 1    
    44   36   25 1    
    45   37   25 1    
    46   27   26 1    
    47   38   26 1    
    48   39   26 1    
    49   28   27 1    
    50   40   27 1    
    51   41   27 1    
    52   29   28 3    
@<TRIPOS>SUBSTRUCTURE
     1 PU11224     1 GROUP   
@<TRIPOS>SET

