#    Name: 1z69_F42_4_INTS_M
#    Modification time : Tue Mar 25 11:30:08 2014

@<TRIPOS>MOLECULE
1z69_F42_4_INTS_M
   93     0     9     0     0
SMALL
NO_CHARGES


@<TRIPOS>ATOM
      1 N          32.6490    3.5065   16.8855 N.am      2 SEC2        0.0000 
      2 N          33.9320    3.1260   17.3070 N.am      8 SEL2        0.0000 
      3 N          31.3660    3.8870   16.4640 N.am      5 SEP2        0.0000 
      4 O          33.2285    5.5800   18.4635 O.2       1 ALC1        0.0000 
      5 O          34.1120    5.4260   17.2190 O.2       7 ALL1        0.0000 
      6 O          32.3450    5.7340   19.7080 O.2       4 ALP1        0.0000 
      7 N          33.2335    8.1595   17.8395 N.am      2 SEC2        0.0000 
      8 N          34.1770    7.6180   16.8350 N.am      8 SEL2        0.0000 
      9 N          32.2900    8.7010   18.8440 N.am      5 SEP2        0.0000 
     10 N          33.3985    7.9935   15.4850 N.am      2 SEC2        0.0000 
     11 N          32.6200    8.3690   14.1350 N.am      5 SEP2        0.0000 
     12 CA         34.1315    6.0120   14.1645 C.3       3 GLC5        0.0000 
     13 CA         35.6910    6.3260   15.5440 C.3       9 GLL5        0.0000 
     14 CA         32.5720    5.6980   12.7850 C.3       6 GLP5        0.0000 
     15 CA         36.1465    9.1010   16.1445 C.3       3 GLC5        0.0000 
     16 CA         36.4050    7.4020   14.8470 C.3       9 GLL5        0.0000 
     17 CA         35.8880   10.8000   17.4420 C.3       6 GLP5        0.0000 
     18 CA         35.7535    8.5425    9.2980 C.3       3 GLC5        0.0000 
     19 CA         36.6390    7.7170   10.9320 C.3       9 GLL5        0.0000 
     20 CA         34.8680    9.3680    7.6640 C.3       6 GLP5        0.0000 
     21 CA         37.8015    9.3510   10.0150 C.3       3 GLC5        0.0000 
     22 CA         38.9640   10.9850    9.0980 C.3       6 GLP5        0.0000 
     23 CA         39.1485    6.4335   10.2330 C.3       3 GLC5        0.0000 
     24 CA         36.9270    6.3300   10.5470 C.3       9 GLL5        0.0000 
     25 CA         41.3700    6.5370    9.9190 C.3       6 GLP5        0.0000 
     26 O          36.8860    6.3975    8.2040 O.2       1 ALC1        0.0000 
     27 O          37.2630    5.7560    9.3270 O.2       7 ALL1        0.0000 
     28 O          36.5090    7.0390    7.0810 O.2       4 ALP1        0.0000 
     29 CA         34.6675    1.3630   11.5995 C.3       3 GLC5        0.0000 
     30 CA         36.1300    2.4190   12.8330 C.3       9 GLL5        0.0000 
     31 CA         33.2050    0.3070   10.3660 C.3       6 GLP5        0.0000 
     32 CA         34.7650    1.2685   14.1355 C.3       3 GLC5        0.0000 
     33 CA         33.4000    0.1180   15.4380 C.3       6 GLP5        0.0000 
     34 N          33.9340    1.1570   13.7510 N.am      2 SEC2        0.0000 
     35 N          34.8750    2.2410   13.4660 N.am      8 SEL2        0.0000 
     36 N          32.9930    0.0730   14.0360 N.am      5 SEP2        0.0000 
     37 CA         35.3120    0.0835   11.4880 C.3       3 GLC5        0.0000 
     38 CA         36.7640    1.1680   12.2590 C.3       9 GLL5        0.0000 
     39 CA         33.8600   -1.0010   10.7170 C.3       6 GLP5        0.0000 
     40 O          36.2160   -0.4595   14.0480 O.2       1 ALC1        0.0000 
     41 O          37.2220    0.3170   13.3440 O.2       7 ALL1        0.0000 
     42 O          35.2100   -1.2360   14.7520 O.2       4 ALP1        0.0000 
     43 N          37.7090    0.7210    7.1630 N.am      2 SEC2        0.0000 
     44 N          36.9740   -0.2870    7.8670 N.am      8 SEL2        0.0000 
     45 N          38.4440    1.7290    6.4590 N.am      5 SEP2        0.0000 
     46 N          38.3050   -0.4745    6.7625 N.am      2 SEC2        0.0000 
     47 N          39.6360   -0.6620    5.6580 N.am      5 SEP2        0.0000 
     48 N          39.3075   -1.1370    7.1105 N.am      2 SEC2        0.0000 
     49 N          38.9790   -1.6120    8.5630 N.am      8 SEL2        0.0000 
     50 CA         36.9825   -3.9720   11.6080 C.3       3 GLC5        0.0000 
     51 CA         37.0450   -3.6310    9.6320 C.3       9 GLL5        0.0000 
     52 CA         36.9200   -4.3130   13.5840 C.3       6 GLP5        0.0000 
     53 CA         35.7500   -4.0560   11.9600 C.3       3 GLC5        0.0000 
     54 CA         35.8540   -4.3050   10.2860 C.3       9 GLL5        0.0000 
     55 CA         35.6460   -3.8070   13.6340 C.3       6 GLP5        0.0000 
     56 CA         34.1380   -4.9905   10.3235 C.3       3 GLC5        0.0000 
     57 CA         32.4220   -5.6760   10.3610 C.3       6 GLP5        0.0000 
     58 CA         34.2535   -3.7715    8.8430 C.3       3 GLC5        0.0000 
     59 CA         32.6530   -3.2380    7.4000 C.3       6 GLP5        0.0000 
     60 CA         38.8450   -3.5615    5.5690 C.3       3 GLC5        0.0000 
     61 CA         37.8140   -5.2820    6.2880 C.3       9 GLL5        0.0000 
     62 CA         39.8760   -1.8410    4.8500 C.3       6 GLP5        0.0000 
     63 N          38.0315   -4.4315    2.8310 N.am      2 SEC2        0.0000 
     64 N          38.4450   -5.0190    4.0030 N.am      8 SEL2        0.0000 
     65 N          37.6180   -3.8440    1.6590 N.am      5 SEP2        0.0000 
     66 N          36.5345   -2.9320    4.0905 N.am      2 SEC2        0.0000 
     67 N          37.5550   -3.2860    5.0470 N.am      8 SEL2        0.0000 
     68 N          35.5140   -2.5780    3.1340 N.am      5 SEP2        0.0000 
     69 CA         36.4245   -6.0140    4.1015 C.3       3 GLC5        0.0000 
     70 CA         36.9040   -6.4780    6.0160 C.3       9 GLL5        0.0000 
     71 CA         35.9450   -5.5500    2.1870 C.3       6 GLP5        0.0000 
     72 N          29.1475   -8.4260    6.2395 N.am      2 SEC2        0.0000 
     73 N          29.9630   -9.6600    5.9850 N.am      8 SEL2        0.0000 
     74 N          28.3320   -7.1920    6.4940 N.am      5 SEP2        0.0000 
     75 CA         34.5847    6.0488   12.9878 C.3       3 GLC5        0.0000 
     76 CA         36.6500    5.6850   12.9600 C.3       9 GLL5        0.0000 
     77 CA         34.4627    7.7840   11.4325 C.3       3 GLC5        0.0000 
     78 CA         36.4160    8.0870   12.3280 C.3       9 GLL5        0.0000 
     79 CA         32.3980    7.6660   11.2350 C.3       6 GLP5        0.0000 
     80 CA         35.4327    5.5023    9.6540 C.3       3 GLC5        0.0000 
     81 CA         33.9470    5.1390    8.2460 C.3       6 GLP5        0.0000 
     82 CA         39.4095    1.1300    9.3385 C.3       3 GLC5        0.0000 
     83 CA         37.8950    1.5010   11.2490 C.3       9 GLL5        0.0000 
     84 CA         40.5640    1.3850    7.6660 C.3       6 GLP5        0.0000 
     85 CA         35.1547   -2.4845   10.3380 C.3       3 GLC5        0.0000 
     86 CA         31.2280   -9.3870    8.9047 C.3       3 GLC5        0.0000 
     87 CA         33.0840   -8.8410    7.3280 C.3       9 GLL5        0.0000 
     88 CA         30.1110   -9.8120   10.3320 C.3       6 GLP5        0.0000 
     89 CA         31.7460   -7.8430    6.5008 C.3       3 GLC5        0.0000 
     90 CA         31.6060   -9.0830    7.6270 C.3       9 GLL5        0.0000 
     91 CA         31.1470   -6.7240    5.5240 C.3       6 GLP5        0.0000 
     92 CA         32.4573   -8.5926    9.1734 C.3       3 GLC5        0.0000 
     93 CA         32.3260   -7.9920   10.6840 C.3       6 GLP5        0.0000 
@<TRIPOS>BOND
@<TRIPOS>SUBSTRUCTURE
     1 ALC1        4 GROUP        1 X    ALC  0     ROOT ALC X 1
     2 SEC2        1 GROUP        1 X    SEC  0     **** SEC X 2
     3 GLC5       12 GROUP        1 X    GLC  0     **** GLC X 6
     4 ALP1        6 GROUP        1 Y    ALP  0     ROOT ALP Y 8
     5 SEP2        3 GROUP        1 Y    SEP  0     **** SEP Y 9
     6 GLP5       14 GROUP        1 Y    GLP  0     **** GLP Y 13
     7 ALL1        5 GROUP        1 Z    ALL  0     ROOT ALL Z 15
     8 SEL2        2 GROUP        1 Z    SEL  0     **** SEL Z 16
     9 GLL5       13 GROUP        1 Z    GLL  0     **** GLL Z 20
@<TRIPOS>SET

