#    Name: 1z69_F42_4_ligand
#    Modification time : Tue Mar 25 11:30:08 2014

@<TRIPOS>MOLECULE
1z69_F42_4_ligand
   85    87     1     0     0
SMALL
NO_CHARGES


@<TRIPOS>ATOM
      1 N1         35.0070    3.9650   15.6490 N.2       1 F423328     0.0000 
      2 C2         34.3450    4.1310   16.7280 C.2       1 F423328     0.0000 
      3 O2         33.9320    3.1260   17.3070 O.2       1 F423328     0.0000 
      4 N3         34.1120    5.4260   17.2190 N.am      1 F423328     0.0000 
      5 C4         34.6440    6.5250   16.5380 C.2       1 F423328     0.0000 
      6 O4         34.1770    7.6180   16.8350 O.2       1 F423328     0.0000 
      7 C4A        35.6910    6.3260   15.5440 C.2       1 F423328     0.0000 
      8 C5         36.4050    7.4020   14.8470 C.2       1 F423328     0.0000 
      9 C5A        36.5450    7.1140   13.4210 C.ar      1 F423328     0.0000 
     10 C6         36.4160    8.0870   12.3280 C.ar      1 F423328     0.0000 
     11 C7         36.6390    7.7170   10.9320 C.ar      1 F423328     0.0000 
     12 C8         36.9270    6.3300   10.5470 C.ar      1 F423328     0.0000 
     13 O8M        37.2630    5.7560    9.3270 O.3       1 F423328     0.0000 
     14 C9         36.9100    5.4010   11.5770 C.ar      1 F423328     0.0000 
     15 C9A        36.6500    5.6850   12.9600 C.ar      1 F423328     0.0000 
     16 N10        36.3800    4.6530   13.8790 N.pl3     1 F423328     0.0000 
     17 C10        35.6770    4.9470   15.0370 C.2       1 F423328     0.0000 
     18 C1'        37.0000    3.3200   13.7250 C.3       1 F423328     0.0000 
     19 C2'        36.1300    2.4190   12.8330 C.3       1 F423328     0.0000 
     20 O2'        34.8750    2.2410   13.4660 O.3       1 F423328     0.0000 
     21 C3'        36.7640    1.1680   12.2590 C.3       1 F423328     0.0000 
     22 O3'        37.2220    0.3170   13.3440 O.3       1 F423328     0.0000 
     23 C4'        37.8950    1.5010   11.2490 C.3       1 F423328     0.0000 
     24 O4'        37.3280    2.2090   10.1200 O.3       1 F423328     0.0000 
     25 C5'        38.6150    0.2490   10.7730 C.3       1 F423328     0.0000 
     26 O5'        37.6150   -0.6050   10.2080 O.3       1 F423328     0.0000 
     27 P          37.6100   -1.1860    8.7940 P.3       1 F423328     0.0000 
     28 O1P        36.9740   -0.2870    7.8670 O.co2     1 F423328     0.0000 
     29 O2P        38.9790   -1.6120    8.5630 O.co2     1 F423328     0.0000 
     30 O3P        36.6460   -2.3810    8.9840 O.3       1 F423328     0.0000 
     31 C1I        37.0450   -3.6310    9.6320 C.3       1 F423328     0.0000 
     32 C2I        35.8540   -4.3050   10.2860 C.3       1 F423328     0.0000 
     33 C3I        37.6720   -4.5880    8.6310 C.2       1 F423328     0.0000 
     34 O3I        38.2370   -5.5950    9.0370 O.2       1 F423328     0.0000 
     35 N1H        37.2660   -4.4580    7.3680 N.am      1 F423328     0.0000 
     36 C1H        37.8140   -5.2820    6.2880 C.3       1 F423328     0.0000 
     37 C2H        37.9510   -4.4680    5.0130 C.2       1 F423328     0.0000 
     38 O2U        38.4450   -5.0190    4.0030 O.co2     1 F423328     0.0000 
     39 O2T        37.5550   -3.2860    5.0470 O.co2     1 F423328     0.0000 
     40 C3H        36.9040   -6.4780    6.0160 C.3       1 F423328     0.0000 
     41 C4H        36.6210   -7.3110    7.2380 C.3       1 F423328     0.0000 
     42 C5H        35.8190   -8.5310    6.9190 C.2       1 F423328     0.0000 
     43 O5H        35.5820   -8.8320    5.7520 O.2       1 F423328     0.0000 
     44 N1G        35.4220   -9.2590    7.9570 N.am      1 F423328     0.0000 
     45 C1G        34.0580   -9.7660    8.0690 C.3       1 F423328     0.0000 
     46 C2G        33.9760  -11.1720    7.4950 C.2       1 F423328     0.0000 
     47 O2V        34.0390  -11.2910    6.2480 O.co2     1 F423328     0.0000 
     48 O2W        33.5860  -12.0830    8.2630 O.co2     1 F423328     0.0000 
     49 C3G        33.0840   -8.8410    7.3280 C.3       1 F423328     0.0000 
     50 C4G        31.6060   -9.0830    7.6270 C.3       1 F423328     0.0000 
     51 C5G        30.9260  -10.0720    6.6770 C.2       1 F423328     0.0000 
     52 O6G        31.3430  -11.2560    6.6270 O.co2     1 F423328     0.0000 
     53 O7G        29.9630   -9.6600    5.9850 O.co2     1 F423328     0.0000 
     54 H          33.5586    5.5607   18.0661 H         1 F423328     0.0000 
     55 H          36.7307    8.1790   15.2683 H         1 F423328     0.0000 
     56 H          36.1635    9.0473   12.5532 H         1 F423328     0.0000 
     57 H          36.5946    8.4300   10.2133 H         1 F423328     0.0000 
     58 H          37.1047    4.3827   11.3402 H         1 F423328     0.0000 
     59 H          37.1127    2.8333   14.6964 H         1 F423328     0.0000 
     60 H          37.9873    3.4054   13.2655 H         1 F423328     0.0000 
     61 H          35.9151    3.1020   11.9084 H         1 F423328     0.0000 
     62 H          35.9776    0.6374   11.6922 H         1 F423328     0.0000 
     63 H          38.6107    2.1355   11.7644 H         1 F423328     0.0000 
     64 H          39.1023   -0.2078   11.6259 H         1 F423328     0.0000 
     65 H          39.3577    0.5418   10.0407 H         1 F423328     0.0000 
     66 H          37.7822   -3.4306   10.4071 H         1 F423328     0.0000 
     67 H          36.5410   -3.7669    7.0835 H         1 F423328     0.0000 
     68 H          38.7898   -5.6585    6.5574 H         1 F423328     0.0000 
     69 H          37.3732   -7.1087    5.2418 H         1 F423328     0.0000 
     70 H          35.9535   -6.1087    5.5946 H         1 F423328     0.0000 
     71 H          36.0803   -6.6971    7.9750 H         1 F423328     0.0000 
     72 H          37.5752   -7.6080    7.7003 H         1 F423328     0.0000 
     73 H          36.0612   -9.5055    8.7431 H         1 F423328     0.0000 
     74 H          33.7557   -9.8052    9.1073 H         1 F423328     0.0000 
     75 H          33.2519   -8.9500    6.2394 H         1 F423328     0.0000 
     76 H          33.3332   -7.7920    7.5782 H         1 F423328     0.0000 
     77 H          31.0691   -8.1201    7.5820 H         1 F423328     0.0000 
     78 H          31.5061   -9.4565    8.6605 H         1 F423328     0.0000 
     79 H          36.1115   -5.1614   10.7336 H         1 F423328     0.0000 
     80 H          35.4353   -3.7238   10.9838 H         1 F423328     0.0000 
     81 H          35.1403   -4.5249    9.6210 H         1 F423328     0.0000 
     82 H          36.5335    6.0323    8.7014 H         1 F423328     0.0000 
     83 H          35.0159    2.5424   14.4091 H         1 F423328     0.0000 
     84 H          36.3903   -0.0882   13.7237 H         1 F423328     0.0000 
     85 H          37.1748    1.5068    9.4247 H         1 F423328     0.0000 
@<TRIPOS>BOND
     1    2    1 am   
     2   17    1 2    
     3    3    2 2    
     4    4    2 am   
     5    5    4 am   
     6   54    4 1    
     7    6    5 2    
     8    7    5 1    
     9    8    7 2    
    10   17    7 1    
    11    9    8 1    
    12   55    8 1    
    13   10    9 ar   
    14   15    9 ar   
    15   11   10 ar   
    16   56   10 1    
    17   12   11 ar   
    18   57   11 1    
    19   13   12 1    
    20   14   12 ar   
    21   82   13 1    
    22   15   14 ar   
    23   58   14 1    
    24   16   15 1    
    25   17   16 1    
    26   18   16 1    
    27   19   18 1    
    28   59   18 1    
    29   60   18 1    
    30   20   19 1    
    31   21   19 1    
    32   61   19 1    
    33   83   20 1    
    34   22   21 1    
    35   23   21 1    
    36   62   21 1    
    37   84   22 1    
    38   24   23 1    
    39   25   23 1    
    40   63   23 1    
    41   85   24 1    
    42   26   25 1    
    43   64   25 1    
    44   65   25 1    
    45   27   26 1    
    46   28   27 ar   
    47   29   27 ar   
    48   30   27 1    
    49   31   30 1    
    50   32   31 1    
    51   33   31 1    
    52   66   31 1    
    53   79   32 1    
    54   80   32 1    
    55   81   32 1    
    56   34   33 2    
    57   35   33 am   
    58   36   35 1    
    59   67   35 1    
    60   37   36 1    
    61   40   36 1    
    62   68   36 1    
    63   38   37 ar   
    64   39   37 ar   
    65   41   40 1    
    66   69   40 1    
    67   70   40 1    
    68   42   41 1    
    69   71   41 1    
    70   72   41 1    
    71   43   42 2    
    72   44   42 am   
    73   45   44 1    
    74   73   44 1    
    75   46   45 1    
    76   49   45 1    
    77   74   45 1    
    78   47   46 ar   
    79   48   46 ar   
    80   50   49 1    
    81   75   49 1    
    82   76   49 1    
    83   51   50 1    
    84   77   50 1    
    85   78   50 1    
    86   52   51 ar   
    87   53   51 ar   
@<TRIPOS>SUBSTRUCTURE
     1 F423328     1 GROUP   
@<TRIPOS>SET

