#    Name: 3tl5_980_1_INTS_M
#    Modification time : Mon Mar 24 20:17:51 2014

@<TRIPOS>MOLECULE
3tl5_980_1_INTS_M
   78     0     9     0     0
SMALL
NO_CHARGES


@<TRIPOS>ATOM
      1 CA         17.5555   64.0285   22.8905 C.3       3 GLC5        0.0000 
      2 CA         18.1200   63.9210   21.2060 C.3       9 GLL5        0.0000 
      3 CA         16.9910   64.1360   24.5750 C.3       6 GLP5        0.0000 
      4 CA         20.3245   60.6770   19.4930 C.3       3 GLC5        0.0000 
      5 CA         21.9460   61.6680   20.5820 C.3       9 GLL5        0.0000 
      6 CA         18.7030   59.6860   18.4040 C.3       6 GLP5        0.0000 
      7 CA         22.0505   62.7285   22.1690 C.3       3 GLC5        0.0000 
      8 CA         22.1550   63.7890   23.7560 C.3       6 GLP5        0.0000 
      9 CA         16.1755   61.2775   20.2440 C.3       3 GLC5        0.0000 
     10 CA         17.5770   60.5850   21.6980 C.3       9 GLL5        0.0000 
     11 CA         14.7740   61.9700   18.7900 C.3       6 GLP5        0.0000 
     12 CA         18.1400   60.1355   20.0510 C.3       3 GLC5        0.0000 
     13 CA         18.1365   62.0855   23.2710 C.3       3 GLC5        0.0000 
     14 CA         18.6960   63.5860   24.8440 C.3       6 GLP5        0.0000 
     15 CA         15.6055   58.9205   24.0790 C.3       3 GLC5        0.0000 
     16 CA         16.5880   60.2940   22.7760 C.3       9 GLL5        0.0000 
     17 CA         14.6230   57.5470   25.3820 C.3       6 GLP5        0.0000 
     18 CA         16.7895   62.2150   23.6755 C.3       3 GLC5        0.0000 
     19 N          16.1025   58.3485   23.8450 N.am      2 SEC2        0.0000 
     20 N          16.9340   59.2050   23.6030 N.am      8 SEL2        0.0000 
     21 N          15.2710   57.4920   24.0870 N.am      5 SEP2        0.0000 
     22 CA         16.9130   58.0465   22.9445 C.3       3 GLC5        0.0000 
     23 CA         18.2130   59.3380   24.1220 C.3       9 GLL5        0.0000 
     24 CA         15.6130   56.7550   21.7670 C.3       6 GLP5        0.0000 
     25 CA         17.4565   58.3460   25.4030 C.3       3 GLC5        0.0000 
     26 CA         16.7000   57.3540   26.6840 C.3       6 GLP5        0.0000 
     27 CA         20.1860   57.9980   21.9855 C.3       3 GLC5        0.0000 
     28 CA         19.2090   59.6380   23.0530 C.3       9 GLL5        0.0000 
     29 CA         21.1630   56.3580   20.9180 C.3       6 GLP5        0.0000 
     30 CA         23.5125   60.9465   23.1245 C.3       3 GLC5        0.0000 
     31 CA         23.8280   60.1210   21.2890 C.3       9 GLL5        0.0000 
     32 CA         23.1970   61.7720   24.9600 C.3       6 GLP5        0.0000 
     33 CA         25.3480   60.7540   22.0850 C.3       3 GLC5        0.0000 
     34 CA         26.8680   61.3870   22.8810 C.3       6 GLP5        0.0000 
     35 CA         26.0760   60.3345   17.8785 C.3       3 GLC5        0.0000 
     36 CA         25.7110   59.7790   19.9600 C.3       9 GLL5        0.0000 
     37 CA         26.4410   60.8900   15.7970 C.3       6 GLP5        0.0000 
     38 CA         24.5910   58.5470   19.5375 C.3       3 GLC5        0.0000 
     39 CA         23.4710   57.3150   19.1150 C.3       6 GLP5        0.0000 
     40 CA         26.2895   60.5830   21.4205 C.3       3 GLC5        0.0000 
     41 CA         25.2390   61.0605   17.4820 C.3       3 GLC5        0.0000 
     42 CA         24.0370   61.2310   19.1670 C.3       9 GLL5        0.0000 
     43 O          27.9680   59.9690   19.0665 O.2       1 ALC1        0.0000 
     44 O          26.9810   59.1480   19.7550 O.2       7 ALL1        0.0000 
     45 O          28.9550   60.7900   18.3780 O.2       4 ALP1        0.0000 
     46 O          27.4770   58.4650   21.0490 O.2       1 ALC1        0.0000 
     47 O          27.9730   57.7820   22.3430 O.2       4 ALP1        0.0000 
     48 CA         17.3075   64.9965   16.1875 C.3       3 GLC5        0.0000 
     49 CA         16.2890   65.7740   17.1690 C.3       9 GLL5        0.0000 
     50 CA         18.3260   64.2190   15.2060 C.3       6 GLP5        0.0000 
     51 CA         15.6210   63.7290   17.3075 C.3       3 GLC5        0.0000 
     52 CA         14.9530   61.6840   17.4460 C.3       6 GLP5        0.0000 
     53 CA         17.7460   64.3230   17.5535 C.3       3 GLC5        0.0000 
     54 CA         16.7630   65.6090   18.5910 C.3       9 GLL5        0.0000 
     55 CA         18.7290   63.0370   16.5160 C.3       6 GLP5        0.0000 
     56 CA         15.7685   63.7895   18.6905 C.3       3 GLC5        0.0000 
     57 CA         12.0400   66.1260   14.3600 C.3       3 GLC5        0.0000 
     58 CA         12.5130   68.1450   15.1030 C.3       9 GLL5        0.0000 
     59 CA         11.5670   64.1070   13.6170 C.3       6 GLP5        0.0000 
     60 CA         21.2188   64.0062   21.9688 C.3       3 GLC5        0.0000 
     61 CA         20.0860   64.9020   19.9670 C.3       9 GLL5        0.0000 
     62 CA         19.1665   60.9423   19.8635 C.3       3 GLC5        0.0000 
     63 CA         19.4820   62.8590   21.1040 C.3       9 GLL5        0.0000 
     64 CA         19.1630   62.8922   23.0835 C.3       3 GLC5        0.0000 
     65 CA         19.7780   61.5380   21.5420 C.3       9 GLL5        0.0000 
     66 CA         20.8925   62.9937   22.5395 C.3       3 GLC5        0.0000 
     67 CA         19.3986   63.7312   18.3505 C.3       3 GLC5        0.0000 
     68 CA         20.4790   63.5450   20.3960 C.3       9 GLL5        0.0000 
     69 CA         16.3477   58.5973   22.0020 C.3       3 GLC5        0.0000 
     70 CA         18.7035   61.5370   24.2157 C.3       3 GLC5        0.0000 
     71 CA         18.7445   59.9515   25.5183 C.3       3 GLC5        0.0000 
     72 CA         18.7780   60.4150   27.4490 C.3       6 GLP5        0.0000 
     73 CA         20.2915   60.4125   24.5858 C.3       3 GLC5        0.0000 
     74 CA         21.8720   61.3370   25.5840 C.3       6 GLP5        0.0000 
     75 CA         25.1370   61.8757   20.8950 C.3       3 GLC5        0.0000 
     76 CA         23.2990   60.9960   20.3290 C.3       9 GLL5        0.0000 
     77 CA         26.6060   62.6380   22.0420 C.3       6 GLP5        0.0000 
     78 CA         23.6356   59.1049   19.5515 C.3       3 GLC5        0.0000 
@<TRIPOS>BOND
@<TRIPOS>SUBSTRUCTURE
     1 ALC1       43 GROUP        1 X    ALC  0     ROOT ALC X 1
     2 SEC2       19 GROUP        1 X    SEC  0     **** SEC X 2
     3 GLC5        1 GROUP        1 X    GLC  0     **** GLC X 6
     4 ALP1       45 GROUP        1 Y    ALP  0     ROOT ALP Y 8
     5 SEP2       21 GROUP        1 Y    SEP  0     **** SEP Y 9
     6 GLP5        3 GROUP        1 Y    GLP  0     **** GLP Y 13
     7 ALL1       44 GROUP        1 Z    ALL  0     ROOT ALL Z 15
     8 SEL2       20 GROUP        1 Z    SEL  0     **** SEL Z 16
     9 GLL5        2 GROUP        1 Z    GLL  0     **** GLL Z 20
@<TRIPOS>SET

