#    Name: 3tl5_980_1_ligand
#    Modification time : Mon Mar 24 20:17:51 2014

@<TRIPOS>MOLECULE
3tl5_980_1_ligand
   66    70     1     0     0
SMALL
NO_CHARGES


@<TRIPOS>ATOM
      1 C1         21.0200   65.7900   19.2150 C.3       1 9801        0.0000 
      2 C2         20.0860   64.9020   19.9670 C.2       1 9801        0.0000 
      3 C3         18.7620   65.2660   20.3570 C.2       1 9801        0.0000 
      4 S4         18.1200   63.9210   21.2060 S.3       1 9801        0.0000 
      5 C5         19.4820   62.8590   21.1040 C.ar      1 9801        0.0000 
      6 C6         20.4790   63.5450   20.3960 C.ar      1 9801        0.0000 
      7 N7         21.6950   62.9300   20.1670 N.ar      1 9801        0.0000 
      8 C8         21.9460   61.6680   20.5820 C.ar      1 9801        0.0000 
      9 N9         20.9920   60.9990   21.2730 N.ar      1 9801        0.0000 
     10 C10        19.7780   61.5380   21.5420 C.ar      1 9801        0.0000 
     11 N11        18.8250   60.7480   22.2850 N.3       1 9801        0.0000 
     12 C12        17.5770   60.5850   21.6980 C.3       1 9801        0.0000 
     13 C13        16.5880   60.2940   22.7760 C.3       1 9801        0.0000 
     14 O14        16.9340   59.2050   23.6030 O.3       1 9801        0.0000 
     15 C15        18.2130   59.3380   24.1220 C.3       1 9801        0.0000 
     16 C16        19.2090   59.6380   23.0530 C.3       1 9801        0.0000 
     17 C17        23.2990   60.9960   20.3290 C.ar      1 9801        0.0000 
     18 C18        23.8280   60.1210   21.2890 C.ar      1 9801        0.0000 
     19 N19        25.0220   59.5340   21.0820 N.ar      1 9801        0.0000 
     20 C20        25.7110   59.7790   19.9600 C.ar      1 9801        0.0000 
     21 N21        25.2240   60.6010   19.0210 N.ar      1 9801        0.0000 
     22 C22        24.0370   61.2310   19.1670 C.ar      1 9801        0.0000 
     23 N23        26.9810   59.1480   19.7550 N.pl3     1 9801        0.0000 
     24 C24        18.0260   66.5790   20.1130 C.3       1 9801        0.0000 
     25 N25        17.5140   66.6880   18.9470 N.4       1 9801        0.0000 
     26 C26        16.7030   67.7820   18.9210 C.3       1 9801        0.0000 
     27 C27        16.1440   68.0160   17.5430 C.3       1 9801        0.0000 
     28 N28        15.6730   66.9270   16.9190 N.am      1 9801        0.0000 
     29 C29        16.2890   65.7740   17.1690 C.3       1 9801        0.0000 
     30 C30        16.7630   65.6090   18.5910 C.3       1 9801        0.0000 
     31 C31        14.5730   66.9900   15.9820 C.2       1 9801        0.0000 
     32 O32        14.2080   65.9550   15.4450 O.2       1 9801        0.0000 
     33 C33        13.8750   68.3070   15.7170 C.3       1 9801        0.0000 
     34 C35        12.5130   68.1450   15.1030 C.3       1 9801        0.0000 
     35 O36        14.6480   69.1230   14.9160 O.3       1 9801        0.0000 
     36 H          17.5579   59.7516   20.9822 H         1 9801        0.0000 
     37 H          17.2458   61.4864   21.1641 H         1 9801        0.0000 
     38 H          15.5909   60.1290   22.2906 H         1 9801        0.0000 
     39 H          16.4534   61.2296   23.3790 H         1 9801        0.0000 
     40 H          18.5468   58.4160   24.6473 H         1 9801        0.0000 
     41 H          18.2724   60.1513   24.8786 H         1 9801        0.0000 
     42 H          20.1952   59.7988   23.5379 H         1 9801        0.0000 
     43 H          19.3244   58.7284   22.4262 H         1 9801        0.0000 
     44 H          23.2809   59.9427   22.1487 H         1 9801        0.0000 
     45 H          23.6702   61.8681   18.4558 H         1 9801        0.0000 
     46 H          27.2682   58.4981   20.4587 H         1 9801        0.0000 
     47 H          27.4739   59.4104   18.9254 H         1 9801        0.0000 
     48 H          18.7806   67.3878   20.3755 H         1 9801        0.0000 
     49 H          17.2789   66.6558   20.9664 H         1 9801        0.0000 
     50 H          18.3045   66.8386   18.1668 H         1 9801        0.0000 
     51 H          17.2287   68.7161   19.2227 H         1 9801        0.0000 
     52 H          15.8359   67.6928   19.6139 H         1 9801        0.0000 
     53 H          16.9623   68.5364   16.9550 H         1 9801        0.0000 
     54 H          15.3605   68.8284   17.6543 H         1 9801        0.0000 
     55 H          17.1975   65.6063   16.5153 H         1 9801        0.0000 
     56 H          15.6446   64.8704   16.9476 H         1 9801        0.0000 
     57 H          15.8642   65.4790   19.2218 H         1 9801        0.0000 
     58 H          17.3219   64.6563   18.6404 H         1 9801        0.0000 
     59 H          13.7215   68.7915   16.7088 H         1 9801        0.0000 
     60 H          21.8983   65.3441   19.0424 H         1 9801        0.0000 
     61 H          20.6460   66.0547   18.3261 H         1 9801        0.0000 
     62 H          21.2131   66.6343   19.7149 H         1 9801        0.0000 
     63 H          12.5556   67.6674   14.2255 H         1 9801        0.0000 
     64 H          11.8997   67.6199   15.6930 H         1 9801        0.0000 
     65 H          12.0739   69.0276   14.9353 H         1 9801        0.0000 
     66 H          15.5640   69.0849   15.3154 H         1 9801        0.0000 
@<TRIPOS>BOND
     1    2    1 1    
     2   60    1 1    
     3   61    1 1    
     4   62    1 1    
     5    3    2 2    
     6    6    2 1    
     7    4    3 1    
     8   24    3 1    
     9    5    4 1    
    10    6    5 ar   
    11   10    5 ar   
    12    7    6 ar   
    13    8    7 ar   
    14    9    8 ar   
    15   17    8 1    
    16   10    9 ar   
    17   11   10 1    
    18   12   11 1    
    19   16   11 1    
    20   13   12 1    
    21   36   12 1    
    22   37   12 1    
    23   14   13 1    
    24   38   13 1    
    25   39   13 1    
    26   15   14 1    
    27   16   15 1    
    28   40   15 1    
    29   41   15 1    
    30   42   16 1    
    31   43   16 1    
    32   18   17 ar   
    33   22   17 ar   
    34   19   18 ar   
    35   44   18 1    
    36   20   19 ar   
    37   21   20 ar   
    38   23   20 1    
    39   22   21 ar   
    40   45   22 1    
    41   46   23 1    
    42   47   23 1    
    43   25   24 1    
    44   48   24 1    
    45   49   24 1    
    46   26   25 1    
    47   30   25 1    
    48   50   25 1    
    49   27   26 1    
    50   51   26 1    
    51   52   26 1    
    52   28   27 1    
    53   53   27 1    
    54   54   27 1    
    55   29   28 1    
    56   31   28 am   
    57   30   29 1    
    58   55   29 1    
    59   56   29 1    
    60   57   30 1    
    61   58   30 1    
    62   32   31 2    
    63   33   31 1    
    64   34   33 1    
    65   35   33 1    
    66   59   33 1    
    67   63   34 1    
    68   64   34 1    
    69   65   34 1    
    70   66   35 1    
@<TRIPOS>SUBSTRUCTURE
     1 9801        1 GROUP   
@<TRIPOS>SET

