#    Name: 3os9_KN1_3_INTS_M
#    Modification time : Tue Mar 25 05:15:00 2014

@<TRIPOS>MOLECULE
3os9_KN1_3_INTS_M
   42     0     6     0     0
SMALL
NO_CHARGES


@<TRIPOS>ATOM
      1 CA        -20.5855  -14.1620  -22.1980 C.3       2 GLC5        0.0000 
      2 CA        -20.0290  -12.3020  -22.4590 C.3       6 GLL5        0.0000 
      3 CA        -21.1420  -16.0220  -21.9370 C.3       4 GLP5        0.0000 
      4 CA        -19.3225  -13.2495  -21.0020 C.3       2 GLC5        0.0000 
      5 CA        -18.6160  -14.1970  -19.5450 C.3       4 GLP5        0.0000 
      6 CA        -19.4095   -8.5340  -24.7405 C.3       2 GLC5        0.0000 
      7 CA        -19.2090   -9.8390  -25.7770 C.3       6 GLL5        0.0000 
      8 CA        -19.6100   -7.2290  -23.7040 C.3       4 GLP5        0.0000 
      9 CA        -23.8315  -11.1240  -25.6435 C.3       2 GLC5        0.0000 
     10 CA        -22.0520  -10.4910  -26.0690 C.3       6 GLL5        0.0000 
     11 CA        -25.6110  -11.7570  -25.2180 C.3       4 GLP5        0.0000 
     12 CA        -15.1805   -9.0805  -27.6780 C.3       2 GLC5        0.0000 
     13 CA        -17.2890   -9.1670  -27.0110 C.3       6 GLL5        0.0000 
     14 CA        -13.0720   -8.9940  -28.3450 C.3       4 GLP5        0.0000 
     15 CA        -16.6055   -7.8875  -25.1710 C.3       2 GLC5        0.0000 
     16 CA        -15.0440   -9.3870  -24.7720 C.3       6 GLL5        0.0000 
     17 CA        -18.1670   -6.3880  -25.5700 C.3       4 GLP5        0.0000 
     18 O         -11.0540   -9.3170  -23.6615 O.2       1 ALC1        0.0000 
     19 O         -12.1140  -10.2220  -22.9470 O.2       5 ALL1        0.0000 
     20 O          -9.9940   -8.4120  -24.3760 O.2       3 ALP1        0.0000 
     21 CA        -19.0435  -10.3897  -21.5157 C.3       2 GLC5        0.0000 
     22 CA        -17.7910   -9.0970  -20.4380 C.3       4 GLP5        0.0000 
     23 CA        -20.1223   -9.0565  -23.5463 C.3       2 GLC5        0.0000 
     24 CA        -20.5630  -11.0630  -22.7280 C.3       6 GLL5        0.0000 
     25 CA        -18.9650   -7.7795  -26.4773 C.3       2 GLC5        0.0000 
     26 CA        -20.0530   -9.4350  -26.8170 C.3       6 GLL5        0.0000 
     27 CA        -20.7650   -8.1303  -25.1975 C.3       2 GLC5        0.0000 
     28 CA        -22.2400   -8.5020  -26.5470 C.3       6 GLL5        0.0000 
     29 CA        -22.9967   -7.9759  -28.0885 C.3       2 GLC5        0.0000 
     30 CA        -21.6000   -9.5610  -26.8350 C.3       6 GLL5        0.0000 
     31 CA        -24.0470   -6.5460  -28.8080 C.3       4 GLP5        0.0000 
     32 CA        -17.2501   -7.5950  -28.6315 C.3       2 GLC5        0.0000 
     33 CA        -16.4600   -6.1900  -29.7580 C.3       4 GLP5        0.0000 
     34 CA        -17.9674   -7.8607  -26.1334 C.3       2 GLC5        0.0000 
     35 CA        -18.1100   -8.7590  -28.0460 C.3       6 GLL5        0.0000 
     36 CA        -13.7332   -9.1913  -26.4442 C.3       2 GLC5        0.0000 
     37 CA        -12.5768  -12.1032  -23.9652 C.3       2 GLC5        0.0000 
     38 CA        -13.3720  -10.2630  -23.3440 C.3       6 GLL5        0.0000 
     39 CA        -11.3250  -13.5110  -24.8540 C.3       4 GLP5        0.0000 
     40 CA        -15.3860  -11.4827  -21.0323 C.3       2 GLC5        0.0000 
     41 CA        -14.2850  -11.1280  -22.8090 C.3       6 GLL5        0.0000 
     42 CA        -15.8420  -11.8490  -19.0220 C.3       4 GLP5        0.0000 
@<TRIPOS>BOND
@<TRIPOS>SUBSTRUCTURE
     1 ALC1       18 GROUP        1 X    ALC  0     ROOT ALC X 1
     2 GLC5        1 GROUP        1 X    GLC  0     **** GLC X 6
     3 ALP1       20 GROUP        1 Y    ALP  0     ROOT ALP Y 8
     4 GLP5        3 GROUP        1 Y    GLP  0     **** GLP Y 13
     5 ALL1       19 GROUP        1 Z    ALL  0     ROOT ALL Z 15
     6 GLL5        2 GROUP        1 Z    GLL  0     **** GLL Z 20
@<TRIPOS>SET

