#    Name: 3os9_KN1_3_ligand
#    Modification time : Tue Mar 25 05:15:00 2014

@<TRIPOS>MOLECULE
3os9_KN1_3_ligand
   35    37     1     0     0
SMALL
NO_CHARGES


@<TRIPOS>ATOM
      1 CAA       -20.0290  -12.3020  -22.4590 C.2       1 KN11        0.0000 
      2 CAG       -20.5630  -11.0630  -22.7280 C.2       1 KN11        0.0000 
      3 CAN       -20.7060  -10.7050  -24.0490 C.3       1 KN11        0.0000 
      4 NAW       -19.3960  -10.3710  -24.5880 N.pl3     1 KN11        0.0000 
      5 NAO       -18.3540  -10.5780  -23.9700 N.2       1 KN11        0.0000 
      6 CAV       -19.2090   -9.8390  -25.7770 C.ar      1 KN11        0.0000 
      7 CAT       -20.0530   -9.4350  -26.8170 C.ar      1 KN11        0.0000 
      8 CAX       -21.6000   -9.5610  -26.8350 C.3       1 KN11        0.0000 
      9 FAE       -22.2400   -8.5020  -26.5470 F         1 KN11        0.0000 
     10 FAF       -21.9730   -9.7800  -28.0470 F         1 KN11        0.0000 
     11 FAD       -22.0520  -10.4910  -26.0690 F         1 KN11        0.0000 
     12 CAJ       -19.4730   -8.9070  -27.9520 C.ar      1 KN11        0.0000 
     13 CAH       -18.1100   -8.7590  -28.0460 C.ar      1 KN11        0.0000 
     14 CAL       -17.2890   -9.1670  -27.0110 C.ar      1 KN11        0.0000 
     15 CAU       -17.8360   -9.7040  -25.8650 C.ar      1 KN11        0.0000 
     16 CAS       -17.3110  -10.2150  -24.6850 C.2       1 KN11        0.0000 
     17 CAR       -15.9780  -10.2560  -24.2680 C.ar      1 KN11        0.0000 
     18 CAK       -15.0440   -9.3870  -24.7720 C.ar      1 KN11        0.0000 
     19 CAI       -13.7450   -9.3900  -24.3150 C.ar      1 KN11        0.0000 
     20 CAP       -13.3720  -10.2630  -23.3440 C.ar      1 KN11        0.0000 
     21 OAB       -12.1140  -10.2220  -22.9470 O.3       1 KN11        0.0000 
     22 CAM       -14.2850  -11.1280  -22.8090 C.ar      1 KN11        0.0000 
     23 CAQ       -15.5750  -11.1050  -23.2760 C.ar      1 KN11        0.0000 
     24 OAC       -16.4820  -11.9210  -22.7630 O.3       1 KN11        0.0000 
     25 H         -20.8416  -10.4352  -21.9790 H         1 KN11        0.0000 
     26 H         -21.3743   -9.8322  -24.1717 H         1 KN11        0.0000 
     27 H         -21.1423  -11.5213  -24.6546 H         1 KN11        0.0000 
     28 H         -20.0778   -8.6176  -28.7464 H         1 KN11        0.0000 
     29 H         -17.6919   -8.3400  -28.8951 H         1 KN11        0.0000 
     30 H         -16.2651   -9.0687  -27.0981 H         1 KN11        0.0000 
     31 H         -15.3205   -8.7104  -25.5153 H         1 KN11        0.0000 
     32 H         -13.0609   -8.7250  -24.7162 H         1 KN11        0.0000 
     33 H         -14.0119  -11.7866  -22.0681 H         1 KN11        0.0000 
     34 H         -11.6701   -9.5693  -23.5610 H         1 KN11        0.0000 
     35 H         -16.2234  -11.0676  -22.3102 H         1 KN11        0.0000 
@<TRIPOS>BOND
     1    2    1 2    
     2    3    2 1    
     3   25    2 1    
     4    4    3 1    
     5   26    3 1    
     6   27    3 1    
     7    5    4 1    
     8    6    4 1    
     9   16    5 2    
    10    7    6 ar   
    11   15    6 ar   
    12    8    7 1    
    13   12    7 ar   
    14    9    8 1    
    15   10    8 1    
    16   11    8 1    
    17   13   12 ar   
    18   28   12 1    
    19   14   13 ar   
    20   29   13 1    
    21   15   14 ar   
    22   30   14 1    
    23   16   15 1    
    24   17   16 1    
    25   18   17 ar   
    26   23   17 ar   
    27   19   18 ar   
    28   31   18 1    
    29   20   19 ar   
    30   32   19 1    
    31   21   20 1    
    32   22   20 ar   
    33   34   21 1    
    34   23   22 ar   
    35   33   22 1    
    36   24   23 1    
    37   35   24 1    
@<TRIPOS>SUBSTRUCTURE
     1 KN11        1 GROUP   
@<TRIPOS>SET

