#    Name: 2d4v_NAD_1_INTS_M
#    Modification time : Tue Mar 25 09:40:15 2014

@<TRIPOS>MOLECULE
2d4v_NAD_1_INTS_M
   98     0     9     0     0
SMALL
NO_CHARGES


@<TRIPOS>ATOM
      1 N          35.8795   28.3020   41.0225 N.am      2 SEC2        0.0000 
      2 N          34.7960   28.8110   40.4250 N.am      8 SEL2        0.0000 
      3 N          36.9630   27.7930   41.6200 N.am      5 SEP2        0.0000 
      4 N          34.6515   31.6395   40.1855 N.am      2 SEC2        0.0000 
      5 N          34.4320   30.9230   39.0220 N.am      8 SEL2        0.0000 
      6 N          34.8710   32.3560   41.3490 N.am      5 SEP2        0.0000 
      7 CA         34.7970   31.1340   36.6915 C.3       3 GLC5        0.0000 
      8 CA         34.7020   29.0070   36.6230 C.3       9 GLL5        0.0000 
      9 CA         34.8920   33.2610   36.7600 C.3       6 GLP5        0.0000 
     10 CA         32.7555   29.4335   35.8335 C.3       3 GLC5        0.0000 
     11 CA         30.8090   29.8600   35.0440 C.3       6 GLP5        0.0000 
     12 N          35.7360   30.8910   34.4975 N.am      2 SEC2        0.0000 
     13 N          36.6130   29.9630   35.6310 N.am      8 SEL2        0.0000 
     14 N          34.8590   31.8190   33.3640 N.am      5 SEP2        0.0000 
     15 O          37.5795   25.7480   34.9800 O.2       1 ALC1        0.0000 
     16 O          37.0360   26.9400   34.7180 O.2       7 ALL1        0.0000 
     17 O          38.1230   24.5560   35.2420 O.2       4 ALP1        0.0000 
     18 CA         38.3710   28.0895   38.3345 C.3       3 GLC5        0.0000 
     19 CA         37.8580   28.2330   36.5780 C.3       9 GLL5        0.0000 
     20 CA         38.8840   27.9460   40.0910 C.3       6 GLP5        0.0000 
     21 O          38.8415   26.2305   36.8325 O.2       1 ALC1        0.0000 
     22 O          39.0620   27.5020   36.3760 O.2       7 ALL1        0.0000 
     23 O          38.6210   24.9590   37.2890 O.2       4 ALP1        0.0000 
     24 O          38.5925   26.0290   35.8090 O.2       1 ALC1        0.0000 
     25 CA         38.9250   33.0285   39.4280 C.3       3 GLC5        0.0000 
     26 CA         39.9510   31.7710   38.0770 C.3       9 GLL5        0.0000 
     27 CA         37.8990   34.2860   40.7790 C.3       6 GLP5        0.0000 
     28 CA         40.9575   34.1445   37.5070 C.3       3 GLC5        0.0000 
     29 CA         41.1960   32.2800   38.4160 C.3       9 GLL5        0.0000 
     30 CA         40.7190   36.0090   36.5980 C.3       6 GLP5        0.0000 
     31 CA         40.0515   33.7370   39.6020 C.3       3 GLC5        0.0000 
     32 CA         38.9070   35.1940   40.7880 C.3       6 GLP5        0.0000 
     33 CA         42.6405   31.2865   39.5795 C.3       3 GLC5        0.0000 
     34 CA         44.0850   30.2930   40.7430 C.3       6 GLP5        0.0000 
     35 CA         42.8005   33.3980   37.8020 C.3       3 GLC5        0.0000 
     36 CA         44.4050   34.5160   37.1880 C.3       6 GLP5        0.0000 
     37 O          40.5155   34.0625   40.6165 O.2       1 ALC1        0.0000 
     38 O          41.3250   33.2130   39.3600 O.2       7 ALL1        0.0000 
     39 O          39.7060   34.9120   41.8730 O.2       4 ALP1        0.0000 
     40 O          42.4935   34.0225   39.6540 O.2       1 ALC1        0.0000 
     41 O          43.6620   34.8320   39.9480 O.2       4 ALP1        0.0000 
     42 N          43.5490   32.2115   38.1045 N.am      2 SEC2        0.0000 
     43 N          42.2790   31.8930   37.6780 N.am      8 SEL2        0.0000 
     44 N          44.8190   32.5300   38.5310 N.am      5 SEP2        0.0000 
     45 CA         42.3890   29.4250   37.5425 C.3       3 GLC5        0.0000 
     46 CA         42.1320   31.0220   36.6190 C.3       9 GLL5        0.0000 
     47 CA         42.6460   27.8280   38.4660 C.3       6 GLP5        0.0000 
     48 CA         43.5530   30.6685   38.0570 C.3       3 GLC5        0.0000 
     49 CA         44.9740   30.3150   39.4950 C.3       6 GLP5        0.0000 
     50 CA         43.2685   32.7690   36.9035 C.3       3 GLC5        0.0000 
     51 CA         42.4880   31.3850   34.9125 C.3       3 GLC5        0.0000 
     52 CA         42.8440   31.7480   33.2060 C.3       6 GLP5        0.0000 
     53 CA         41.2345   29.3505   37.7470 C.3       3 GLC5        0.0000 
     54 CA         39.8230   30.8730   37.0280 C.3       9 GLL5        0.0000 
     55 N          30.2150   29.2410   38.5765 N.am      2 SEC2        0.0000 
     56 N          30.7190   27.9880   38.2700 N.am      8 SEL2        0.0000 
     57 N          29.7110   30.4940   38.8830 N.am      5 SEP2        0.0000 
     58 CA         34.0365   26.0820   41.2370 C.3       3 GLC5        0.0000 
     59 CA         32.4060   27.0660   41.5310 C.3       9 GLL5        0.0000 
     60 CA         35.6670   25.0980   40.9430 C.3       6 GLP5        0.0000 
     61 CA         33.9610   27.4930   43.9240 C.3       3 GLC5        0.0000 
     62 CA         32.0100   27.4960   42.9350 C.3       9 GLL5        0.0000 
     63 CA         35.9120   27.4900   44.9130 C.3       6 GLP5        0.0000 
     64 N          33.9480   29.0960   43.2250 N.am      2 SEC2        0.0000 
     65 N          32.4050   28.8490   43.1180 N.am      8 SEL2        0.0000 
     66 N          35.4910   29.3430   43.3320 N.am      5 SEP2        0.0000 
     67 CA         29.1925   27.1890   41.4915 C.3       3 GLC5        0.0000 
     68 CA         30.5010   27.4370   43.1750 C.3       9 GLL5        0.0000 
     69 CA         27.8840   26.9410   39.8080 C.3       6 GLP5        0.0000 
     70 N          29.8505   27.1750   45.7770 N.am      2 SEC2        0.0000 
     71 N          30.2850   26.7820   44.4090 N.am      8 SEL2        0.0000 
     72 N          29.4160   27.5680   47.1450 N.am      5 SEP2        0.0000 
     73 O          28.9535   26.4600   44.8690 O.2       1 ALC1        0.0000 
     74 O          30.2850   26.7820   44.4090 O.2       7 ALL1        0.0000 
     75 O          27.6220   26.1380   45.3290 O.2       4 ALP1        0.0000 
     76 N          29.2025   28.3490   45.6285 N.am      2 SEC2        0.0000 
     77 N          28.9890   29.1300   44.1120 N.am      8 SEL2        0.0000 
     78 N          27.7560   29.2650   43.3035 N.am      2 SEC2        0.0000 
     79 N          26.5230   29.4000   42.4950 N.am      5 SEP2        0.0000 
     80 CA         32.9750   30.4615   43.0735 C.3       3 GLC5        0.0000 
     81 CA         31.3590   29.5530   43.7700 C.3       9 GLL5        0.0000 
     82 CA         34.5910   31.3700   42.3770 C.3       6 GLP5        0.0000 
     83 N          33.5235   32.5265   47.3035 N.am      2 SEC2        0.0000 
     84 N          32.9720   33.4540   46.5380 N.am      8 SEL2        0.0000 
     85 N          34.0750   31.5990   48.0690 N.am      5 SEP2        0.0000 
     86 O          32.4075   36.2675   46.5100 O.2       1 ALC1        0.0000 
     87 O          32.2370   35.3760   45.3740 O.2       7 ALL1        0.0000 
     88 O          32.5780   37.1590   47.6460 O.2       4 ALP1        0.0000 
     89 CA         40.5353   31.3388   40.0162 C.3       3 GLC5        0.0000 
     90 CA         40.4970   30.6520   41.7860 C.3       6 GLP5        0.0000 
     91 CA         39.3855   29.6340   38.8218 C.3       3 GLC5        0.0000 
     92 CA         33.2572   31.9387   43.3783 C.3       3 GLC5        0.0000 
     93 CA         31.8300   31.8280   44.4890 C.3       9 GLL5        0.0000 
     94 CA         33.5375   33.9010   41.4565 C.3       3 GLC5        0.0000 
     95 CA         31.8500   33.7120   42.9880 C.3       9 GLL5        0.0000 
     96 CA         35.3870   34.5200   40.4520 C.3       6 GLP5        0.0000 
     97 CA         33.0592   31.8770   42.3488 C.3       3 GLC5        0.0000 
     98 CA         31.3670   31.4860   42.1800 C.3       9 GLL5        0.0000 
@<TRIPOS>BOND
@<TRIPOS>SUBSTRUCTURE
     1 ALC1       15 GROUP        1 X    ALC  0     ROOT ALC X 1
     2 SEC2        1 GROUP        1 X    SEC  0     **** SEC X 2
     3 GLC5        7 GROUP        1 X    GLC  0     **** GLC X 6
     4 ALP1       17 GROUP        1 Y    ALP  0     ROOT ALP Y 8
     5 SEP2        3 GROUP        1 Y    SEP  0     **** SEP Y 9
     6 GLP5        9 GROUP        1 Y    GLP  0     **** GLP Y 13
     7 ALL1       16 GROUP        1 Z    ALL  0     ROOT ALL Z 15
     8 SEL2        2 GROUP        1 Z    SEL  0     **** SEL Z 16
     9 GLL5        8 GROUP        1 Z    GLL  0     **** GLL Z 20
@<TRIPOS>SET

