#    Name: 2d4v_NAD_1_ligand
#    Modification time : Tue Mar 25 09:40:15 2014

@<TRIPOS>MOLECULE
2d4v_NAD_1_ligand
   70    74     1     0     0
SMALL
NO_CHARGES


@<TRIPOS>ATOM
      1 PA         34.3380   29.4000   39.1510 P.3       1 NAD2001     0.0000 
      2 O1A        34.7960   28.8110   40.4250 O.co2     1 NAD2001     0.0000 
      3 O2A        34.4320   30.9230   39.0220 O.co2     1 NAD2001     0.0000 
      4 O5B        35.1780   28.7320   37.9370 O.3       1 NAD2001     0.0000 
      5 C5B        34.7020   29.0070   36.6230 C.3       1 NAD2001     0.0000 
      6 C4B        35.7980   28.8030   35.5810 C.3       1 NAD2001     0.0000 
      7 O4B        36.6130   29.9630   35.6310 O.3       1 NAD2001     0.0000 
      8 C3B        36.6480   27.5880   35.9250 C.3       1 NAD2001     0.0000 
      9 O3B        37.0360   26.9400   34.7180 O.3       1 NAD2001     0.0000 
     10 C2B        37.8580   28.2330   36.5780 C.3       1 NAD2001     0.0000 
     11 O2B        39.0620   27.5020   36.3760 O.3       1 NAD2001     0.0000 
     12 C1B        37.9430   29.6100   35.9430 C.3       1 NAD2001     0.0000 
     13 N9A        38.5060   30.5430   36.9310 N.pl3     1 NAD2001     0.0000 
     14 C8A        37.8280   31.2110   37.9250 C.2       1 NAD2001     0.0000 
     15 N7A        38.7280   31.9520   38.6190 N.2       1 NAD2001     0.0000 
     16 C5A        39.9510   31.7710   38.0770 C.ar      1 NAD2001     0.0000 
     17 C6A        41.1960   32.2800   38.4160 C.ar      1 NAD2001     0.0000 
     18 N6A        41.3250   33.2130   39.3600 N.pl3     1 NAD2001     0.0000 
     19 N1A        42.2790   31.8930   37.6780 N.ar      1 NAD2001     0.0000 
     20 C2A        42.1320   31.0220   36.6190 C.ar      1 NAD2001     0.0000 
     21 N3A        40.8940   30.4930   36.2860 N.ar      1 NAD2001     0.0000 
     22 C4A        39.8230   30.8730   37.0280 C.ar      1 NAD2001     0.0000 
     23 O3         32.8090   29.0670   38.8120 O.3       1 NAD2001     0.0000 
     24 PN         31.9620   27.7310   39.0450 P.3       1 NAD2001     0.0000 
     25 O1N        30.7190   27.9880   38.2700 O.co2     1 NAD2001     0.0000 
     26 O2N        32.7900   26.5490   38.7570 O.co2     1 NAD2001     0.0000 
     27 O5D        31.5670   27.7280   40.5930 O.3       1 NAD2001     0.0000 
     28 C5D        32.4060   27.0660   41.5310 C.3       1 NAD2001     0.0000 
     29 C4D        32.0100   27.4960   42.9350 C.3       1 NAD2001     0.0000 
     30 O4D        32.4050   28.8490   43.1180 O.3       1 NAD2001     0.0000 
     31 C3D        30.5010   27.4370   43.1750 C.3       1 NAD2001     0.0000 
     32 O3D        30.2850   26.7820   44.4090 O.3       1 NAD2001     0.0000 
     33 C2D        30.0840   28.8970   43.2510 C.3       1 NAD2001     0.0000 
     34 O2D        28.9890   29.1300   44.1120 O.3       1 NAD2001     0.0000 
     35 C1D        31.3590   29.5530   43.7700 C.3       1 NAD2001     0.0000 
     36 N1N        31.5040   30.9900   43.4600 N.pl3     1 NAD2001     0.0000 
     37 C2N        31.8300   31.8280   44.4890 C.ar      1 NAD2001     0.0000 
     38 C3N        32.0170   33.1870   44.2700 C.ar      1 NAD2001     0.0000 
     39 C7N        32.4250   34.0560   45.4220 C.2       1 NAD2001     0.0000 
     40 O7N        32.9720   33.4540   46.5380 O.2       1 NAD2001     0.0000 
     41 N7N        32.2370   35.3760   45.3740 N.am      1 NAD2001     0.0000 
     42 C4N        31.8500   33.7120   42.9880 C.ar      1 NAD2001     0.0000 
     43 C5N        31.5260   32.8520   41.9340 C.ar      1 NAD2001     0.0000 
     44 C6N        31.3670   31.4860   42.1800 C.ar      1 NAD2001     0.0000 
     45 H          34.3427   30.0462   36.5295 H         1 NAD2001     0.0000 
     46 H          33.8572   28.3514   36.3506 H         1 NAD2001     0.0000 
     47 H          35.3502   28.6715   34.6303 H         1 NAD2001     0.0000 
     48 H          36.1494   26.9990   36.6095 H         1 NAD2001     0.0000 
     49 H          37.6282   28.3783   37.6228 H         1 NAD2001     0.0000 
     50 H          38.5567   29.5433   35.0847 H         1 NAD2001     0.0000 
     51 H          36.8878   31.1551   38.0884 H         1 NAD2001     0.0000 
     52 H          40.6109   33.2327   40.0598 H         1 NAD2001     0.0000 
     53 H          42.1242   33.8091   39.2832 H         1 NAD2001     0.0000 
     54 H          42.9649   30.7541   36.0562 H         1 NAD2001     0.0000 
     55 H          33.4603   27.3199   41.3862 H         1 NAD2001     0.0000 
     56 H          32.3061   25.9781   41.4716 H         1 NAD2001     0.0000 
     57 H          32.4948   26.8583   43.6499 H         1 NAD2001     0.0000 
     58 H          30.0488   26.9817   42.3513 H         1 NAD2001     0.0000 
     59 H          29.9383   29.2452   42.2488 H         1 NAD2001     0.0000 
     60 H          31.4159   29.3827   44.8316 H         1 NAD2001     0.0000 
     61 H          31.9417   31.4535   45.4514 H         1 NAD2001     0.0000 
     62 H          31.8631   35.7364   44.5194 H         1 NAD2001     0.0000 
     63 H          32.4869   35.8863   46.1969 H         1 NAD2001     0.0000 
     64 H          31.9628   34.7127   42.8199 H         1 NAD2001     0.0000 
     65 H          31.4061   33.2220   40.9872 H         1 NAD2001     0.0000 
     66 H          31.1466   30.8529   41.3971 H         1 NAD2001     0.0000 
     67 H          37.4178   26.0621   35.0069 H         1 NAD2001     0.0000 
     68 H          38.8596   26.5766   36.6963 H         1 NAD2001     0.0000 
     69 H          29.2945   26.6564   44.4653 H         1 NAD2001     0.0000 
     70 H          28.6773   28.2202   44.3861 H         1 NAD2001     0.0000 
@<TRIPOS>BOND
     1    2    1 ar   
     2    3    1 ar   
     3    4    1 1    
     4   23    1 1    
     5    5    4 1    
     6    6    5 1    
     7   45    5 1    
     8   46    5 1    
     9    7    6 1    
    10    8    6 1    
    11   47    6 1    
    12   12    7 1    
    13    9    8 1    
    14   10    8 1    
    15   48    8 1    
    16   67    9 1    
    17   11   10 1    
    18   12   10 1    
    19   49   10 1    
    20   68   11 1    
    21   13   12 1    
    22   50   12 1    
    23   14   13 1    
    24   22   13 1    
    25   15   14 2    
    26   51   14 1    
    27   16   15 1    
    28   17   16 ar   
    29   22   16 ar   
    30   18   17 1    
    31   19   17 ar   
    32   52   18 1    
    33   53   18 1    
    34   20   19 ar   
    35   21   20 ar   
    36   54   20 1    
    37   22   21 ar   
    38   24   23 1    
    39   25   24 ar   
    40   26   24 ar   
    41   27   24 1    
    42   28   27 1    
    43   29   28 1    
    44   55   28 1    
    45   56   28 1    
    46   30   29 1    
    47   31   29 1    
    48   57   29 1    
    49   35   30 1    
    50   32   31 1    
    51   33   31 1    
    52   58   31 1    
    53   69   32 1    
    54   34   33 1    
    55   35   33 1    
    56   59   33 1    
    57   70   34 1    
    58   36   35 1    
    59   60   35 1    
    60   37   36 ar   
    61   44   36 ar   
    62   38   37 ar   
    63   61   37 1    
    64   39   38 1    
    65   42   38 ar   
    66   40   39 2    
    67   41   39 am   
    68   62   41 1    
    69   63   41 1    
    70   43   42 ar   
    71   64   42 1    
    72   44   43 ar   
    73   65   43 1    
    74   66   44 1    
@<TRIPOS>SUBSTRUCTURE
     1 NAD2001     1 GROUP   
@<TRIPOS>SET

