#    Name: 4e5f_0N7_3_ligand
#    Modification time : Mon Apr  7 23:17:59 2014

@<TRIPOS>MOLECULE
4e5f_0N7_3_ligand
   19    20     1     0     0
SMALL
NO_CHARGES


@<TRIPOS>ATOM
      1 O13        -5.6530  -18.0470   17.1460 O.2       1 0N7305      0.0000 
      2 C10        -5.6510  -17.2680   18.1280 C.2       1 0N7305      0.0000 
      3 N9         -6.8620  -16.8780   18.7300 N.am      1 0N7305      0.0000 
      4 O12        -7.9240  -17.3200   18.2740 O.3       1 0N7305      0.0000 
      5 C8         -6.8840  -16.0010   19.8460 C.2       1 0N7305      0.0000 
      6 O11        -7.9890  -15.6800   20.3580 O.2       1 0N7305      0.0000 
      7 C7         -5.6160  -15.4300   20.4530 C.3       1 0N7305      0.0000 
      8 C2         -4.3860  -15.8640   19.7880 C.ar      1 0N7305      0.0000 
      9 C3         -4.3750  -16.7360   18.6830 C.ar      1 0N7305      0.0000 
     10 C4         -3.1620  -17.1080   18.0950 C.ar      1 0N7305      0.0000 
     11 C5         -1.9530  -16.6220   18.6000 C.ar      1 0N7305      0.0000 
     12 C6         -1.9630  -15.7550   19.6970 C.ar      1 0N7305      0.0000 
     13 C1         -3.1750  -15.3820   20.2880 C.ar      1 0N7305      0.0000 
     14 H          -5.5909  -15.7110   21.5280 H         1 0N7305      0.0000 
     15 H          -5.6925  -14.3214   20.4331 H         1 0N7305      0.0000 
     16 H          -3.1600  -17.7432   17.2859 H         1 0N7305      0.0000 
     17 H          -1.0670  -16.8982   18.1706 H         1 0N7305      0.0000 
     18 H          -1.0783  -15.3908   20.0702 H         1 0N7305      0.0000 
     19 H          -3.1723  -14.7467   21.0984 H         1 0N7305      0.0000 
@<TRIPOS>BOND
     1    2    1 2    
     2    3    2 am   
     3    9    2 1    
     4    4    3 1    
     5    5    3 am   
     6    6    5 2    
     7    7    5 1    
     8    8    7 1    
     9   14    7 1    
    10   15    7 1    
    11    9    8 ar   
    12   13    8 ar   
    13   10    9 ar   
    14   11   10 ar   
    15   16   10 1    
    16   12   11 ar   
    17   17   11 1    
    18   13   12 ar   
    19   18   12 1    
    20   19   13 1    
@<TRIPOS>SUBSTRUCTURE
     1 0N7305      1 GROUP   
@<TRIPOS>SET

