#    Name: 3cin_NAD_1_INTS_M
#    Modification time : Mon Mar 24 21:34:12 2014

@<TRIPOS>MOLECULE
3cin_NAD_1_INTS_M
   86     0     9     0     0
SMALL
NO_CHARGES


@<TRIPOS>ATOM
      1 N          13.9605    8.6360   40.2765 N.am      2 SEC2        0.0000 
      2 N          14.8930    7.8850   39.3680 N.am      8 SEL2        0.0000 
      3 N          13.0280    9.3870   41.1850 N.am      5 SEP2        0.0000 
      4 CA         16.8350   10.6690   35.2435 C.3       3 GLC5        0.0000 
      5 CA         15.0520   10.3430   36.4860 C.3       9 GLL5        0.0000 
      6 CA         18.6180   10.9950   34.0010 C.3       6 GLP5        0.0000 
      7 CA         13.0220   12.5920   35.5550 C.3       3 GLC5        0.0000 
      8 CA         13.7360   10.7290   35.8340 C.3       9 GLL5        0.0000 
      9 CA         12.3080   14.4550   35.2760 C.3       6 GLP5        0.0000 
     10 N          10.6190    8.8375   36.2370 N.am      2 SEC2        0.0000 
     11 N          11.5490    9.6950   35.6160 N.am      8 SEL2        0.0000 
     12 N           9.6890    7.9800   36.8580 N.am      5 SEP2        0.0000 
     13 O          10.7330   10.5910   35.0090 O.2       1 ALC1        0.0000 
     14 O          11.5490    9.6950   35.6160 O.2       7 ALL1        0.0000 
     15 O           9.9170   11.4870   34.4020 O.2       4 ALP1        0.0000 
     16 O          11.0980    9.7525   32.7420 O.2       1 ALC1        0.0000 
     17 O          12.1150    9.0010   33.0620 O.2       7 ALL1        0.0000 
     18 O          10.0810   10.5040   32.4220 O.2       4 ALP1        0.0000 
     19 CA         12.7485   12.8105   34.4475 C.3       3 GLC5        0.0000 
     20 CA         13.1890   11.1660   33.6190 C.3       9 GLL5        0.0000 
     21 CA         12.8670   13.4160   28.7395 C.3       3 GLC5        0.0000 
     22 CA         14.2720   13.9550   29.7930 C.3       9 GLL5        0.0000 
     23 CA         11.4620   12.8770   27.6860 C.3       6 GLP5        0.0000 
     24 CA         15.7690   15.0350   28.8135 C.3       3 GLC5        0.0000 
     25 CA         17.2660   16.1150   27.8340 C.3       6 GLP5        0.0000 
     26 O          14.5520   14.7935   27.6505 O.2       1 ALC1        0.0000 
     27 O          15.1500   14.1880   28.7670 O.2       7 ALL1        0.0000 
     28 O          13.9540   15.3990   26.5340 O.2       4 ALP1        0.0000 
     29 O          16.4665   13.4075   28.6370 O.2       1 ALC1        0.0000 
     30 O          17.7830   12.6270   28.5070 O.2       4 ALP1        0.0000 
     31 N          12.8660   15.9560   29.4900 N.am      2 SEC2        0.0000 
     32 N          13.2540   14.8540   30.0420 N.am      8 SEL2        0.0000 
     33 N          12.4780   17.0580   28.9380 N.am      5 SEP2        0.0000 
     34 CA         12.3505   14.5595   33.1920 C.3       3 GLC5        0.0000 
     35 CA         12.3930   14.6640   31.1080 C.3       9 GLL5        0.0000 
     36 CA         10.7310   14.0160   31.4150 C.3       3 GLC5        0.0000 
     37 CA          9.0690   13.3680   31.7220 C.3       6 GLP5        0.0000 
     38 CA         11.9275   13.7705   29.3970 C.3       3 GLC5        0.0000 
     39 CA         13.8190   15.2395   31.9870 C.3       3 GLC5        0.0000 
     40 CA         15.2450   15.8150   32.8660 C.3       6 GLP5        0.0000 
     41 CA         12.9100   13.5970   33.5075 C.3       3 GLC5        0.0000 
     42 CA         13.5120   12.7390   31.7390 C.3       9 GLL5        0.0000 
     43 CA         11.2905   13.0535   31.7305 C.3       3 GLC5        0.0000 
     44 N          15.1405   11.0015   41.7165 N.am      2 SEC2        0.0000 
     45 N          15.8550   10.7200   40.5490 N.am      8 SEL2        0.0000 
     46 N          14.4260   11.2830   42.8840 N.am      5 SEP2        0.0000 
     47 CA         17.5860   12.3210   41.1780 C.3       3 GLC5        0.0000 
     48 CA         17.9520   12.1660   39.1090 C.3       9 GLL5        0.0000 
     49 CA         17.2200   12.4760   43.2470 C.3       6 GLP5        0.0000 
     50 CA         19.4545   11.5290   36.0095 C.3       3 GLC5        0.0000 
     51 CA         20.2910   12.0630   38.0180 C.3       9 GLL5        0.0000 
     52 O          19.8345   13.1540   36.2280 O.2       1 ALC1        0.0000 
     53 O          20.9420   12.8430   36.9820 O.2       7 ALL1        0.0000 
     54 O          18.7270   13.4650   35.4740 O.2       4 ALP1        0.0000 
     55 O          22.8235   11.1335   37.4280 O.2       1 ALC1        0.0000 
     56 O          22.6200   11.6750   38.6640 O.2       7 ALL1        0.0000 
     57 O          23.0270   10.5920   36.1920 O.2       4 ALP1        0.0000 
     58 CA         20.7770   14.5890   38.5055 C.3       3 GLC5        0.0000 
     59 CA         21.1730   13.1990   39.8450 C.3       9 GLL5        0.0000 
     60 CA         20.3810   15.9790   37.1660 C.3       6 GLP5        0.0000 
     61 O          22.4600   12.6015   46.3355 O.2       1 ALC1        0.0000 
     62 O          21.2690   11.8770   45.7640 O.2       7 ALL1        0.0000 
     63 O          23.6510   13.3260   46.9070 O.2       4 ALP1        0.0000 
     64 O          20.4175   11.6245   46.7900 O.2       1 ALC1        0.0000 
     65 O          19.5660   11.3720   47.8160 O.2       4 ALP1        0.0000 
     66 CA         23.5550   16.0960   43.3845 C.3       3 GLC5        0.0000 
     67 CA         23.2420   14.0770   42.8210 C.3       9 GLL5        0.0000 
     68 CA         23.8680   18.1150   43.9480 C.3       6 GLP5        0.0000 
     69 CA         12.7620   10.0540   37.4445 C.3       3 GLC5        0.0000 
     70 CA         11.8660   10.0590   39.1650 C.3       6 GLP5        0.0000 
     71 CA         13.0817   11.8013   30.0053 C.3       3 GLC5        0.0000 
     72 CA         12.1890   10.7780   28.7880 C.3       6 GLP5        0.0000 
     73 CA         15.9377   12.3263   29.3872 C.3       3 GLC5        0.0000 
     74 CA         14.4370   12.9100   30.7060 C.3       9 GLL5        0.0000 
     75 CA         17.5210   11.2200   28.5250 C.3       6 GLP5        0.0000 
     76 CA         14.5891   14.4504   31.9301 C.3       3 GLC5        0.0000 
     77 CA         17.4230   14.2993   38.4680 C.3       3 GLC5        0.0000 
     78 CA         16.2590   16.0640   38.0320 C.3       6 GLP5        0.0000 
     79 CA         20.0688   14.2310   37.7622 C.3       3 GLC5        0.0000 
     80 CA         19.2220   12.9030   38.6990 C.3       9 GLL5        0.0000 
     81 CA         19.2937   12.4328   43.0083 C.3       3 GLC5        0.0000 
     82 CA         21.1010   12.3520   42.1120 C.3       9 GLL5        0.0000 
     83 CA         20.5593   13.9642   43.2127 C.3       3 GLC5        0.0000 
     84 CA         19.7510   15.5390   43.6560 C.3       6 GLP5        0.0000 
     85 CA         21.2888   14.6931   43.0340 C.3       3 GLC5        0.0000 
     86 CA         22.6780   13.2660   43.7630 C.3       9 GLL5        0.0000 
@<TRIPOS>BOND
@<TRIPOS>SUBSTRUCTURE
     1 ALC1       13 GROUP        1 X    ALC  0     ROOT ALC X 1
     2 SEC2        1 GROUP        1 X    SEC  0     **** SEC X 2
     3 GLC5        4 GROUP        1 X    GLC  0     **** GLC X 6
     4 ALP1       15 GROUP        1 Y    ALP  0     ROOT ALP Y 8
     5 SEP2        3 GROUP        1 Y    SEP  0     **** SEP Y 9
     6 GLP5        6 GROUP        1 Y    GLP  0     **** GLP Y 13
     7 ALL1       14 GROUP        1 Z    ALL  0     ROOT ALL Z 15
     8 SEL2        2 GROUP        1 Z    SEL  0     **** SEL Z 16
     9 GLL5        5 GROUP        1 Z    GLL  0     **** GLL Z 20
@<TRIPOS>SET

