#    Name: 3cin_NAD_1_ligand
#    Modification time : Mon Mar 24 21:34:12 2014

@<TRIPOS>MOLECULE
3cin_NAD_1_ligand
   70    74     1     0     0
SMALL
NO_CHARGES


@<TRIPOS>ATOM
      1 PA         15.6790    8.5570   38.2740 P.3       1 NAD400      0.0000 
      2 O1A        14.8930    7.8850   39.3680 O.co2     1 NAD400      0.0000 
      3 O2A        15.9890    7.6160   37.1510 O.co2     1 NAD400      0.0000 
      4 O5B        14.7380    9.6770   37.7070 O.3       1 NAD400      0.0000 
      5 C5B        15.0520   10.3430   36.4860 C.3       1 NAD400      0.0000 
      6 C4B        13.7360   10.7290   35.8340 C.3       1 NAD400      0.0000 
      7 O4B        14.0020   11.5930   34.7410 O.3       1 NAD400      0.0000 
      8 C3B        12.9220    9.5620   35.2880 C.3       1 NAD400      0.0000 
      9 O3B        11.5490    9.6950   35.6160 O.3       1 NAD400      0.0000 
     10 C2B        13.1190    9.6640   33.7810 C.3       1 NAD400      0.0000 
     11 O2B        12.1150    9.0010   33.0620 O.3       1 NAD400      0.0000 
     12 C1B        13.1890   11.1660   33.6190 C.3       1 NAD400      0.0000 
     13 N9A        13.8380   11.6380   32.3930 N.pl3     1 NAD400      0.0000 
     14 C8A        14.9740   11.0660   31.8290 C.2       1 NAD400      0.0000 
     15 N7A        15.3430   11.8810   30.7820 N.2       1 NAD400      0.0000 
     16 C5A        14.4370   12.9100   30.7060 C.ar      1 NAD400      0.0000 
     17 C6A        14.2720   13.9550   29.7930 C.ar      1 NAD400      0.0000 
     18 N6A        15.1500   14.1880   28.7670 N.pl3     1 NAD400      0.0000 
     19 N1A        13.2540   14.8540   30.0420 N.ar      1 NAD400      0.0000 
     20 C2A        12.3930   14.6640   31.1080 C.ar      1 NAD400      0.0000 
     21 N3A        12.4930   13.5920   31.9700 N.ar      1 NAD400      0.0000 
     22 C4A        13.5120   12.7390   31.7390 C.ar      1 NAD400      0.0000 
     23 O3         16.9820    9.2310   38.8470 O.3       1 NAD400      0.0000 
     24 PN         17.1080    9.9740   40.2330 P.3       1 NAD400      0.0000 
     25 O1N        17.7570    9.0380   41.1970 O.co2     1 NAD400      0.0000 
     26 O2N        15.8550   10.7200   40.5490 O.co2     1 NAD400      0.0000 
     27 O5D        18.2470   11.0350   39.8960 O.3       1 NAD400      0.0000 
     28 C5D        17.9520   12.1660   39.1090 C.3       1 NAD400      0.0000 
     29 C4D        19.2220   12.9030   38.6990 C.3       1 NAD400      0.0000 
     30 O4D        19.7960   13.4680   39.8460 O.3       1 NAD400      0.0000 
     31 C3D        20.2910   12.0630   38.0180 C.3       1 NAD400      0.0000 
     32 O3D        20.9420   12.8430   36.9820 O.3       1 NAD400      0.0000 
     33 C2D        21.2870   11.8610   39.1490 C.3       1 NAD400      0.0000 
     34 O2D        22.6200   11.6750   38.6640 O.3       1 NAD400      0.0000 
     35 C1D        21.1730   13.1990   39.8450 C.3       1 NAD400      0.0000 
     36 N1N        21.6670   13.1690   41.2200 N.pl3     1 NAD400      0.0000 
     37 C2N        21.1010   12.3520   42.1120 C.ar      1 NAD400      0.0000 
     38 C3N        21.6340   12.4270   43.4270 C.ar      1 NAD400      0.0000 
     39 C7N        20.8880   11.7490   44.4830 C.2       1 NAD400      0.0000 
     40 O7N        19.8100   11.0120   44.0790 O.2       1 NAD400      0.0000 
     41 N7N        21.2690   11.8770   45.7640 N.am      1 NAD400      0.0000 
     42 C4N        22.6780   13.2660   43.7630 C.ar      1 NAD400      0.0000 
     43 C5N        23.2420   14.0770   42.8210 C.ar      1 NAD400      0.0000 
     44 C6N        22.6930   14.0230   41.5320 C.ar      1 NAD400      0.0000 
     45 H          15.5947    9.6985   35.7992 H         1 NAD400      0.0000 
     46 H          15.6264   11.2504   36.6539 H         1 NAD400      0.0000 
     47 H          13.1235   11.2498   36.5694 H         1 NAD400      0.0000 
     48 H          13.3626    8.6599   35.6207 H         1 NAD400      0.0000 
     49 H          14.1221    9.2822   33.5936 H         1 NAD400      0.0000 
     50 H          12.2061   11.5735   33.7284 H         1 NAD400      0.0000 
     51 H          15.3995   10.2780   32.1130 H         1 NAD400      0.0000 
     52 H          14.7664   14.6143   27.9478 H         1 NAD400      0.0000 
     53 H          16.0975   13.9113   28.9273 H         1 NAD400      0.0000 
     54 H          11.6290   15.3691   31.2667 H         1 NAD400      0.0000 
     55 H          17.3105   12.8883   39.6465 H         1 NAD400      0.0000 
     56 H          17.4135   11.8961   38.1820 H         1 NAD400      0.0000 
     57 H          18.9351   13.7049   38.0044 H         1 NAD400      0.0000 
     58 H          19.9095   11.1646   37.7164 H         1 NAD400      0.0000 
     59 H          20.9345   11.1171   39.7873 H         1 NAD400      0.0000 
     60 H          21.7008   13.9250   39.2587 H         1 NAD400      0.0000 
     61 H          20.3537   11.7174   41.9113 H         1 NAD400      0.0000 
     62 H          22.0638   12.4605   45.9305 H         1 NAD400      0.0000 
     63 H          20.7239   11.3774   46.4372 H         1 NAD400      0.0000 
     64 H          23.0303   13.2748   44.7379 H         1 NAD400      0.0000 
     65 H          24.0155   14.6908   43.0241 H         1 NAD400      0.0000 
     66 H          23.0845   14.6541   40.8011 H         1 NAD400      0.0000 
     67 H          11.2139   10.4343   35.0319 H         1 NAD400      0.0000 
     68 H          11.6925    9.7084   32.4954 H         1 NAD400      0.0000 
     69 H          20.2002   13.1545   36.3881 H         1 NAD400      0.0000 
     70 H          22.5551   11.8015   37.6741 H         1 NAD400      0.0000 
@<TRIPOS>BOND
     1    2    1 ar   
     2    3    1 ar   
     3    4    1 1    
     4   23    1 1    
     5    5    4 1    
     6    6    5 1    
     7   45    5 1    
     8   46    5 1    
     9    7    6 1    
    10    8    6 1    
    11   47    6 1    
    12   12    7 1    
    13    9    8 1    
    14   10    8 1    
    15   48    8 1    
    16   67    9 1    
    17   11   10 1    
    18   12   10 1    
    19   49   10 1    
    20   68   11 1    
    21   13   12 1    
    22   50   12 1    
    23   14   13 1    
    24   22   13 1    
    25   15   14 2    
    26   51   14 1    
    27   16   15 1    
    28   17   16 ar   
    29   22   16 ar   
    30   18   17 1    
    31   19   17 ar   
    32   52   18 1    
    33   53   18 1    
    34   20   19 ar   
    35   21   20 ar   
    36   54   20 1    
    37   22   21 ar   
    38   24   23 1    
    39   25   24 ar   
    40   26   24 ar   
    41   27   24 1    
    42   28   27 1    
    43   29   28 1    
    44   55   28 1    
    45   56   28 1    
    46   30   29 1    
    47   31   29 1    
    48   57   29 1    
    49   35   30 1    
    50   32   31 1    
    51   33   31 1    
    52   58   31 1    
    53   69   32 1    
    54   34   33 1    
    55   35   33 1    
    56   59   33 1    
    57   70   34 1    
    58   36   35 1    
    59   60   35 1    
    60   37   36 ar   
    61   44   36 ar   
    62   38   37 ar   
    63   61   37 1    
    64   39   38 1    
    65   42   38 ar   
    66   40   39 2    
    67   41   39 am   
    68   62   41 1    
    69   63   41 1    
    70   43   42 ar   
    71   64   42 1    
    72   44   43 ar   
    73   65   43 1    
    74   66   44 1    
@<TRIPOS>SUBSTRUCTURE
     1 NAD400      1 GROUP   
@<TRIPOS>SET

