#    Name: 4ft7_H3K_1_INTS_M
#    Modification time : Mon Mar 24 20:43:28 2014

@<TRIPOS>MOLECULE
4ft7_H3K_1_INTS_M
   67     0     9     0     0
SMALL
NO_CHARGES


@<TRIPOS>ATOM
      1 N          10.1365   -6.8000   13.9685 N.am      2 SEC2        0.0000 
      2 N          10.9830   -5.5530   13.7150 N.am      8 SEL2        0.0000 
      3 N           9.2900   -8.0470   14.2220 N.am      5 SEP2        0.0000 
      4 CA         10.3795   -6.5035   12.4130 C.3       3 GLC5        0.0000 
      5 CA         11.7600   -5.0370   13.0610 C.3       9 GLL5        0.0000 
      6 CA          8.9990   -7.9700   11.7650 C.3       6 GLP5        0.0000 
      7 CA         11.1675   -4.7170   14.9510 C.3       3 GLC5        0.0000 
      8 CA         10.5750   -4.3970   16.8410 C.3       6 GLP5        0.0000 
      9 CA         12.4205   -1.1440   11.3650 C.3       3 GLC5        0.0000 
     10 CA         13.2830   -2.6470   10.8840 C.3       9 GLL5        0.0000 
     11 CA         11.5580    0.3590   11.8460 C.3       6 GLP5        0.0000 
     12 CA         11.6210   -2.3540    9.9560 C.3       3 GLC5        0.0000 
     13 CA          9.9590   -2.0610    9.0280 C.3       6 GLP5        0.0000 
     14 CA         13.6160   -6.8940   10.8740 C.3       3 GLC5        0.0000 
     15 CA         13.9150   -5.0830   11.8480 C.3       9 GLL5        0.0000 
     16 CA         13.3170   -8.7050    9.9000 C.3       6 GLP5        0.0000 
     17 CA         15.2275   -3.5660   12.3345 C.3       3 GLC5        0.0000 
     18 CA         16.5400   -2.0490   12.8210 C.3       6 GLP5        0.0000 
     19 O          14.6600   -1.5150    9.0415 O.2       1 ALC1        0.0000 
     20 O          15.3440   -2.6910    9.5940 O.2       7 ALL1        0.0000 
     21 O          13.9760   -0.3390    8.4890 O.2       4 ALP1        0.0000 
     22 N          17.3450   -0.9220    8.1365 N.am      2 SEC2        0.0000 
     23 N          17.1730   -2.3370    8.2910 N.am      8 SEL2        0.0000 
     24 N          17.5170    0.4930    7.9820 N.am      5 SEP2        0.0000 
     25 CA         17.5555   -3.2760   11.2570 C.3       3 GLC5        0.0000 
     26 CA         18.5710   -4.5030    9.6930 C.3       9 GLL5        0.0000 
     27 CA         18.4230   -4.6425    7.4025 C.3       3 GLC5        0.0000 
     28 CA         19.4950   -3.8000    8.9120 C.3       9 GLL5        0.0000 
     29 CA         17.3510   -5.4850    5.8930 C.3       6 GLP5        0.0000 
     30 CA         20.6885   -2.7135    6.3020 C.3       3 GLC5        0.0000 
     31 CA         22.0130   -3.3390    7.6840 C.3       9 GLL5        0.0000 
     32 CA         19.3640   -2.0880    4.9200 C.3       6 GLP5        0.0000 
     33 CA         21.9160   -1.3685    7.2510 C.3       3 GLC5        0.0000 
     34 CA         21.8190    0.6020    6.8180 C.3       6 GLP5        0.0000 
     35 CA         22.2715   -2.7695    9.5235 C.3       3 GLC5        0.0000 
     36 CA         22.5300   -2.2000   11.3630 C.3       6 GLP5        0.0000 
     37 CA         18.0205   -7.5690    8.8780 C.3       3 GLC5        0.0000 
     38 CA         17.5890   -7.6540   10.8130 C.3       9 GLL5        0.0000 
     39 CA         18.4520   -7.4840    6.9430 C.3       6 GLP5        0.0000 
     40 CA         15.9305   -8.1325    9.7655 C.3       3 GLC5        0.0000 
     41 CA         14.2720   -8.6110    8.7180 C.3       6 GLP5        0.0000 
     42 CA         14.8990   -8.4510   10.8065 C.3       3 GLC5        0.0000 
     43 CA         16.4810   -8.1970   11.7130 C.3       9 GLL5        0.0000 
     44 CA         19.6145   -5.5330   13.8080 C.3       3 GLC5        0.0000 
     45 CA         18.0370   -5.8760   12.6300 C.3       9 GLL5        0.0000 
     46 CA         21.1920   -5.1900   14.9860 C.3       6 GLP5        0.0000 
     47 O          18.7590   -6.8465   15.0465 O.2       1 ALC1        0.0000 
     48 O          17.4960   -6.4480   14.8910 O.2       7 ALL1        0.0000 
     49 O          20.0220   -7.2450   15.2020 O.2       4 ALP1        0.0000 
     50 CA         10.7730   -4.4067   11.5040 C.3       3 GLC5        0.0000 
     51 CA         12.7160   -4.4060   12.2290 C.3       9 GLL5        0.0000 
     52 CA          9.3080   -4.0920   10.3630 C.3       6 GLP5        0.0000 
     53 CA         13.8045   -3.2532    8.6970 C.3       3 GLC5        0.0000 
     54 CA         13.7340   -3.5300    6.7020 C.3       6 GLP5        0.0000 
     55 CA         15.2075   -2.5128   11.7565 C.3       3 GLC5        0.0000 
     56 CA         14.4670   -3.3060   10.5000 C.3       9 GLL5        0.0000 
     57 CA         18.6138   -6.2903    8.4797 C.3       3 GLC5        0.0000 
     58 CA         20.5512   -4.9435    6.7308 C.3       3 GLC5        0.0000 
     59 CA         20.7780   -4.2930    8.7690 C.3       9 GLL5        0.0000 
     60 CA         19.7070   -6.0710    5.2350 C.3       6 GLP5        0.0000 
     61 CA         19.5907   -6.6455    8.3535 C.3       3 GLC5        0.0000 
     62 CA         21.1800   -5.4580    9.3740 C.3       9 GLL5        0.0000 
     63 CA         21.5941   -3.4761   10.2351 C.3       3 GLC5        0.0000 
     64 CA         17.6860   -9.5503   10.4810 C.3       3 GLC5        0.0000 
     65 CA         18.3370  -11.1750    9.6990 C.3       6 GLP5        0.0000 
     66 CA         17.9395   -4.4740   13.7723 C.3       3 GLC5        0.0000 
     67 CA         18.3320   -2.7160   14.4600 C.3       6 GLP5        0.0000 
@<TRIPOS>BOND
@<TRIPOS>SUBSTRUCTURE
     1 ALC1       19 GROUP        1 X    ALC  0     ROOT ALC X 1
     2 SEC2        1 GROUP        1 X    SEC  0     **** SEC X 2
     3 GLC5        4 GROUP        1 X    GLC  0     **** GLC X 6
     4 ALP1       21 GROUP        1 Y    ALP  0     ROOT ALP Y 8
     5 SEP2        3 GROUP        1 Y    SEP  0     **** SEP Y 9
     6 GLP5        6 GROUP        1 Y    GLP  0     **** GLP Y 13
     7 ALL1       20 GROUP        1 Z    ALL  0     ROOT ALL Z 15
     8 SEL2        2 GROUP        1 Z    SEL  0     **** SEL Z 16
     9 GLL5        5 GROUP        1 Z    GLL  0     **** GLL Z 20
@<TRIPOS>SET

