#    Name: 4ft7_H3K_1_ligand
#    Modification time : Mon Mar 24 20:43:28 2014

@<TRIPOS>MOLECULE
4ft7_H3K_1_ligand
   43    45     1     0     0
SMALL
NO_CHARGES


@<TRIPOS>ATOM
      1 N6         10.9830   -5.5530   13.7150 N.1       1 H3K301      0.0000 
      2 C17        11.7600   -5.0370   13.0610 C.1       1 H3K301      0.0000 
      3 C15        12.7160   -4.4060   12.2290 C.ar      1 H3K301      0.0000 
      4 N4         12.4220   -3.1820   11.7550 N.ar      1 H3K301      0.0000 
      5 C14        13.2830   -2.6470   10.8840 C.ar      1 H3K301      0.0000 
      6 C16        13.9150   -5.0830   11.8480 C.ar      1 H3K301      0.0000 
      7 N5         14.7780   -4.5150   10.9980 N.ar      1 H3K301      0.0000 
      8 C13        14.4670   -3.3060   10.5000 C.ar      1 H3K301      0.0000 
      9 N3         15.3440   -2.6910    9.5940 N.am      1 H3K301      0.0000 
     10 C12        16.6180   -2.9900    9.1710 C.2       1 H3K301      0.0000 
     11 O2         17.1730   -2.3370    8.2910 O.2       1 H3K301      0.0000 
     12 N2         17.2110   -4.0530    9.8240 N.am      1 H3K301      0.0000 
     13 C11        18.5710   -4.5030    9.6930 C.ar      1 H3K301      0.0000 
     14 C10        19.4950   -3.8000    8.9120 C.ar      1 H3K301      0.0000 
     15 C9         20.7780   -4.2930    8.7690 C.ar      1 H3K301      0.0000 
     16 BR         22.0130   -3.3390    7.6840 Br        1 H3K301      0.0000 
     17 C8         21.1800   -5.4580    9.3740 C.ar      1 H3K301      0.0000 
     18 C7         20.2790   -6.1560   10.1540 C.ar      1 H3K301      0.0000 
     19 C6         18.9800   -5.6900   10.3400 C.ar      1 H3K301      0.0000 
     20 N1         18.1480   -6.3740   11.2600 N.3       1 H3K301      0.0000 
     21 C4         17.5890   -7.6540   10.8130 C.3       1 H3K301      0.0000 
     22 C3         16.4810   -8.1970   11.7130 C.3       1 H3K301      0.0000 
     23 C2         16.8390   -8.0410   13.1880 C.3       1 H3K301      0.0000 
     24 C5         18.0370   -5.8760   12.6300 C.3       1 H3K301      0.0000 
     25 C1         17.0570   -6.5880   13.5390 C.3       1 H3K301      0.0000 
     26 O1         17.4960   -6.4480   14.8910 O.3       1 H3K301      0.0000 
     27 H          13.0986   -1.7068   10.4551 H         1 H3K301      0.0000 
     28 H          14.0813   -6.0208   12.2556 H         1 H3K301      0.0000 
     29 H          14.9097   -1.7686    9.1236 H         1 H3K301      0.0000 
     30 H          16.6084   -4.6189   10.5090 H         1 H3K301      0.0000 
     31 H          19.2150   -2.9279    8.4533 H         1 H3K301      0.0000 
     32 H          22.1370   -5.8089    9.2505 H         1 H3K301      0.0000 
     33 H          20.5692   -7.0404   10.6099 H         1 H3K301      0.0000 
     34 H          18.3869   -8.4228   10.7520 H         1 H3K301      0.0000 
     35 H          17.1787   -7.5579    9.7864 H         1 H3K301      0.0000 
     36 H          16.3237   -9.2535   11.4908 H         1 H3K301      0.0000 
     37 H          15.5555   -7.6568   11.5083 H         1 H3K301      0.0000 
     38 H          17.7475   -8.6086   13.3955 H         1 H3K301      0.0000 
     39 H          16.0288   -8.4474   13.7956 H         1 H3K301      0.0000 
     40 H          17.7640   -4.7857   12.6182 H         1 H3K301      0.0000 
     41 H          19.0450   -5.8995   13.1268 H         1 H3K301      0.0000 
     42 H          16.0820   -6.0690   13.4284 H         1 H3K301      0.0000 
     43 H          18.4322   -6.7993   14.8967 H         1 H3K301      0.0000 
@<TRIPOS>BOND
     1    2    1 3    
     2    3    2 1    
     3    4    3 ar   
     4    6    3 ar   
     5    5    4 ar   
     6    8    5 ar   
     7   27    5 1    
     8    7    6 ar   
     9   28    6 1    
    10    8    7 ar   
    11    9    8 1    
    12   10    9 am   
    13   29    9 1    
    14   11   10 2    
    15   12   10 am   
    16   13   12 1    
    17   30   12 1    
    18   14   13 ar   
    19   19   13 ar   
    20   15   14 ar   
    21   31   14 1    
    22   16   15 1    
    23   17   15 ar   
    24   18   17 ar   
    25   32   17 1    
    26   19   18 ar   
    27   33   18 1    
    28   20   19 1    
    29   21   20 1    
    30   24   20 1    
    31   22   21 1    
    32   34   21 1    
    33   35   21 1    
    34   23   22 1    
    35   36   22 1    
    36   37   22 1    
    37   25   23 1    
    38   38   23 1    
    39   39   23 1    
    40   25   24 1    
    41   40   24 1    
    42   41   24 1    
    43   26   25 1    
    44   42   25 1    
    45   43   26 1    
@<TRIPOS>SUBSTRUCTURE
     1 H3K301      1 GROUP   
@<TRIPOS>SET

