#    Name: 4gt8_ADP_1_INTS_M
#    Modification time : Mon Mar 24 23:38:15 2014

@<TRIPOS>MOLECULE
4gt8_ADP_1_INTS_M
   59     0    12     0     0
SMALL
NO_CHARGES


@<TRIPOS>ATOM
      1 Zn         17.6090   28.9415   38.1015 Zn        3 ZIC7        0.0000 
      2 Zn         17.2450   29.4180   37.2580 Zn       11 ZIL7        0.0000 
      3 Zn         17.9730   28.4650   38.9450 Zn        7 ZIP7        0.0000 
      4 N          15.8190   29.7020   37.0485 N.am      2 SEC2        0.0000 
      5 N          17.2450   29.4180   37.2580 N.am     10 SEL2        0.0000 
      6 N          14.3930   29.9860   36.8390 N.am      6 SEP2        0.0000 
      7 N          19.1020   24.1915   37.3470 N.am      2 SEC2        0.0000 
      8 N          18.6460   25.2110   36.2960 N.am     10 SEL2        0.0000 
      9 N          19.5580   23.1720   38.3980 N.am      6 SEP2        0.0000 
     10 Zn         17.7930   27.6105   38.5150 Zn        3 ZIC7        0.0000 
     11 Zn         17.6130   26.7560   38.0850 Zn       11 ZIL7        0.0000 
     12 N          16.7660   26.4835   39.1870 N.am      2 SEC2        0.0000 
     13 N          17.6130   26.7560   38.0850 N.am     10 SEL2        0.0000 
     14 N          15.9190   26.2110   40.2890 N.am      6 SEP2        0.0000 
     15 CA         15.3215   23.7380   33.6200 C.3       4 GLC5        0.0000 
     16 CA         15.9810   25.3960   34.8490 C.3      12 GLL5        0.0000 
     17 CA         14.6620   22.0800   32.3910 C.3       8 GLP5        0.0000 
     18 CA         17.3765   24.3015   34.4040 C.3       4 GLC5        0.0000 
     19 CA         18.7720   23.2070   33.9590 C.3       8 GLP5        0.0000 
     20 CA         15.9990   23.4440   35.6230 C.3       4 GLC5        0.0000 
     21 CA         16.0170   21.4920   36.3970 C.3       8 GLP5        0.0000 
     22 CA         13.9680   24.2280   33.1665 C.3       4 GLC5        0.0000 
     23 CA         14.5940   25.7500   34.3380 C.3      12 GLL5        0.0000 
     24 CA         13.3420   22.7060   31.9950 C.3       8 GLP5        0.0000 
     25 CA         13.7655   28.3300   36.0795 C.3       4 GLC5        0.0000 
     26 CA         14.1990   27.1900   34.6180 C.3      12 GLL5        0.0000 
     27 CA         13.3320   29.4700   37.5410 C.3       8 GLP5        0.0000 
     28 CA         12.4460   28.5055   35.7725 C.3       4 GLC5        0.0000 
     29 CA         12.6910   27.1230   34.6220 C.3      12 GLL5        0.0000 
     30 CA         12.2010   29.8880   36.9230 C.3       8 GLP5        0.0000 
     31 CA         11.7705   24.0070   35.0645 C.3       4 GLC5        0.0000 
     32 CA         12.4010   25.7470   35.1710 C.3      12 GLL5        0.0000 
     33 CA         11.1400   22.2670   34.9580 C.3       8 GLP5        0.0000 
     34 CA         12.8715   24.2265   33.5830 C.3       4 GLC5        0.0000 
     35 CA         12.5565   26.8080   39.6900 C.3       4 GLC5        0.0000 
     36 CA         11.0330   25.9460   38.5810 C.3      12 GLL5        0.0000 
     37 CA         14.0800   27.6700   40.7990 C.3       8 GLP5        0.0000 
     38 CA          8.2930   27.5675   40.0430 C.3       4 GLC5        0.0000 
     39 CA          9.8500   26.1820   39.4070 C.3      12 GLL5        0.0000 
     40 CA          6.7360   28.9530   40.6790 C.3       8 GLP5        0.0000 
     41 CA          8.9620   24.5870   40.3220 C.3       4 GLC5        0.0000 
     42 CA          8.0740   22.9920   41.2370 C.3       8 GLP5        0.0000 
     43 O           8.8515   26.1685   41.7305 O.2       1 ALC1        0.0000 
     44 O           9.9240   26.0980   40.7510 O.2       9 ALL1        0.0000 
     45 O           7.7790   26.2390   42.7100 O.2       5 ALP1        0.0000 
     46 O          10.9180   25.6885   41.8495 O.2       1 ALC1        0.0000 
     47 O          11.9120   25.2790   42.9480 O.2       5 ALP1        0.0000 
     48 CA          9.6840   28.0750   37.3230 C.3       4 GLC5        0.0000 
     49 CA          8.6090   26.5490   37.4300 C.3      12 GLL5        0.0000 
     50 CA         10.7590   29.6010   37.2160 C.3       8 GLP5        0.0000 
     51 CA          7.6905   28.0305   38.3420 C.3       4 GLC5        0.0000 
     52 CA          6.7720   29.5120   39.2540 C.3       8 GLP5        0.0000 
     53 CA          6.6620   27.1420   36.6435 C.3       4 GLC5        0.0000 
     54 CA          4.7150   27.7350   35.8570 C.3       8 GLP5        0.0000 
     55 CA          8.7570   24.9500   35.9720 C.3       4 GLC5        0.0000 
     56 CA          8.9050   23.3510   34.5140 C.3       8 GLP5        0.0000 
     57 CA          9.8895   24.6990   35.8200 C.3       4 GLC5        0.0000 
     58 CA         10.8740   26.0470   37.1260 C.3      12 GLL5        0.0000 
     59 CA         10.7084   27.8282   37.6380 C.3       4 GLC5        0.0000 
@<TRIPOS>BOND
@<TRIPOS>SUBSTRUCTURE
     1 ALC1       43 GROUP        1 X    ALC  0     ROOT ALC X 1
     2 SEC2        4 GROUP        1 X    SEC  0     **** SEC X 2
     3 ZIC7        1 GROUP        1 X    ZIC  0     **** ZIC X 5
     4 GLC5       15 GROUP        1 X    GLC  0     **** GLC X 6
     5 ALP1       45 GROUP        1 Y    ALP  0     ROOT ALP Y 8
     6 SEP2        6 GROUP        1 Y    SEP  0     **** SEP Y 9
     7 ZIP7        3 GROUP        1 Y    ZIP  0     **** ZIP Y 12
     8 GLP5       17 GROUP        1 Y    GLP  0     **** GLP Y 13
     9 ALL1       44 GROUP        1 Z    ALL  0     ROOT ALL Z 15
    10 SEL2        5 GROUP        1 Z    SEL  0     **** SEL Z 16
    11 ZIL7        2 GROUP        1 Z    ZIL  0     **** ZIL Z 19
    12 GLL5       16 GROUP        1 Z    GLL  0     **** GLL Z 20
@<TRIPOS>SET

