#    Name: 4gt8_ADP_1_ligand
#    Modification time : Mon Mar 24 23:38:15 2014

@<TRIPOS>MOLECULE
4gt8_ADP_1_ligand
   39    41     1     0     0
SMALL
NO_CHARGES


@<TRIPOS>ATOM
      1 PB         17.7400   29.1020   35.8660 P.3       1 ADP401      0.0000 
      2 O1B        19.1700   29.5580   35.6540 O.co2     1 ADP401      0.0000 
      3 O2B        16.7990   29.4690   34.7530 O.co2     1 ADP401      0.0000 
      4 O3B        17.2450   29.4180   37.2580 O.co2     1 ADP401      0.0000 
      5 PA         17.6440   26.2820   36.6620 P.3       1 ADP401      0.0000 
      6 O1A        18.6460   25.2110   36.2960 O.co2     1 ADP401      0.0000 
      7 O2A        17.6130   26.7560   38.0850 O.co2     1 ADP401      0.0000 
      8 O3A        17.7910   27.4870   35.6200 O.3       1 ADP401      0.0000 
      9 O5'        16.1690   25.7890   36.2090 O.3       1 ADP401      0.0000 
     10 C5'        15.9810   25.3960   34.8490 C.3       1 ADP401      0.0000 
     11 C4'        14.5940   25.7500   34.3380 C.3       1 ADP401      0.0000 
     12 O4'        13.5920   24.9760   34.9990 O.3       1 ADP401      0.0000 
     13 C3'        14.1990   27.1900   34.6180 C.3       1 ADP401      0.0000 
     14 O3'        14.6940   28.0850   33.6170 O.3       1 ADP401      0.0000 
     15 C2'        12.6910   27.1230   34.6220 C.3       1 ADP401      0.0000 
     16 O2'        12.2090   27.0800   33.2760 O.3       1 ADP401      0.0000 
     17 C1'        12.4010   25.7470   35.1710 C.3       1 ADP401      0.0000 
     18 N9         12.0760   25.7950   36.6180 N.pl3     1 ADP401      0.0000 
     19 C8         12.9410   25.5450   37.6160 C.2       1 ADP401      0.0000 
     20 N7         12.3230   25.6250   38.8140 N.2       1 ADP401      0.0000 
     21 C5         11.0330   25.9460   38.5810 C.ar      1 ADP401      0.0000 
     22 C6          9.8500   26.1820   39.4070 C.ar      1 ADP401      0.0000 
     23 N6          9.9240   26.0980   40.7510 N.pl3     1 ADP401      0.0000 
     24 N1          8.6870   26.4580   38.7750 N.ar      1 ADP401      0.0000 
     25 C2          8.6090   26.5490   37.4300 C.ar      1 ADP401      0.0000 
     26 N3          9.6600   26.3540   36.6120 N.ar      1 ADP401      0.0000 
     27 C4         10.8740   26.0470   37.1260 C.ar      1 ADP401      0.0000 
     28 H          16.1179   24.3051   34.7220 H         1 ADP401      0.0000 
     29 H          16.7191   25.8825   34.1831 H         1 ADP401      0.0000 
     30 H          14.5456   25.5921   33.2747 H         1 ADP401      0.0000 
     31 H          14.5238   27.4322   35.6049 H         1 ADP401      0.0000 
     32 H          12.2776   27.8391   35.2118 H         1 ADP401      0.0000 
     33 H          11.5900   25.3185   34.6231 H         1 ADP401      0.0000 
     34 H          13.8911   25.3332   37.4944 H         1 ADP401      0.0000 
     35 H          10.8246   25.8847   41.1296 H         1 ADP401      0.0000 
     36 H           9.0717   26.2565   41.2494 H         1 ADP401      0.0000 
     37 H           7.6657   26.7877   36.9954 H         1 ADP401      0.0000 
     38 H          15.4336   28.5887   34.0633 H         1 ADP401      0.0000 
     39 H          12.7240   27.7889   32.7940 H         1 ADP401      0.0000 
@<TRIPOS>BOND
     1    2    1 ar   
     2    3    1 ar   
     3    4    1 ar   
     4    8    1 1    
     5    6    5 ar   
     6    7    5 ar   
     7    8    5 1    
     8    9    5 1    
     9   10    9 1    
    10   11   10 1    
    11   28   10 1    
    12   29   10 1    
    13   12   11 1    
    14   13   11 1    
    15   30   11 1    
    16   17   12 1    
    17   14   13 1    
    18   15   13 1    
    19   31   13 1    
    20   38   14 1    
    21   16   15 1    
    22   17   15 1    
    23   32   15 1    
    24   39   16 1    
    25   18   17 1    
    26   33   17 1    
    27   19   18 1    
    28   27   18 1    
    29   20   19 2    
    30   34   19 1    
    31   21   20 1    
    32   22   21 ar   
    33   27   21 ar   
    34   23   22 1    
    35   24   22 ar   
    36   35   23 1    
    37   36   23 1    
    38   25   24 ar   
    39   26   25 ar   
    40   37   25 1    
    41   27   26 ar   
@<TRIPOS>SUBSTRUCTURE
     1 ADP401      1 GROUP   
@<TRIPOS>SET

