#    Name: 1tb5_AMP_1_INTS_M
#    Modification time : Tue Mar 25 04:43:37 2014

@<TRIPOS>MOLECULE
1tb5_AMP_1_INTS_M
   35     0    12     0     0
SMALL
NO_CHARGES


@<TRIPOS>ATOM
      1 Zn         37.3645    5.0310   57.5985 Zn        3 ZIC7        0.0000 
      2 Zn         37.7990    5.0400   58.5690 Zn       11 ZIL7        0.0000 
      3 Zn         36.9300    5.0220   56.6280 Zn        7 ZIP7        0.0000 
      4 Zn         40.4410    4.7090   56.9525 Zn        3 ZIC7        0.0000 
      5 Zn         40.3510    4.6410   58.0750 Zn       11 ZIL7        0.0000 
      6 Zn         40.5310    4.7770   55.8300 Zn        7 ZIP7        0.0000 
      7 CA         40.1850    2.9680   64.7555 C.3       4 GLC5        0.0000 
      8 CA         40.0090    1.9600   63.2160 C.3      12 GLL5        0.0000 
      9 CA         40.3610    3.9760   66.2950 C.3       8 GLP5        0.0000 
     10 CA         41.1300   -0.3635   60.8395 C.3       4 GLC5        0.0000 
     11 CA         40.7850    0.7620   62.7200 C.3      12 GLL5        0.0000 
     12 CA         41.4750   -1.4890   58.9590 C.3       8 GLP5        0.0000 
     13 CA         41.9875   -0.5890   62.7260 C.3       4 GLC5        0.0000 
     14 CA         43.1900   -1.9400   62.7320 C.3       8 GLP5        0.0000 
     15 CA         45.3730    3.0055   65.0680 C.3       4 GLC5        0.0000 
     16 CA         45.1990    1.1850   64.6950 C.3      12 GLL5        0.0000 
     17 CA         45.5470    4.8260   65.4410 C.3       8 GLP5        0.0000 
     18 O          47.2000    0.5820   65.3745 O.2       1 ALC1        0.0000 
     19 O          46.4880    1.4440   64.4340 O.2       9 ALL1        0.0000 
     20 O          47.9120   -0.2800   66.3150 O.2       5 ALP1        0.0000 
     21 N          45.7910    0.9000   66.9160 N.am      2 SEC2        0.0000 
     22 N          44.7810    0.8990   65.9840 N.am     10 SEL2        0.0000 
     23 N          46.8010    0.9010   67.8480 N.am      6 SEP2        0.0000 
     24 CA         43.8705   -1.3985   66.4295 C.3       4 GLC5        0.0000 
     25 CA         43.4640    0.6210   66.2630 C.3      12 GLL5        0.0000 
     26 CA         44.2770   -3.4180   66.5960 C.3       8 GLP5        0.0000 
     27 CA         38.2293    0.2535   60.3673 C.3       4 GLC5        0.0000 
     28 CA         39.4680    1.5100   60.9620 C.3      12 GLL5        0.0000 
     29 CA         36.8480   -1.1650   60.5050 C.3       8 GLP5        0.0000 
     30 CA         40.5428    0.0915   59.5943 C.3       4 GLC5        0.0000 
     31 CA         41.2767    3.6282   62.9930 C.3       4 GLC5        0.0000 
     32 CA         39.6440    2.6670   61.9380 C.3      12 GLL5        0.0000 
     33 CA         42.7270    4.9430   63.4090 C.3       8 GLP5        0.0000 
     34 CA         43.1630    3.0060   63.6140 C.3       4 GLC5        0.0000 
     35 CA         42.9360    0.9280   63.9720 C.3      12 GLL5        0.0000 
@<TRIPOS>BOND
@<TRIPOS>SUBSTRUCTURE
     1 ALC1       18 GROUP        1 X    ALC  0     ROOT ALC X 1
     2 SEC2       21 GROUP        1 X    SEC  0     **** SEC X 2
     3 ZIC7        1 GROUP        1 X    ZIC  0     **** ZIC X 5
     4 GLC5        7 GROUP        1 X    GLC  0     **** GLC X 6
     5 ALP1       20 GROUP        1 Y    ALP  0     ROOT ALP Y 8
     6 SEP2       23 GROUP        1 Y    SEP  0     **** SEP Y 9
     7 ZIP7        3 GROUP        1 Y    ZIP  0     **** ZIP Y 12
     8 GLP5        9 GROUP        1 Y    GLP  0     **** GLP Y 13
     9 ALL1       19 GROUP        1 Z    ALL  0     ROOT ALL Z 15
    10 SEL2       22 GROUP        1 Z    SEL  0     **** SEL Z 16
    11 ZIL7        2 GROUP        1 Z    ZIL  0     **** ZIL Z 19
    12 GLL5        8 GROUP        1 Z    GLL  0     **** GLL Z 20
@<TRIPOS>SET

