#    Name: 1tb5_AMP_1_ligand
#    Modification time : Tue Mar 25 04:43:37 2014

@<TRIPOS>MOLECULE
1tb5_AMP_1_ligand
   35    37     1     0     0
SMALL
NO_CHARGES


@<TRIPOS>ATOM
      1 P          39.1010    4.3280   58.9490 P.3       1 AMP102      0.0000 
      2 O1P        37.7990    5.0400   58.5690 O.co2     1 AMP102      0.0000 
      3 O2P        40.3510    4.6410   58.0750 O.co2     1 AMP102      0.0000 
      4 O3P        39.4910    4.7380   60.3830 O.co2     1 AMP102      0.0000 
      5 O5'        38.8000    2.7280   59.0120 O.3       1 AMP102      0.0000 
      6 C5'        39.7530    1.8340   59.4970 C.3       1 AMP102      0.0000 
      7 C4'        39.4680    1.5100   60.9620 C.3       1 AMP102      0.0000 
      8 O4'        40.3880    0.5240   61.3900 O.3       1 AMP102      0.0000 
      9 C3'        39.6440    2.6670   61.9380 C.3       1 AMP102      0.0000 
     10 O3'        38.4940    3.4630   62.0640 O.3       1 AMP102      0.0000 
     11 C2'        40.0090    1.9600   63.2160 C.3       1 AMP102      0.0000 
     12 O2'        38.8850    1.5150   63.9550 O.3       1 AMP102      0.0000 
     13 C1'        40.7850    0.7620   62.7200 C.3       1 AMP102      0.0000 
     14 N9         42.2350    1.0120   62.8020 N.pl3     1 AMP102      0.0000 
     15 C8         43.1120    1.3290   61.7920 C.2       1 AMP102      0.0000 
     16 N7         44.3470    1.4550   62.3350 N.2       1 AMP102      0.0000 
     17 C5         44.2620    1.2100   63.6660 C.ar      1 AMP102      0.0000 
     18 C6         45.1990    1.1850   64.6950 C.ar      1 AMP102      0.0000 
     19 N6         46.4880    1.4440   64.4340 N.pl3     1 AMP102      0.0000 
     20 N1         44.7810    0.8990   65.9840 N.ar      1 AMP102      0.0000 
     21 C2         43.4640    0.6210   66.2630 C.ar      1 AMP102      0.0000 
     22 N3         42.5450    0.6360   65.2400 N.ar      1 AMP102      0.0000 
     23 C4         42.9360    0.9280   63.9720 C.ar      1 AMP102      0.0000 
     24 H          40.7766    2.2386   59.4464 H         1 AMP102      0.0000 
     25 H          39.7555    0.8792   58.9471 H         1 AMP102      0.0000 
     26 H          38.4593    1.1365   61.0537 H         1 AMP102      0.0000 
     27 H          40.5182    3.2158   61.6154 H         1 AMP102      0.0000 
     28 H          40.6771    2.5714   63.7703 H         1 AMP102      0.0000 
     29 H          40.5256   -0.0785   63.3552 H         1 AMP102      0.0000 
     30 H          42.8796    1.4389   60.8704 H         1 AMP102      0.0000 
     31 H          47.1572    0.9515   64.9905 H         1 AMP102      0.0000 
     32 H          46.6651    2.1066   63.7062 H         1 AMP102      0.0000 
     33 H          43.1697    0.4047   67.2235 H         1 AMP102      0.0000 
     34 H          38.7915    4.3871   61.8244 H         1 AMP102      0.0000 
     35 H          38.1021    1.9773   63.5386 H         1 AMP102      0.0000 
@<TRIPOS>BOND
     1    2    1 ar   
     2    3    1 ar   
     3    4    1 ar   
     4    5    1 1    
     5    6    5 1    
     6    7    6 1    
     7   24    6 1    
     8   25    6 1    
     9    8    7 1    
    10    9    7 1    
    11   26    7 1    
    12   13    8 1    
    13   10    9 1    
    14   11    9 1    
    15   27    9 1    
    16   34   10 1    
    17   12   11 1    
    18   13   11 1    
    19   28   11 1    
    20   35   12 1    
    21   14   13 1    
    22   29   13 1    
    23   15   14 1    
    24   23   14 1    
    25   16   15 2    
    26   30   15 1    
    27   17   16 1    
    28   18   17 ar   
    29   23   17 ar   
    30   19   18 1    
    31   20   18 ar   
    32   31   19 1    
    33   32   19 1    
    34   21   20 ar   
    35   22   21 ar   
    36   33   21 1    
    37   23   22 ar   
@<TRIPOS>SUBSTRUCTURE
     1 AMP102      1 GROUP   
@<TRIPOS>SET

