#    Name: 4btj_ADP_1_INTS_M
#    Modification time : Tue Mar 25 08:21:00 2014

@<TRIPOS>MOLECULE
4btj_ADP_1_INTS_M
   58     0    12     0     0
SMALL
NO_CHARGES


@<TRIPOS>ATOM
      1 NZ          2.3725    7.2580  -30.2685 N.4       3 LYC4        0.0000 
      2 NZ          1.8510    8.5080  -29.5310 N.4      11 LYL4        0.0000 
      3 NZ          2.8940    6.0080  -31.0060 N.4       7 LYP4        0.0000 
      4 N           2.3725    7.2580  -30.2685 N.am      2 SEC2        0.0000 
      5 N           1.8510    8.5080  -29.5310 N.am     10 SEL2        0.0000 
      6 N           2.8940    6.0080  -31.0060 N.am      6 SEP2        0.0000 
      7 NZ          1.5525    5.8340  -31.0685 N.4       3 LYC4        0.0000 
      8 NZ          0.2110    5.6600  -31.1310 N.4      11 LYL4        0.0000 
      9 N           1.5525    5.8340  -31.0685 N.am      2 SEC2        0.0000 
     10 N           0.2110    5.6600  -31.1310 N.am     10 SEL2        0.0000 
     11 CA         -1.5885    7.7155  -33.2020 C.3       4 GLC5        0.0000 
     12 CA         -2.6690    7.1460  -31.9550 C.3      12 GLL5        0.0000 
     13 CA         -0.5080    8.2850  -34.4490 C.3       8 GLP5        0.0000 
     14 CA         -4.2915    9.0930  -33.1330 C.3       4 GLC5        0.0000 
     15 CA         -4.0820    7.5360  -31.8150 C.3      12 GLL5        0.0000 
     16 CA         -4.5010   10.6500  -34.4510 C.3       8 GLP5        0.0000 
     17 O          -5.5510    5.7020  -29.1205 O.2       1 ALC1        0.0000 
     18 O          -5.5590    6.6300  -29.9460 O.2       9 ALL1        0.0000 
     19 O          -5.5430    4.7740  -28.2950 O.2       5 ALP1        0.0000 
     20 CA         -7.1995    5.0340  -31.0260 C.3       4 GLC5        0.0000 
     21 CA         -5.6730    5.7010  -32.2950 C.3      12 GLL5        0.0000 
     22 CA         -8.7260    4.3670  -29.7570 C.3       8 GLP5        0.0000 
     23 N          -7.7655    6.5605  -31.2285 N.am      2 SEC2        0.0000 
     24 N          -6.9830    6.3560  -32.4550 N.am     10 SEL2        0.0000 
     25 N          -8.5480    6.7650  -30.0020 N.am      6 SEP2        0.0000 
     26 CA         -3.4075    6.6270  -34.9275 C.3       4 GLC5        0.0000 
     27 CA         -4.8540    6.0280  -33.5630 C.3      12 GLL5        0.0000 
     28 CA         -1.9610    7.2260  -36.2920 C.3       8 GLP5        0.0000 
     29 CA         -3.7705    0.9300  -37.7235 C.3       4 GLC5        0.0000 
     30 CA         -3.3870    2.0460  -35.8320 C.3      12 GLL5        0.0000 
     31 CA         -4.1540   -0.1860  -39.6150 C.3       8 GLP5        0.0000 
     32 CA         -4.8975    0.4955  -35.6740 C.3       4 GLC5        0.0000 
     33 CA         -6.4080   -1.0550  -35.5160 C.3       8 GLP5        0.0000 
     34 CA         -2.9010    1.1730  -33.9855 C.3       4 GLC5        0.0000 
     35 CA         -2.4150    0.3000  -32.1390 C.3       8 GLP5        0.0000 
     36 O          -2.2250    0.0220  -37.0075 O.2       1 ALC1        0.0000 
     37 O          -2.4400    1.1100  -36.0410 O.2       9 ALL1        0.0000 
     38 O          -2.0100   -1.0660  -37.9740 O.2       5 ALP1        0.0000 
     39 N          -5.1655    0.7965  -37.1265 N.am      2 SEC2        0.0000 
     40 N          -4.5820    1.8680  -36.4860 N.am     10 SEL2        0.0000 
     41 N          -5.7490   -0.2750  -37.7670 N.am      6 SEP2        0.0000 
     42 CA         -5.4210    4.3980  -37.2485 C.3       4 GLC5        0.0000 
     43 CA         -5.6260    2.7560  -36.2740 C.3      12 GLL5        0.0000 
     44 CA         -5.2160    6.0400  -38.2230 C.3       8 GLP5        0.0000 
     45 CA         -5.4400    2.7985  -38.1585 C.3       4 GLC5        0.0000 
     46 CA         -5.2540    2.8410  -40.0430 C.3       8 GLP5        0.0000 
     47 CA         -6.2430    0.9715  -36.6270 C.3       4 GLC5        0.0000 
     48 CA         -6.8600   -0.8130  -36.9800 C.3       8 GLP5        0.0000 
     49 CA         -4.7800    5.0115  -36.5365 C.3       4 GLC5        0.0000 
     50 CA         -4.3440    3.9830  -34.8500 C.3      12 GLL5        0.0000 
     51 CA         -4.5990    4.0457  -31.4435 C.3       4 GLC5        0.0000 
     52 CA         -3.9390    2.0770  -31.1600 C.3       8 GLP5        0.0000 
     53 CA         -2.7272    4.8297  -35.9878 C.3       4 GLC5        0.0000 
     54 CA         -1.6700    6.0850  -37.0680 C.3       8 GLP5        0.0000 
     55 CA         -2.3810    2.7110  -37.0988 C.3       4 GLC5        0.0000 
     56 CA         -3.2250    3.1660  -34.9650 C.3      12 GLL5        0.0000 
     57 CA         -1.4560    2.8160  -38.7990 C.3       8 GLP5        0.0000 
     58 CA         -3.8618    2.8258  -33.0337 C.3       4 GLC5        0.0000 
@<TRIPOS>BOND
@<TRIPOS>SUBSTRUCTURE
     1 ALC1       17 GROUP        1 X    ALC  0     ROOT ALC X 1
     2 SEC2        4 GROUP        1 X    SEC  0     **** SEC X 2
     3 LYC4        1 GROUP        1 X    LYC  0     **** LYC X 4
     4 GLC5       11 GROUP        1 X    GLC  0     **** GLC X 6
     5 ALP1       19 GROUP        1 Y    ALP  0     ROOT ALP Y 8
     6 SEP2        6 GROUP        1 Y    SEP  0     **** SEP Y 9
     7 LYP4        3 GROUP        1 Y    LYP  0     **** LYP Y 11
     8 GLP5       13 GROUP        1 Y    GLP  0     **** GLP Y 13
     9 ALL1       18 GROUP        1 Z    ALL  0     ROOT ALL Z 15
    10 SEL2        5 GROUP        1 Z    SEL  0     **** SEL Z 16
    11 LYL4        2 GROUP        1 Z    LYL  0     **** LYL Z 18
    12 GLL5       12 GROUP        1 Z    GLL  0     **** GLL Z 20
@<TRIPOS>SET

