#    Name: 4btj_ADP_1_ligand
#    Modification time : Tue Mar 25 08:21:00 2014

@<TRIPOS>MOLECULE
4btj_ADP_1_ligand
   39    41     1     0     0
SMALL
NO_CHARGES


@<TRIPOS>ATOM
      1 PB          0.2450    8.6320  -29.4490 P.3       1 ADP1337     0.0000 
      2 O1B        -0.1880    9.0490  -27.9090 O.co2     1 ADP1337     0.0000 
      3 O2B        -0.4080    9.7740  -30.3840 O.co2     1 ADP1337     0.0000 
      4 O3B         1.8510    8.5080  -29.5310 O.co2     1 ADP1337     0.0000 
      5 PA         -0.9310    6.4320  -30.4870 P.3       1 ADP1337     0.0000 
      6 O1A        -1.9680    5.4480  -29.7870 O.co2     1 ADP1337     0.0000 
      7 O2A         0.2110    5.6600  -31.1310 O.co2     1 ADP1337     0.0000 
      8 O3A        -0.4310    7.2270  -29.3720 O.3       1 ADP1337     0.0000 
      9 O5'        -1.7580    7.5650  -31.1660 O.3       1 ADP1337     0.0000 
     10 C5'        -2.6690    7.1460  -31.9550 C.3       1 ADP1337     0.0000 
     11 C4'        -4.0820    7.5360  -31.8150 C.3       1 ADP1337     0.0000 
     12 O4'        -4.1910    7.2870  -33.2900 O.3       1 ADP1337     0.0000 
     13 C3'        -4.8450    6.3280  -31.1590 C.3       1 ADP1337     0.0000 
     14 O3'        -5.5590    6.6300  -29.9460 O.3       1 ADP1337     0.0000 
     15 C2'        -5.6730    5.7010  -32.2950 C.3       1 ADP1337     0.0000 
     16 O2'        -6.9830    6.3560  -32.4550 O.3       1 ADP1337     0.0000 
     17 C1'        -4.8540    6.0280  -33.5630 C.3       1 ADP1337     0.0000 
     18 N9         -3.9520    4.9660  -33.9710 N.pl3     1 ADP1337     0.0000 
     19 C8         -2.6540    4.7160  -33.6050 C.2       1 ADP1337     0.0000 
     20 N7         -2.1750    3.6470  -34.1700 N.2       1 ADP1337     0.0000 
     21 C5         -3.2250    3.1660  -34.9650 C.ar      1 ADP1337     0.0000 
     22 C6         -3.3870    2.0460  -35.8320 C.ar      1 ADP1337     0.0000 
     23 N6         -2.4400    1.1100  -36.0410 N.pl3     1 ADP1337     0.0000 
     24 N1         -4.5820    1.8680  -36.4860 N.ar      1 ADP1337     0.0000 
     25 C2         -5.6260    2.7560  -36.2740 C.ar      1 ADP1337     0.0000 
     26 N3         -5.5680    3.8410  -35.4860 N.ar      1 ADP1337     0.0000 
     27 C4         -4.3440    3.9830  -34.8500 C.ar      1 ADP1337     0.0000 
     28 H          -2.6901    5.9707  -32.0222 H         1 ADP1337     0.0000 
     29 H          -2.4111    7.3622  -33.0833 H         1 ADP1337     0.0000 
     30 H          -4.2639    8.3902  -31.5452 H         1 ADP1337     0.0000 
     31 H          -4.0269    5.5767  -30.9553 H         1 ADP1337     0.0000 
     32 H          -5.7256    4.6751  -32.1845 H         1 ADP1337     0.0000 
     33 H          -5.6099    6.2081  -34.3562 H         1 ADP1337     0.0000 
     34 H          -2.1643    5.3117  -32.9724 H         1 ADP1337     0.0000 
     35 H          -2.6797    0.3757  -36.6761 H         1 ADP1337     0.0000 
     36 H          -1.5820    1.2331  -35.5423 H         1 ADP1337     0.0000 
     37 H          -6.5434    2.5439  -36.7875 H         1 ADP1337     0.0000 
     38 H          -5.8733    5.7446  -29.6036 H         1 ADP1337     0.0000 
     39 H          -7.4835    5.7792  -33.1006 H         1 ADP1337     0.0000 
@<TRIPOS>BOND
     1    2    1 ar   
     2    3    1 ar   
     3    4    1 ar   
     4    8    1 1    
     5    6    5 ar   
     6    7    5 ar   
     7    8    5 1    
     8    9    5 1    
     9   10    9 1    
    10   11   10 1    
    11   28   10 1    
    12   29   10 1    
    13   12   11 1    
    14   13   11 1    
    15   30   11 1    
    16   17   12 1    
    17   14   13 1    
    18   15   13 1    
    19   31   13 1    
    20   38   14 1    
    21   16   15 1    
    22   17   15 1    
    23   32   15 1    
    24   39   16 1    
    25   18   17 1    
    26   33   17 1    
    27   19   18 1    
    28   27   18 1    
    29   20   19 2    
    30   34   19 1    
    31   21   20 1    
    32   22   21 ar   
    33   27   21 ar   
    34   23   22 1    
    35   24   22 ar   
    36   35   23 1    
    37   36   23 1    
    38   25   24 ar   
    39   26   25 ar   
    40   37   25 1    
    41   27   26 ar   
@<TRIPOS>SUBSTRUCTURE
     1 ADP1337     1 GROUP   
@<TRIPOS>SET

