#    Name: 1lrt_IMP_1_INTS_M
#    Modification time : Mon Apr  7 14:17:29 2014

@<TRIPOS>MOLECULE
1lrt_IMP_1_INTS_M
   53     0     9     0     0
SMALL
NO_CHARGES


@<TRIPOS>ATOM
      1 N         -19.5620   35.0545   47.8880 N.am      2 SEC2        0.0000 
      2 N         -19.7350   35.3460   49.2940 N.am      8 SEL2        0.0000 
      3 N         -19.3890   34.7630   46.4820 N.am      5 SEP2        0.0000 
      4 N         -19.7540   33.7755   48.5640 N.am      2 SEC2        0.0000 
      5 N         -19.7730   32.2050   47.8340 N.am      5 SEP2        0.0000 
      6 N         -19.0820   36.8495   49.3590 N.am      2 SEC2        0.0000 
      7 N         -18.4290   38.3530   49.4240 N.am      5 SEP2        0.0000 
      8 N         -22.2735   34.8120   52.1125 N.am      2 SEC2        0.0000 
      9 N         -21.2220   35.0730   51.2850 N.am      8 SEL2        0.0000 
     10 N         -23.3250   34.5510   52.9400 N.am      5 SEP2        0.0000 
     11 N         -21.7045   33.5475   51.6265 N.am      2 SEC2        0.0000 
     12 N         -22.1870   32.0220   51.9680 N.am      5 SEP2        0.0000 
     13 N         -22.5845   32.8660   49.2015 N.am      2 SEC2        0.0000 
     14 N         -21.5020   33.5220   49.2780 N.am      8 SEL2        0.0000 
     15 N         -23.6670   32.2100   49.1250 N.am      5 SEP2        0.0000 
     16 N         -20.6375   32.8635   48.5560 N.am      2 SEC2        0.0000 
     17 N         -21.8445   32.7720   50.6230 N.am      2 SEC2        0.0000 
     18 CA        -25.1280   34.6600   49.2185 C.3       3 GLC5        0.0000 
     19 CA        -23.3690   35.8540   49.1130 C.3       9 GLL5        0.0000 
     20 CA        -26.8870   33.4660   49.3240 C.3       6 GLP5        0.0000 
     21 CA        -21.8455   36.4045   47.5775 C.3       3 GLC5        0.0000 
     22 CA        -20.3220   36.9550   46.0420 C.3       6 GLP5        0.0000 
     23 CA        -23.7345   34.6355   50.7900 C.3       3 GLC5        0.0000 
     24 CA        -24.1000   33.4170   52.4670 C.3       6 GLP5        0.0000 
     25 CA        -26.3230   36.4265   50.4600 C.3       3 GLC5        0.0000 
     26 CA        -25.5850   37.2800   48.7980 C.3       9 GLL5        0.0000 
     27 CA        -27.0610   35.5730   52.1220 C.3       6 GLP5        0.0000 
     28 CA        -26.2360   35.3730   49.0610 C.3       3 GLC5        0.0000 
     29 O         -25.2470   38.9265   50.2935 O.2       1 ALC1        0.0000 
     30 O         -26.0800   38.0710   49.9040 O.2       7 ALL1        0.0000 
     31 O         -24.4140   39.7820   50.6830 O.2       4 ALP1        0.0000 
     32 O         -25.8165   40.1520   48.4975 O.2       1 ALC1        0.0000 
     33 O         -25.7990   39.3400   47.4850 O.2       7 ALL1        0.0000 
     34 O         -25.8340   40.9640   49.5100 O.2       4 ALP1        0.0000 
     35 N         -28.2280   33.6195   44.7030 N.am      2 SEC2        0.0000 
     36 N         -27.2750   34.6750   44.9720 N.am      8 SEL2        0.0000 
     37 N         -29.1810   32.5640   44.4340 N.am      5 SEP2        0.0000 
     38 CA        -25.3525   33.3900   44.9565 C.3       3 GLC5        0.0000 
     39 CA        -26.2910   34.9440   43.9990 C.3       9 GLL5        0.0000 
     40 CA        -24.4140   31.8360   45.9140 C.3       6 GLP5        0.0000 
     41 CA        -26.7450   33.0660   44.1620 C.3       3 GLC5        0.0000 
     42 CA        -27.1990   31.1880   44.3250 C.3       6 GLP5        0.0000 
     43 N         -28.3155   33.5530   42.0760 N.am      2 SEC2        0.0000 
     44 N         -26.9480   33.5270   42.1240 N.am      8 SEL2        0.0000 
     45 N         -29.6830   33.5790   42.0280 N.am      5 SEP2        0.0000 
     46 O         -24.9305   34.7280   40.6045 O.2       1 ALC1        0.0000 
     47 O         -25.0520   34.8770   41.9660 O.2       7 ALL1        0.0000 
     48 O         -24.8090   34.5790   39.2430 O.2       4 ALP1        0.0000 
     49 CA        -24.3045   34.1170   44.7940 C.3       3 GLC5        0.0000 
     50 CA        -25.3760   35.8510   44.4220 C.3       9 GLL5        0.0000 
     51 CA        -23.2330   32.3830   45.1660 C.3       6 GLP5        0.0000 
     52 CA        -22.1875   37.7440   49.4320 C.3       3 GLC5        0.0000 
     53 CA        -20.6600   39.0590   49.9920 C.3       6 GLP5        0.0000 
@<TRIPOS>BOND
@<TRIPOS>SUBSTRUCTURE
     1 ALC1       29 GROUP        1 X    ALC  0     ROOT ALC X 1
     2 SEC2        1 GROUP        1 X    SEC  0     **** SEC X 2
     3 GLC5       18 GROUP        1 X    GLC  0     **** GLC X 6
     4 ALP1       31 GROUP        1 Y    ALP  0     ROOT ALP Y 8
     5 SEP2        3 GROUP        1 Y    SEP  0     **** SEP Y 9
     6 GLP5       20 GROUP        1 Y    GLP  0     **** GLP Y 13
     7 ALL1       30 GROUP        1 Z    ALL  0     ROOT ALL Z 15
     8 SEL2        2 GROUP        1 Z    SEL  0     **** SEL Z 16
     9 GLL5       19 GROUP        1 Z    GLL  0     **** GLL Z 20
@<TRIPOS>SET

