#    Name: 1lrt_IMP_1_ligand
#    Modification time : Mon Apr  7 14:17:29 2014

@<TRIPOS>MOLECULE
1lrt_IMP_1_ligand
   34    36     1     0     0
SMALL
NO_CHARGES


@<TRIPOS>ATOM
      1 P         -21.0950   34.9770   49.7810 P.3       1 IMP801      0.0000 
      2 O1P       -19.7350   35.3460   49.2940 O.co2     1 IMP801      0.0000 
      3 O2P       -21.2220   35.0730   51.2850 O.co2     1 IMP801      0.0000 
      4 O3P       -21.5020   33.5220   49.2780 O.co2     1 IMP801      0.0000 
      5 O5'       -22.0070   36.0310   49.2620 O.3       1 IMP801      0.0000 
      6 C5'       -23.3690   35.8540   49.1130 C.3       1 IMP801      0.0000 
      7 C4'       -24.0610   37.0040   48.6310 C.3       1 IMP801      0.0000 
      8 O4'       -23.8580   36.9800   47.1920 O.3       1 IMP801      0.0000 
      9 C3'       -25.5850   37.2800   48.7980 C.3       1 IMP801      0.0000 
     10 O3'       -26.0800   38.0710   49.9040 O.3       1 IMP801      0.0000 
     11 C2'       -25.9490   37.9740   47.4770 C.3       1 IMP801      0.0000 
     12 O2'       -25.7990   39.3400   47.4850 O.3       1 IMP801      0.0000 
     13 C1'       -25.0460   37.2850   46.4790 C.3       1 IMP801      0.0000 
     14 N9        -25.7490   36.2290   45.7220 N.pl3     1 IMP801      0.0000 
     15 C8        -26.9080   35.5070   46.0800 C.2       1 IMP801      0.0000 
     16 N7        -27.2750   34.6750   44.9720 N.2       1 IMP801      0.0000 
     17 C5        -26.2910   34.9440   43.9990 C.2       1 IMP801      0.0000 
     18 C6        -26.1930   34.3500   42.6430 C.2       1 IMP801      0.0000 
     19 O6        -26.9480   33.5270   42.1240 O.2       1 IMP801      0.0000 
     20 N1        -25.0520   34.8770   41.9660 N.am      1 IMP801      0.0000 
     21 C2        -24.1180   35.8350   42.4760 C.2       1 IMP801      0.0000 
     22 N3        -24.2940   36.3210   43.7110 N.2       1 IMP801      0.0000 
     23 C4        -25.3760   35.8510   44.4220 C.2       1 IMP801      0.0000 
     24 H         -23.8374   35.5292   50.0903 H         1 IMP801      0.0000 
     25 H         -23.5841   34.9831   48.4237 H         1 IMP801      0.0000 
     26 H         -23.5385   37.9405   48.9646 H         1 IMP801      0.0000 
     27 H         -26.0875   36.3002   48.7367 H         1 IMP801      0.0000 
     28 H         -26.9670   37.6427   47.2402 H         1 IMP801      0.0000 
     29 H         -24.7931   38.1225   45.7412 H         1 IMP801      0.0000 
     30 H         -27.3656   35.5544   46.8943 H         1 IMP801      0.0000 
     31 H         -24.8755   34.5212   40.9776 H         1 IMP801      0.0000 
     32 H         -23.3406   36.1171   41.8716 H         1 IMP801      0.0000 
     33 H         -25.2648   38.3297   50.4223 H         1 IMP801      0.0000 
     34 H         -25.8505   39.6003   48.4492 H         1 IMP801      0.0000 
@<TRIPOS>BOND
     1    2    1 ar   
     2    3    1 ar   
     3    4    1 ar   
     4    5    1 1    
     5    6    5 1    
     6    7    6 1    
     7   24    6 1    
     8   25    6 1    
     9    8    7 1    
    10    9    7 1    
    11   26    7 1    
    12   13    8 1    
    13   10    9 1    
    14   11    9 1    
    15   27    9 1    
    16   33   10 1    
    17   12   11 1    
    18   13   11 1    
    19   28   11 1    
    20   34   12 1    
    21   14   13 1    
    22   29   13 1    
    23   15   14 1    
    24   23   14 1    
    25   16   15 2    
    26   30   15 1    
    27   17   16 1    
    28   18   17 1    
    29   23   17 2    
    30   19   18 2    
    31   20   18 am   
    32   21   20 1    
    33   31   20 1    
    34   22   21 2    
    35   32   21 1    
    36   23   22 1    
@<TRIPOS>SUBSTRUCTURE
     1 IMP801      1 GROUP   
@<TRIPOS>SET

