#    Name: 2nz5_226_1_INTS_M
#    Modification time : Tue Mar 25 21:45:42 2014

@<TRIPOS>MOLECULE
2nz5_226_1_INTS_M
   15     0     9     0     0
SMALL
NO_CHARGES


@<TRIPOS>ATOM
      1 O         -29.7325  -15.8440   17.3600 O.2       1 ALC1        0.0000 
      2 O         -28.9790  -16.7450   18.3890 O.2       7 ALL1        0.0000 
      3 O         -30.4860  -14.9430   16.3310 O.2       4 ALP1        0.0000 
      4 CA        -25.3525  -13.3150   18.8645 C.3       3 GLC5        0.0000 
      5 CA        -26.0690  -15.0670   19.4270 C.3       9 GLL5        0.0000 
      6 CA        -24.6360  -11.5630   18.3020 C.3       6 GLP5        0.0000 
      7 N         -25.1840  -13.1845   19.9925 N.am      2 SEC2        0.0000 
      8 N         -25.2010  -14.1250   18.9710 N.am      8 SEL2        0.0000 
      9 N         -25.1670  -12.2440   21.0140 N.am      5 SEP2        0.0000 
     10 CA        -24.7583  -16.9511   22.5953 C.3       3 GLC5        0.0000 
     11 CA        -26.5620  -17.2080   22.3810 C.3       9 GLL5        0.0000 
     12 CA        -23.0760  -17.2280   23.5490 C.3       6 GLP5        0.0000 
     13 CA        -28.4488  -15.1900   17.3453 C.3       3 GLC5        0.0000 
     14 CA        -28.0270  -16.4370   19.0820 C.3       9 GLL5        0.0000 
     15 CA        -29.3150  -14.4320   15.8350 C.3       6 GLP5        0.0000 
@<TRIPOS>BOND
@<TRIPOS>SUBSTRUCTURE
     1 ALC1        1 GROUP        1 X    ALC  0     ROOT ALC X 1
     2 SEC2        7 GROUP        1 X    SEC  0     **** SEC X 2
     3 GLC5        4 GROUP        1 X    GLC  0     **** GLC X 6
     4 ALP1        3 GROUP        1 Y    ALP  0     ROOT ALP Y 8
     5 SEP2        9 GROUP        1 Y    SEP  0     **** SEP Y 9
     6 GLP5        6 GROUP        1 Y    GLP  0     **** GLP Y 13
     7 ALL1        2 GROUP        1 Z    ALL  0     ROOT ALL Z 15
     8 SEL2        8 GROUP        1 Z    SEL  0     **** SEL Z 16
     9 GLL5        5 GROUP        1 Z    GLL  0     **** GLL Z 20
@<TRIPOS>SET

