#    Name: 2nz5_226_1_ligand
#    Modification time : Tue Mar 25 21:45:42 2014

@<TRIPOS>MOLECULE
2nz5_226_1_ligand
   23    24     1     0     0
SMALL
NO_CHARGES


@<TRIPOS>ATOM
      1 OAB       -24.9350  -15.2860   21.3810 O.3       1 226431      0.0000 
      2 CAM       -25.8830  -15.6490   20.6740 C.ar      1 226431      0.0000 
      3 CAN       -26.7550  -16.6320   21.1300 C.ar      1 226431      0.0000 
      4 CAH       -26.5620  -17.2080   22.3810 C.ar      1 226431      0.0000 
      5 CAI       -27.4390  -18.1880   22.8480 C.ar      1 226431      0.0000 
      6 OAC       -27.2460  -18.7520   24.0680 O.3       1 226431      0.0000 
      7 CAF       -28.5040  -18.5890   22.0490 C.ar      1 226431      0.0000 
      8 CAK       -28.6990  -18.0130   20.7960 C.ar      1 226431      0.0000 
      9 OAE       -29.7270  -18.4450   20.0160 O.3       1 226431      0.0000 
     10 CAO       -27.8270  -17.0300   20.3360 C.ar      1 226431      0.0000 
     11 CAL       -28.0270  -16.4370   19.0820 C.ar      1 226431      0.0000 
     12 OAA       -28.9790  -16.7450   18.3890 O.3       1 226431      0.0000 
     13 CAG       -27.1380  -15.4590   18.6290 C.ar      1 226431      0.0000 
     14 CAJ       -26.0690  -15.0670   19.4270 C.ar      1 226431      0.0000 
     15 OAD       -25.2010  -14.1250   18.9710 O.3       1 226431      0.0000 
     16 H         -25.7691  -16.9115   22.9670 H         1 226431      0.0000 
     17 H         -29.1526  -19.3157   22.3846 H         1 226431      0.0000 
     18 H         -27.2768  -15.0311   17.7053 H         1 226431      0.0000 
     19 H         -24.1725  -15.1599   20.7464 H         1 226431      0.0000 
     20 H         -26.6686  -18.1746   24.6454 H         1 226431      0.0000 
     21 H         -30.0004  -17.6450   19.4820 H         1 226431      0.0000 
     22 H         -29.1286  -15.9579   17.7905 H         1 226431      0.0000 
     23 H         -24.5054  -14.6367   18.4667 H         1 226431      0.0000 
@<TRIPOS>BOND
     1    2    1 1    
     2   19    1 1    
     3    3    2 ar   
     4   14    2 ar   
     5    4    3 ar   
     6   10    3 ar   
     7    5    4 ar   
     8   16    4 1    
     9    6    5 1    
    10    7    5 ar   
    11   20    6 1    
    12    8    7 ar   
    13   17    7 1    
    14    9    8 1    
    15   10    8 ar   
    16   21    9 1    
    17   11   10 ar   
    18   12   11 1    
    19   13   11 ar   
    20   22   12 1    
    21   14   13 ar   
    22   18   13 1    
    23   15   14 1    
    24   23   15 1    
@<TRIPOS>SUBSTRUCTURE
     1 226431      1 GROUP   
@<TRIPOS>SET

