#    Name: 2c9z_QUE_1_INTS_M
#    Modification time : Mon Mar 24 23:23:24 2014

@<TRIPOS>MOLECULE
2c9z_QUE_1_INTS_M
   38     0     9     0     0
SMALL
NO_CHARGES


@<TRIPOS>ATOM
      1 CA          4.7850  -20.3150   23.8185 C.3       3 GLC5        0.0000 
      2 CA          4.2600  -18.1720   23.4850 C.3       9 GLL5        0.0000 
      3 CA          5.3100  -22.4580   24.1520 C.3       6 GLP5        0.0000 
      4 CA          0.4840  -17.3570   25.2680 C.3       3 GLC5        0.0000 
      5 CA          0.5970  -15.5280   24.5640 C.3       9 GLL5        0.0000 
      6 CA          0.3710  -19.1860   25.9720 C.3       6 GLP5        0.0000 
      7 CA         -5.6540  -15.7385   24.3260 C.3       3 GLC5        0.0000 
      8 CA         -3.6070  -14.9990   23.8240 C.3       9 GLL5        0.0000 
      9 CA         -7.7010  -16.4780   24.8280 C.3       6 GLP5        0.0000 
     10 CA         -3.7525  -16.7330   21.5965 C.3       3 GLC5        0.0000 
     11 CA         -2.9910  -16.2200   23.5690 C.3       9 GLL5        0.0000 
     12 CA         -4.5140  -17.2460   19.6240 C.3       6 GLP5        0.0000 
     13 N           3.7830  -13.2200   26.9520 N.am      2 SEC2        0.0000 
     14 N           3.4180  -14.4330   26.6700 N.am      8 SEL2        0.0000 
     15 N           4.1480  -12.0070   27.2340 N.am      5 SEP2        0.0000 
     16 O          -5.1545  -17.1555   23.6915 O.2       1 ALC1        0.0000 
     17 O          -3.7340  -17.2600   23.0900 O.2       7 ALL1        0.0000 
     18 O          -6.5750  -17.0510   24.2930 O.2       4 ALP1        0.0000 
     19 N          -6.0100  -15.2910   22.5340 N.am      2 SEC2        0.0000 
     20 N          -4.9320  -14.8660   23.5910 N.am      8 SEL2        0.0000 
     21 N          -7.0880  -15.7160   21.4770 N.am      5 SEP2        0.0000 
     22 O          -5.7535  -15.9585   23.9420 O.2       1 ALC1        0.0000 
     23 O          -4.9320  -14.8660   23.5910 O.2       7 ALL1        0.0000 
     24 N           4.0105  -20.6100   22.8415 N.am      2 SEC2        0.0000 
     25 N           4.7650  -19.1810   22.7300 N.am      8 SEL2        0.0000 
     26 N           3.2560  -22.0390   22.9530 N.am      5 SEP2        0.0000 
     27 CA          4.7997  -18.5335   25.8676 C.3       3 GLC5        0.0000 
     28 CA          5.0770  -17.5040   24.4080 C.3       9 GLL5        0.0000 
     29 CA          5.0620  -19.4890   27.5960 C.3       6 GLP5        0.0000 
     30 CA          0.0887  -15.7548   26.6527 C.3       3 GLC5        0.0000 
     31 CA          1.3120  -14.7930   25.5350 C.3       9 GLL5        0.0000 
     32 CA         -0.7770  -16.3490   28.2560 C.3       6 GLP5        0.0000 
     33 CA         -3.4693  -13.1590   22.6687 C.3       3 GLC5        0.0000 
     34 CA         -3.7000  -11.8560   21.2650 C.3       6 GLP5        0.0000 
     35 CA         -2.8173  -18.2242   24.4430 C.3       3 GLC5        0.0000 
     36 CA         -3.3270  -20.1500   25.1930 C.3       6 GLP5        0.0000 
     37 CA         -1.4450  -15.7874   22.0404 C.3       3 GLC5        0.0000 
     38 CA         -0.7730  -15.5460   20.2690 C.3       6 GLP5        0.0000 
@<TRIPOS>BOND
@<TRIPOS>SUBSTRUCTURE
     1 ALC1       16 GROUP        1 X    ALC  0     ROOT ALC X 1
     2 SEC2       13 GROUP        1 X    SEC  0     **** SEC X 2
     3 GLC5        1 GROUP        1 X    GLC  0     **** GLC X 6
     4 ALP1       18 GROUP        1 Y    ALP  0     ROOT ALP Y 8
     5 SEP2       15 GROUP        1 Y    SEP  0     **** SEP Y 9
     6 GLP5        3 GROUP        1 Y    GLP  0     **** GLP Y 13
     7 ALL1       17 GROUP        1 Z    ALL  0     ROOT ALL Z 15
     8 SEL2       14 GROUP        1 Z    SEL  0     **** SEL Z 16
     9 GLL5        2 GROUP        1 Z    GLL  0     **** GLL Z 20
@<TRIPOS>SET

