#    Name: 2c9z_QUE_1_ligand
#    Modification time : Mon Mar 24 23:23:24 2014

@<TRIPOS>MOLECULE
2c9z_QUE_1_ligand
   32    34     1     0     0
SMALL
NO_CHARGES


@<TRIPOS>ATOM
      1 C1          5.0770  -17.5040   24.4080 C.ar      1 QUE1458     0.0000 
      2 C2          4.5530  -16.4640   25.1790 C.ar      1 QUE1458     0.0000 
      3 C3          3.2040  -16.1240   25.0170 C.ar      1 QUE1458     0.0000 
      4 C4          2.3810  -16.7870   24.0850 C.ar      1 QUE1458     0.0000 
      5 C5          2.9260  -17.8170   23.3200 C.ar      1 QUE1458     0.0000 
      6 C6          4.2600  -18.1720   23.4850 C.ar      1 QUE1458     0.0000 
      7 C9          2.6480  -15.0990   25.7600 C.2       1 QUE1458     0.0000 
      8 C10         1.3120  -14.7930   25.5350 C.2       1 QUE1458     0.0000 
      9 C11         0.5970  -15.5280   24.5640 C.2       1 QUE1458     0.0000 
     10 C14        -0.8620  -15.2980   24.2920 C.ar      1 QUE1458     0.0000 
     11 C15        -1.5020  -14.0810   24.5550 C.ar      1 QUE1458     0.0000 
     12 C16        -2.8700  -13.9250   24.3210 C.ar      1 QUE1458     0.0000 
     13 C17        -3.6070  -14.9990   23.8240 C.ar      1 QUE1458     0.0000 
     14 C18        -2.9910  -16.2200   23.5690 C.ar      1 QUE1458     0.0000 
     15 C19        -1.6240  -16.3770   23.8170 C.ar      1 QUE1458     0.0000 
     16 O12         1.1650  -16.4660   23.9270 O.3       1 QUE1458     0.0000 
     17 O13         3.4180  -14.4330   26.6700 O.2       1 QUE1458     0.0000 
     18 O23        -3.7340  -17.2600   23.0900 O.3       1 QUE1458     0.0000 
     19 O24        -4.9320  -14.8660   23.5910 O.3       1 QUE1458     0.0000 
     20 O27         0.7480  -13.7820   26.2600 O.3       1 QUE1458     0.0000 
     21 O29         4.7650  -19.1810   22.7300 O.3       1 QUE1458     0.0000 
     22 O30         5.3350  -15.8070   26.0970 O.3       1 QUE1458     0.0000 
     23 H           6.0583  -17.7806   24.5151 H         1 QUE1458     0.0000 
     24 H           2.3414  -18.3120   22.6357 H         1 QUE1458     0.0000 
     25 H          -0.9543  -13.2893   24.9268 H         1 QUE1458     0.0000 
     26 H          -3.3262  -13.0300   24.5130 H         1 QUE1458     0.0000 
     27 H          -1.1731  -17.2847   23.6517 H         1 QUE1458     0.0000 
     28 H          -4.6734  -17.0552   23.3651 H         1 QUE1458     0.0000 
     29 H          -5.3199  -15.7680   23.7810 H         1 QUE1458     0.0000 
     30 H           1.5206  -13.2501   26.6067 H         1 QUE1458     0.0000 
     31 H           5.7097  -19.2881   23.0399 H         1 QUE1458     0.0000 
     32 H           4.9499  -14.8858   26.1527 H         1 QUE1458     0.0000 
@<TRIPOS>BOND
     1    2    1 ar   
     2    6    1 ar   
     3   23    1 1    
     4    3    2 ar   
     5   22    2 1    
     6    4    3 ar   
     7    7    3 1    
     8    5    4 ar   
     9   16    4 1    
    10    6    5 ar   
    11   24    5 1    
    12   21    6 1    
    13    8    7 1    
    14   17    7 2    
    15    9    8 2    
    16   20    8 1    
    17   10    9 1    
    18   16    9 1    
    19   11   10 ar   
    20   15   10 ar   
    21   12   11 ar   
    22   25   11 1    
    23   13   12 ar   
    24   26   12 1    
    25   14   13 ar   
    26   19   13 1    
    27   15   14 ar   
    28   18   14 1    
    29   27   15 1    
    30   28   18 1    
    31   29   19 1    
    32   30   20 1    
    33   31   21 1    
    34   32   22 1    
@<TRIPOS>SUBSTRUCTURE
     1 QUE1458     1 GROUP   
@<TRIPOS>SET

