#    Name: 4jay_FAD_5_INTS_M
#    Modification time : Tue Mar 25 05:41:58 2014

@<TRIPOS>MOLECULE
4jay_FAD_5_INTS_M
  126     0     9     0     0
SMALL
NO_CHARGES


@<TRIPOS>ATOM
      1 N          -1.2155   37.4340   13.3575 N.am      2 SEC2        0.0000 
      2 N          -0.1140   36.6710   13.6240 N.am      8 SEL2        0.0000 
      3 N          -2.3170   38.1970   13.0910 N.am      5 SEP2        0.0000 
      4 N           2.8460   34.3150   12.7635 N.am      2 SEC2        0.0000 
      5 N           1.8430   35.1600   13.0190 N.am      8 SEL2        0.0000 
      6 N           3.8490   33.4700   12.5080 N.am      5 SEP2        0.0000 
      7 N           1.7290   35.8055   11.7900 N.am      2 SEC2        0.0000 
      8 N           1.6150   36.4510   10.5610 N.am      5 SEP2        0.0000 
      9 CA         -1.8335   36.2915   15.6560 C.3       3 GLC5        0.0000 
     10 CA         -0.0940   35.2440   16.2530 C.3       9 GLL5        0.0000 
     11 CA         -3.5730   37.3390   15.0590 C.3       6 GLP5        0.0000 
     12 CA          0.8165   37.2845   18.9420 C.3       3 GLC5        0.0000 
     13 CA          1.6250   35.6050   18.1340 C.3       9 GLL5        0.0000 
     14 CA          0.0080   38.9640   19.7500 C.3       6 GLP5        0.0000 
     15 O           4.6220   34.8325   17.7190 O.2       1 ALC1        0.0000 
     16 O           3.7430   34.8210   18.7600 O.2       7 ALL1        0.0000 
     17 O           5.5010   34.8440   16.6780 O.2       4 ALP1        0.0000 
     18 CA          1.2505   32.4050   19.5355 C.3       3 GLC5        0.0000 
     19 CA          2.1310   33.3250   17.9560 C.3       9 GLL5        0.0000 
     20 CA          0.3700   31.4850   21.1150 C.3       6 GLP5        0.0000 
     21 CA          1.1755   30.0285   15.8165 C.3       3 GLC5        0.0000 
     22 CA          3.2730   30.2200   16.4350 C.3       9 GLL5        0.0000 
     23 CA         -0.9220   29.8370   15.1980 C.3       6 GLP5        0.0000 
     24 CA          5.2900   28.9305   15.1345 C.3       3 GLC5        0.0000 
     25 CA          3.8190   28.9020   16.7560 C.3       9 GLL5        0.0000 
     26 CA          6.7610   28.9590   13.5130 C.3       6 GLP5        0.0000 
     27 CA          3.1590   27.0335   17.4185 C.3       3 GLC5        0.0000 
     28 CA          2.4990   25.1650   18.0810 C.3       6 GLP5        0.0000 
     29 O           4.4405   26.5460   15.9355 O.2       1 ALC1        0.0000 
     30 O           4.0990   27.9720   15.8120 O.2       7 ALL1        0.0000 
     31 O           4.7820   25.1200   16.0590 O.2       4 ALP1        0.0000 
     32 N           4.3965   27.2070   18.4475 N.am      2 SEC2        0.0000 
     33 N           4.0230   28.6540   18.0720 N.am      8 SEL2        0.0000 
     34 N           4.7700   25.7600   18.8230 N.am      5 SEP2        0.0000 
     35 CA          5.2060   30.4560   17.8430 C.3       3 GLC5        0.0000 
     36 CA          3.8030   29.5140   19.0860 C.3       9 GLL5        0.0000 
     37 CA          6.6090   31.3980   16.6000 C.3       6 GLP5        0.0000 
     38 CA          1.9960   29.7485   19.6090 C.3       3 GLC5        0.0000 
     39 CA          0.1890   29.9830   20.1320 C.3       6 GLP5        0.0000 
     40 CA          5.1330   28.0910   19.6715 C.3       3 GLC5        0.0000 
     41 CA          6.4630   26.6680   20.2570 C.3       6 GLP5        0.0000 
     42 CA          2.2445   27.9355   19.2750 C.3       3 GLC5        0.0000 
     43 CA          0.6860   26.3570   19.4640 C.3       6 GLP5        0.0000 
     44 CA          1.6160   30.5460   18.8530 C.3       3 GLC5        0.0000 
     45 CA          3.0430   31.1090   17.5740 C.3       9 GLL5        0.0000 
     46 N          -8.7625   34.9905   15.0025 N.am      2 SEC2        0.0000 
     47 N          -9.1260   34.8670   13.4510 N.am      8 SEL2        0.0000 
     48 N          -8.3990   35.1140   16.5540 N.am      5 SEP2        0.0000 
     49 N          -9.2320   34.2305   15.6655 N.am      2 SEC2        0.0000 
     50 N         -10.0650   33.3470   14.7770 N.am      8 SEL2        0.0000 
     51 N         -10.9395   32.0440   15.0860 N.am      2 SEC2        0.0000 
     52 N         -11.8140   30.7410   15.3950 N.am      5 SEP2        0.0000 
     53 O         -12.3740   33.2605   13.5710 O.2       1 ALC1        0.0000 
     54 O         -11.2250   33.9430   12.9840 O.2       7 ALL1        0.0000 
     55 O         -13.5230   32.5780   14.1580 O.2       4 ALP1        0.0000 
     56 N         -13.0135   34.2965    9.9470 N.am      2 SEC2        0.0000 
     57 N         -12.4630   34.5160   11.1070 N.am      8 SEL2        0.0000 
     58 N         -13.5640   34.0770    8.7870 N.am      5 SEP2        0.0000 
     59 N         -12.1025   34.9250    9.6445 N.am      2 SEC2        0.0000 
     60 N         -11.7420   35.3340    8.1820 N.am      5 SEP2        0.0000 
     61 N         -11.0820   35.8155    9.2685 N.am      2 SEC2        0.0000 
     62 N         -10.4220   36.2970   10.3550 N.am      8 SEL2        0.0000 
     63 CA        -11.4290   38.0995    7.7425 C.3       3 GLC5        0.0000 
     64 CA         -9.5650   37.8820    8.8140 C.3       9 GLL5        0.0000 
     65 CA        -13.2930   38.3170    6.6710 C.3       6 GLP5        0.0000 
     66 CA         -7.5380   40.3725    5.6480 C.3       3 GLC5        0.0000 
     67 CA         -8.6620   39.5350    7.2130 C.3       9 GLL5        0.0000 
     68 CA         -6.4140   41.2100    4.0830 C.3       6 GLP5        0.0000 
     69 CA         -4.2430   40.3550    8.3445 C.3       3 GLC5        0.0000 
     70 CA         -6.2270   39.7210    8.8490 C.3       9 GLL5        0.0000 
     71 CA         -2.2590   40.9890    7.8400 C.3       6 GLP5        0.0000 
     72 CA         -4.5775   38.4630    9.2685 C.3       3 GLC5        0.0000 
     73 CA         -2.9280   37.2050    9.6880 C.3       6 GLP5        0.0000 
     74 CA         -5.7730   40.4370    6.9755 C.3       3 GLC5        0.0000 
     75 CA         -5.3190   41.1530    5.1020 C.3       6 GLP5        0.0000 
     76 CA         -5.0800   37.6460   10.0585 C.3       3 GLC5        0.0000 
     77 CA         -7.2320   38.0870   10.4290 C.3       9 GLL5        0.0000 
     78 CA         -4.3760   36.3930   11.0535 C.3       3 GLC5        0.0000 
     79 CA         -5.8240   35.5810   12.4190 C.3       9 GLL5        0.0000 
     80 O          -4.6035   35.6165   10.6905 O.2       1 ALC1        0.0000 
     81 O          -5.9620   35.2730   11.0570 O.2       7 ALL1        0.0000 
     82 O          -3.2450   35.9600   10.3240 O.2       4 ALP1        0.0000 
     83 CA         -7.0920   33.3480   11.6395 C.3       3 GLC5        0.0000 
     84 CA         -5.8310   34.2440   13.1460 C.3       9 GLL5        0.0000 
     85 CA         -8.3530   32.4520   10.1330 C.3       6 GLP5        0.0000 
     86 CA         -3.3950   35.7050   14.0665 C.3       3 GLC5        0.0000 
     87 CA         -3.2170   34.0710   13.0740 C.3       9 GLL5        0.0000 
     88 CA         -2.0105   32.6205   13.7680 C.3       3 GLC5        0.0000 
     89 CA         -0.8040   31.1700   14.4620 C.3       6 GLP5        0.0000 
     90 N           0.9275   33.1350   10.8210 N.am      2 SEC2        0.0000 
     91 N          -0.0940   32.4070   11.6910 N.am      8 SEL2        0.0000 
     92 N           1.9490   33.8630    9.9510 N.am      5 SEP2        0.0000 
     93 N          -0.7750   31.5095   10.7060 N.am      2 SEC2        0.0000 
     94 N          -1.4560   30.6120    9.7210 N.am      5 SEP2        0.0000 
     95 N           0.3080   31.1150   11.5625 N.am      2 SEC2        0.0000 
     96 N           0.7100   29.8230   11.4340 N.am      5 SEP2        0.0000 
     97 N           0.5215   34.3490   10.5175 N.am      2 SEC2        0.0000 
     98 N          -0.9060   34.8350   11.0840 N.am      8 SEL2        0.0000 
     99 N          -0.8610   36.2420   10.9510 N.am      2 SEC2        0.0000 
    100 N          -0.8160   37.6490   10.8180 N.am      5 SEP2        0.0000 
    101 N          -2.0755   35.3975   10.7040 N.am      2 SEC2        0.0000 
    102 N          -3.2450   35.9600   10.3240 N.am      5 SEP2        0.0000 
    103 CA          4.9518   30.8665   16.8424 C.3       3 GLC5        0.0000 
    104 CA         -9.3195   39.4502   10.3120 C.3       3 GLC5        0.0000 
    105 CA         -9.4290   37.1230    9.9860 C.3       9 GLL5        0.0000 
    106 CA         -9.1420   41.3980   11.2240 C.3       6 GLP5        0.0000 
    107 CA         -7.5648   37.6010    7.4705 C.3       3 GLC5        0.0000 
    108 CA         -8.5570   38.7330    8.4410 C.3       9 GLL5        0.0000 
    109 CA         -6.5200   36.0680    7.1140 C.3       6 GLP5        0.0000 
    110 CA         -8.8758   40.2660    9.5255 C.3       3 GLC5        0.0000 
    111 CA         -6.1120   40.6960   10.3083 C.3       3 GLC5        0.0000 
    112 CA         -7.3470   38.8330    9.2600 C.3       9 GLL5        0.0000 
    113 CA         -5.4370   42.1150   11.5620 C.3       6 GLP5        0.0000 
    114 CA         -7.9645   40.3375   10.1393 C.3       3 GLC5        0.0000 
    115 CA         -6.7647   37.3750    8.4279 C.3       3 GLC5        0.0000 
    116 CA         -8.4333   39.5273   10.9243 C.3       3 GLC5        0.0000 
    117 CA         -8.1855   36.2556    8.9060 C.3       3 GLC5        0.0000 
    118 CA         -8.2170   37.2260   10.8200 C.3       9 GLL5        0.0000 
    119 CA         -7.5140   35.1470    7.7020 C.3       6 GLP5        0.0000 
    120 CA         -4.8375   36.2391   13.9765 C.3       3 GLC5        0.0000 
    121 CA         -6.9220   36.4880   12.8650 C.3       9 GLL5        0.0000 
    122 CA         -6.3262   32.4275   13.8012 C.3       3 GLC5        0.0000 
    123 CA         -7.4520   30.9840   14.6920 C.3       6 GLP5        0.0000 
    124 CA         -3.1558   33.1968   10.9108 C.3       3 GLC5        0.0000 
    125 CA         -4.5700   33.4980   12.6750 C.3       9 GLL5        0.0000 
    126 CA         -2.4180   32.6090    8.9470 C.3       6 GLP5        0.0000 
@<TRIPOS>BOND
@<TRIPOS>SUBSTRUCTURE
     1 ALC1       15 GROUP        1 X    ALC  0     ROOT ALC X 1
     2 SEC2        1 GROUP        1 X    SEC  0     **** SEC X 2
     3 GLC5        9 GROUP        1 X    GLC  0     **** GLC X 6
     4 ALP1       17 GROUP        1 Y    ALP  0     ROOT ALP Y 8
     5 SEP2        3 GROUP        1 Y    SEP  0     **** SEP Y 9
     6 GLP5       11 GROUP        1 Y    GLP  0     **** GLP Y 13
     7 ALL1       16 GROUP        1 Z    ALL  0     ROOT ALL Z 15
     8 SEL2        2 GROUP        1 Z    SEL  0     **** SEL Z 16
     9 GLL5       10 GROUP        1 Z    GLL  0     **** GLL Z 20
@<TRIPOS>SET

