#    Name: 4jay_FAD_5_ligand
#    Modification time : Tue Mar 25 05:41:58 2014

@<TRIPOS>MOLECULE
4jay_FAD_5_ligand
   84    89     1     0     0
SMALL
NO_CHARGES


@<TRIPOS>ATOM
      1 PA          0.5950   35.3850   13.8020 P.3       1 FAD402      0.0000 
      2 O1A        -0.1140   36.6710   13.6240 O.co2     1 FAD402      0.0000 
      3 O2A         1.8430   35.1600   13.0190 O.co2     1 FAD402      0.0000 
      4 O5B         0.9560   35.1930   15.3370 O.3       1 FAD402      0.0000 
      5 C5B        -0.0940   35.2440   16.2530 C.3       1 FAD402      0.0000 
      6 C4B         0.3700   34.8730   17.6400 C.3       1 FAD402      0.0000 
      7 O4B         0.7360   33.4870   17.6390 O.3       1 FAD402      0.0000 
      8 C3B         1.6250   35.6050   18.1340 C.3       1 FAD402      0.0000 
      9 O3B         1.5880   35.6430   19.5800 O.3       1 FAD402      0.0000 
     10 C2B         2.7450   34.6880   17.7800 C.3       1 FAD402      0.0000 
     11 O2B         3.7430   34.8210   18.7600 O.3       1 FAD402      0.0000 
     12 C1B         2.1310   33.3250   17.9560 C.3       1 FAD402      0.0000 
     13 N9A         2.5530   32.2340   17.0600 N.pl3     1 FAD402      0.0000 
     14 C8A         2.4270   32.1000   15.7600 C.2       1 FAD402      0.0000 
     15 N7A         2.9200   30.8920   15.3640 N.2       1 FAD402      0.0000 
     16 C5A         3.2730   30.2200   16.4350 C.ar      1 FAD402      0.0000 
     17 C6A         3.8190   28.9020   16.7560 C.ar      1 FAD402      0.0000 
     18 N6A         4.0990   27.9720   15.8120 N.pl3     1 FAD402      0.0000 
     19 N1A         4.0230   28.6540   18.0720 N.ar      1 FAD402      0.0000 
     20 C2A         3.8030   29.5140   19.0860 C.ar      1 FAD402      0.0000 
     21 N3A         3.2990   30.7200   18.8630 N.ar      1 FAD402      0.0000 
     22 C4A         3.0430   31.1090   17.5740 C.ar      1 FAD402      0.0000 
     23 N1         -9.1260   34.8670   13.4510 N.2       1 FAD402      0.0000 
     24 C2        -10.1420   34.0400   13.7450 C.2       1 FAD402      0.0000 
     25 O2        -10.0650   33.3470   14.7770 O.2       1 FAD402      0.0000 
     26 N3        -11.2250   33.9430   12.9840 N.am      1 FAD402      0.0000 
     27 C4        -11.4220   34.6380   11.8380 C.2       1 FAD402      0.0000 
     28 O4        -12.4630   34.5160   11.1070 O.2       1 FAD402      0.0000 
     29 C4X       -10.3280   35.5360   11.4460 C.2       1 FAD402      0.0000 
     30 N5        -10.4220   36.2970   10.3550 N.2       1 FAD402      0.0000 
     31 C5X        -9.4290   37.1230    9.9860 C.ar      1 FAD402      0.0000 
     32 C6         -9.5650   37.8820    8.8140 C.ar      1 FAD402      0.0000 
     33 C7         -8.5570   38.7330    8.4410 C.ar      1 FAD402      0.0000 
     34 C7M        -8.6620   39.5350    7.2130 C.3       1 FAD402      0.0000 
     35 C8         -7.3470   38.8330    9.2600 C.ar      1 FAD402      0.0000 
     36 C8M        -6.2270   39.7210    8.8490 C.3       1 FAD402      0.0000 
     37 C9         -7.2320   38.0870   10.4290 C.ar      1 FAD402      0.0000 
     38 C9A        -8.2170   37.2260   10.8200 C.ar      1 FAD402      0.0000 
     39 N10        -8.0980   36.4400   11.9920 N.pl3     1 FAD402      0.0000 
     40 C10        -9.1540   35.6170   12.3400 C.2       1 FAD402      0.0000 
     41 C1'        -6.9220   36.4880   12.8650 C.3       1 FAD402      0.0000 
     42 C2'        -5.8240   35.5810   12.4190 C.3       1 FAD402      0.0000 
     43 O2'        -5.9620   35.2730   11.0570 O.3       1 FAD402      0.0000 
     44 C3'        -5.8310   34.2440   13.1460 C.3       1 FAD402      0.0000 
     45 O3'        -5.9750   34.3770   14.5900 O.3       1 FAD402      0.0000 
     46 C4'        -4.5700   33.4980   12.6750 C.3       1 FAD402      0.0000 
     47 O4'        -4.6120   32.1760   13.1680 O.3       1 FAD402      0.0000 
     48 C5'        -3.2170   34.0710   13.0740 C.3       1 FAD402      0.0000 
     49 O5'        -2.2440   33.2620   12.4160 O.3       1 FAD402      0.0000 
     50 P          -0.7550   33.7130   12.0550 P.3       1 FAD402      0.0000 
     51 O1P        -0.0940   32.4070   11.6910 O.co2     1 FAD402      0.0000 
     52 O2P        -0.9060   34.8350   11.0840 O.co2     1 FAD402      0.0000 
     53 O3P        -0.3650   34.1680   13.5310 O.3       1 FAD402      0.0000 
     54 H          -0.9180   34.5535   15.9815 H         1 FAD402      0.0000 
     55 H          -0.5469   36.2544   16.3123 H         1 FAD402      0.0000 
     56 H          -0.4190   35.0369   18.3516 H         1 FAD402      0.0000 
     57 H           1.7197   36.5118   17.6850 H         1 FAD402      0.0000 
     58 H           3.0472   34.8244   16.8123 H         1 FAD402      0.0000 
     59 H           2.2046   33.0171   18.9842 H         1 FAD402      0.0000 
     60 H           2.0398   32.7548   15.1407 H         1 FAD402      0.0000 
     61 H           3.9445   28.2477   14.8633 H         1 FAD402      0.0000 
     62 H           4.4355   27.0920   16.1474 H         1 FAD402      0.0000 
     63 H           4.0384   29.2143   20.0680 H         1 FAD402      0.0000 
     64 H         -12.0062   33.2694   13.2885 H         1 FAD402      0.0000 
     65 H         -10.4174   37.7906    8.2506 H         1 FAD402      0.0000 
     66 H          -6.3741   38.1955   11.0089 H         1 FAD402      0.0000 
     67 H          -7.2101   36.2186   13.9019 H         1 FAD402      0.0000 
     68 H          -6.5314   37.5251   12.9158 H         1 FAD402      0.0000 
     69 H          -4.8656   36.0487   12.6084 H         1 FAD402      0.0000 
     70 H          -6.6909   33.6779   12.7255 H         1 FAD402      0.0000 
     71 H          -4.6004   33.4591   11.5705 H         1 FAD402      0.0000 
     72 H          -3.1314   34.0172   14.1502 H         1 FAD402      0.0000 
     73 H          -3.1774   35.1013   12.7493 H         1 FAD402      0.0000 
     74 H          -7.8549   40.1089    7.0741 H         1 FAD402      0.0000 
     75 H          -8.7559   38.9596    6.4005 H         1 FAD402      0.0000 
     76 H          -9.4547   40.1442    7.2339 H         1 FAD402      0.0000 
     77 H          -5.4688   39.6881    9.5002 H         1 FAD402      0.0000 
     78 H          -5.8577   39.4639    7.9559 H         1 FAD402      0.0000 
     79 H          -6.5154   40.6762    8.7830 H         1 FAD402      0.0000 
     80 H           2.5118   35.3921   19.8691 H         1 FAD402      0.0000 
     81 H           4.6010   34.8773   18.2495 H         1 FAD402      0.0000 
     82 H          -5.0612   35.4481   10.6596 H         1 FAD402      0.0000 
     83 H          -5.4578   33.6117   14.9731 H         1 FAD402      0.0000 
     84 H          -3.7395   31.7704   12.8955 H         1 FAD402      0.0000 
@<TRIPOS>BOND
     1    2    1 ar   
     2    3    1 ar   
     3    4    1 1    
     4   53    1 1    
     5    5    4 1    
     6    6    5 1    
     7   54    5 1    
     8   55    5 1    
     9    7    6 1    
    10    8    6 1    
    11   56    6 1    
    12   12    7 1    
    13    9    8 1    
    14   10    8 1    
    15   57    8 1    
    16   80    9 1    
    17   11   10 1    
    18   12   10 1    
    19   58   10 1    
    20   81   11 1    
    21   13   12 1    
    22   59   12 1    
    23   14   13 1    
    24   22   13 1    
    25   15   14 2    
    26   60   14 1    
    27   16   15 1    
    28   17   16 ar   
    29   22   16 ar   
    30   18   17 1    
    31   19   17 ar   
    32   61   18 1    
    33   62   18 1    
    34   20   19 ar   
    35   21   20 ar   
    36   63   20 1    
    37   22   21 ar   
    38   24   23 1    
    39   40   23 2    
    40   25   24 2    
    41   26   24 am   
    42   27   26 am   
    43   64   26 1    
    44   28   27 2    
    45   29   27 1    
    46   30   29 2    
    47   40   29 1    
    48   31   30 1    
    49   32   31 ar   
    50   38   31 ar   
    51   33   32 ar   
    52   65   32 1    
    53   34   33 1    
    54   35   33 ar   
    55   74   34 1    
    56   75   34 1    
    57   76   34 1    
    58   36   35 1    
    59   37   35 ar   
    60   77   36 1    
    61   78   36 1    
    62   79   36 1    
    63   38   37 ar   
    64   66   37 1    
    65   39   38 1    
    66   40   39 1    
    67   41   39 1    
    68   42   41 1    
    69   67   41 1    
    70   68   41 1    
    71   43   42 1    
    72   44   42 1    
    73   69   42 1    
    74   82   43 1    
    75   45   44 1    
    76   46   44 1    
    77   70   44 1    
    78   83   45 1    
    79   47   46 1    
    80   48   46 1    
    81   71   46 1    
    82   84   47 1    
    83   49   48 1    
    84   72   48 1    
    85   73   48 1    
    86   50   49 1    
    87   51   50 ar   
    88   52   50 ar   
    89   53   50 1    
@<TRIPOS>SUBSTRUCTURE
     1 FAD402      1 GROUP   
@<TRIPOS>SET

