#    Name: 1hj1_AOE_1_INTS_M
#    Modification time : Tue Mar 25 05:32:00 2014

@<TRIPOS>MOLECULE
1hj1_AOE_1_INTS_M
  117     0     9     0     0
SMALL
NO_CHARGES


@<TRIPOS>ATOM
      1 CA          3.1080   -0.4500   41.5215 C.3       3 GLC5        0.0000 
      2 CA          2.2900   -0.1070   43.3310 C.3       9 GLL5        0.0000 
      3 CA          3.9260   -0.7930   39.7120 C.3       6 GLP5        0.0000 
      4 CA          3.5215   -1.7995   43.8535 C.3       3 GLC5        0.0000 
      5 CA          4.7530   -3.4920   44.3760 C.3       6 GLP5        0.0000 
      6 CA          4.6860    0.1900   42.4930 C.3       3 GLC5        0.0000 
      7 CA          3.3290    0.4750   44.0560 C.3       9 GLL5        0.0000 
      8 CA          6.0430   -0.0950   40.9300 C.3       6 GLP5        0.0000 
      9 CA          4.9635   -0.6660   44.3840 C.3       3 GLC5        0.0000 
     10 CA          6.5980   -1.8070   44.7120 C.3       6 GLP5        0.0000 
     11 N           5.4005    1.1785   46.7735 N.am      2 SEC2        0.0000 
     12 N           4.0690    1.7660   45.9860 N.am      8 SEL2        0.0000 
     13 N           6.7320    0.5910   47.5610 N.am      5 SEP2        0.0000 
     14 N           5.4425    2.4590   45.7300 N.am      2 SEC2        0.0000 
     15 N           6.8160    3.1520   45.4740 N.am      5 SEP2        0.0000 
     16 O           3.7210    2.7485   46.7500 O.2       1 ALC1        0.0000 
     17 O           4.0690    1.7660   45.9860 O.2       7 ALL1        0.0000 
     18 O           3.3730    3.7310   47.5140 O.2       4 ALP1        0.0000 
     19 CA          1.7770    1.2915   47.7515 C.3       3 GLC5        0.0000 
     20 CA          1.7850    1.1960   45.6750 C.3       9 GLL5        0.0000 
     21 CA          1.7690    1.3870   49.8280 C.3       6 GLP5        0.0000 
     22 CA          1.8365    2.9025   44.2815 C.3       3 GLC5        0.0000 
     23 CA          1.8880    4.6090   42.8880 C.3       6 GLP5        0.0000 
     24 CA         -0.8730    2.8785   45.7790 C.3       3 GLC5        0.0000 
     25 CA         -0.6650    0.7330   45.6080 C.3       9 GLL5        0.0000 
     26 CA         -1.0810    5.0240   45.9500 C.3       6 GLP5        0.0000 
     27 CA          0.5250   -0.9205   46.0770 C.3       3 GLC5        0.0000 
     28 CA          1.7150   -2.5740   46.5460 C.3       6 GLP5        0.0000 
     29 CA          0.1610   -1.7510   45.1775 C.3       3 GLC5        0.0000 
     30 CA         -1.3930   -0.9280   43.8090 C.3       9 GLL5        0.0000 
     31 CA          1.4405   -3.6695   42.1050 C.3       3 GLC5        0.0000 
     32 CA          0.2460   -1.8700   42.1350 C.3       9 GLL5        0.0000 
     33 CA          2.6350   -5.4690   42.0750 C.3       6 GLP5        0.0000 
     34 CA         -1.0630   -0.4150   40.4675 C.3       3 GLC5        0.0000 
     35 CA         -0.8750   -2.3860   41.1980 C.3       9 GLL5        0.0000 
     36 CA         -1.2510    1.5560   39.7370 C.3       6 GLP5        0.0000 
     37 CA         -1.6760   -2.4660   39.2160 C.3       3 GLC5        0.0000 
     38 CA         -2.4770   -2.5460   37.2340 C.3       6 GLP5        0.0000 
     39 CA         -1.8825    0.1525   41.2610 C.3       3 GLC5        0.0000 
     40 CA         -2.5140   -1.2510   42.7850 C.3       9 GLL5        0.0000 
     41 CA         -3.4440   -2.3975   45.5280 C.3       3 GLC5        0.0000 
     42 CA         -3.8580   -1.6880   43.4380 C.3       9 GLL5        0.0000 
     43 CA         -3.0300   -3.1070   47.6180 C.3       6 GLP5        0.0000 
     44 CA         -5.3515   -0.7195   41.3625 C.3       3 GLC5        0.0000 
     45 CA         -4.5370   -2.5090   42.3220 C.3       9 GLL5        0.0000 
     46 CA         -6.1660    1.0700   40.4030 C.3       6 GLP5        0.0000 
     47 CA         -2.9680   -2.6370   39.2355 C.3       3 GLC5        0.0000 
     48 CA         -3.4590   -2.7280   41.2370 C.3       9 GLL5        0.0000 
     49 CA         -3.2750   -4.6510   43.9145 C.3       3 GLC5        0.0000 
     50 CA         -1.8840   -3.6820   43.0430 C.3       9 GLL5        0.0000 
     51 CA         -4.6660   -5.6200   44.7860 C.3       6 GLP5        0.0000 
     52 CA         -1.3410   -4.7845   41.3440 C.3       3 GLC5        0.0000 
     53 CA         -0.7980   -5.8870   39.6450 C.3       6 GLP5        0.0000 
     54 CA         -1.4620   -5.2440   44.2295 C.3       3 GLC5        0.0000 
     55 CA         -1.0400   -6.8060   45.4160 C.3       6 GLP5        0.0000 
     56 N          -4.8890   -4.4470   40.6005 N.am      2 SEC2        0.0000 
     57 N          -3.5060   -4.0460   40.7800 N.am      8 SEL2        0.0000 
     58 N          -6.2720   -4.8480   40.4210 N.am      5 SEP2        0.0000 
     59 CA         -1.5665    1.5340   41.6535 C.3       3 GLC5        0.0000 
     60 CA         -1.8820    1.5120   43.5700 C.3       9 GLL5        0.0000 
     61 CA         -1.9350    4.5995   41.7305 C.3       3 GLC5        0.0000 
     62 CA         -3.0730    3.6560   43.2140 C.3       9 GLL5        0.0000 
     63 CA         -0.7970    5.5430   40.2470 C.3       6 GLP5        0.0000 
     64 CA         -2.1620    2.6060   41.4755 C.3       3 GLC5        0.0000 
     65 CA         -4.0085    2.8050   41.6940 C.3       3 GLC5        0.0000 
     66 CA         -4.9440    1.9540   40.1740 C.3       6 GLP5        0.0000 
     67 CA         -6.0715    3.2780   42.3665 C.3       3 GLC5        0.0000 
     68 CA         -5.1880    4.9590   43.1380 C.3       9 GLL5        0.0000 
     69 CA         -6.9550    1.5970   41.5950 C.3       6 GLP5        0.0000 
     70 CA         -3.1015    7.9255   39.6790 C.3       3 GLC5        0.0000 
     71 CA         -3.9770    9.1950   40.7320 C.3       9 GLL5        0.0000 
     72 CA         -2.2260    6.6560   38.6260 C.3       6 GLP5        0.0000 
     73 CA         -1.9085    8.7455   39.5140 C.3       3 GLC5        0.0000 
     74 CA         -2.6770   10.0360   40.7330 C.3       9 GLL5        0.0000 
     75 CA         -1.1400    7.4550   38.2950 C.3       6 GLP5        0.0000 
     76 CA         -1.8130   12.8185   36.2985 C.3       3 GLC5        0.0000 
     77 CA         -2.2370   12.9290   38.2790 C.3       9 GLL5        0.0000 
     78 CA         -1.3890   12.7080   34.3180 C.3       6 GLP5        0.0000 
     79 CA         -0.8460   10.4960   41.7640 C.3       3 GLC5        0.0000 
     80 CA         -0.9010   12.2150   40.3270 C.3       9 GLL5        0.0000 
     81 CA         -0.7910    8.7770   43.2010 C.3       6 GLP5        0.0000 
     82 CA          2.8680   13.3450   38.9330 C.3       3 GLC5        0.0000 
     83 CA          1.5140   12.8320   40.3450 C.3       9 GLL5        0.0000 
     84 CA          4.2220   13.8580   37.5210 C.3       6 GLP5        0.0000 
     85 CA          3.8635   10.7935   41.1970 C.3       3 GLC5        0.0000 
     86 CA          2.1970   11.9740   41.4240 C.3       9 GLL5        0.0000 
     87 CA          5.5300    9.6130   40.9700 C.3       6 GLP5        0.0000 
     88 CA          2.2950   10.2765   40.0840 C.3       3 GLC5        0.0000 
     89 CA          2.3930    8.5790   38.7440 C.3       6 GLP5        0.0000 
     90 CA          1.0790    0.8140   41.6923 C.3       3 GLC5        0.0000 
     91 CA          0.5330    1.7130   39.8300 C.3       6 GLP5        0.0000 
     92 CA          3.5111    2.0475   43.4636 C.3       3 GLC5        0.0000 
     93 CA          4.0780    3.4330   42.4620 C.3       6 GLP5        0.0000 
     94 CA         -2.3042   -0.0605   46.6502 C.3       3 GLC5        0.0000 
     95 CA         -3.3960   -0.6630   48.1970 C.3       6 GLP5        0.0000 
     96 CA          0.2880    0.2383   41.1822 C.3       3 GLC5        0.0000 
     97 CA         -0.1600   -0.6030   42.9340 C.3       9 GLL5        0.0000 
     98 CA          0.6903   -2.0685   40.1153 C.3       3 GLC5        0.0000 
     99 CA          1.6950   -2.0090   38.5640 C.3       6 GLP5        0.0000 
    100 CA         -5.7032   -2.9112   43.9070 C.3       3 GLC5        0.0000 
    101 CA         -7.2090   -3.7240   44.9340 C.3       6 GLP5        0.0000 
    102 CA         -4.4318   -3.8592   43.8330 C.3       3 GLC5        0.0000 
    103 CA         -1.6420   -4.2439   40.5368 C.3       3 GLC5        0.0000 
    104 CA         -1.7092    3.5307   44.9253 C.3       3 GLC5        0.0000 
    105 CA         -2.2785    4.6110   44.7570 C.3       3 GLC5        0.0000 
    106 CA         -2.5673    8.2432   42.5517 C.3       3 GLC5        0.0000 
    107 CA         -4.6220    7.0030   41.7600 C.3       9 GLL5        0.0000 
    108 CA         -3.1818    6.7053   40.7533 C.3       3 GLC5        0.0000 
    109 CA         -4.0650    8.4160   42.0450 C.3       9 GLL5        0.0000 
    110 CA         -2.0200    5.7010   39.6040 C.3       6 GLP5        0.0000 
    111 CA         -2.0590    9.1962   41.9667 C.3       3 GLC5        0.0000 
    112 CA         -0.0005   10.5697   38.7067 C.3       3 GLC5        0.0000 
    113 CA          0.2410    8.9820   37.4620 C.3       6 GLP5        0.0000 
    114 CA          1.7168   10.7010   41.7717 C.3       3 GLC5        0.0000 
    115 CA          1.5780    8.9990   42.6590 C.3       6 GLP5        0.0000 
    116 CA          2.7717   13.8925   41.7673 C.3       3 GLC5        0.0000 
    117 CA          3.6880   15.3820   42.6500 C.3       6 GLP5        0.0000 
@<TRIPOS>BOND
@<TRIPOS>SUBSTRUCTURE
     1 ALC1       16 GROUP        1 X    ALC  0     ROOT ALC X 1
     2 SEC2       11 GROUP        1 X    SEC  0     **** SEC X 2
     3 GLC5        1 GROUP        1 X    GLC  0     **** GLC X 6
     4 ALP1       18 GROUP        1 Y    ALP  0     ROOT ALP Y 8
     5 SEP2       13 GROUP        1 Y    SEP  0     **** SEP Y 9
     6 GLP5        3 GROUP        1 Y    GLP  0     **** GLP Y 13
     7 ALL1       17 GROUP        1 Z    ALL  0     ROOT ALL Z 15
     8 SEL2       12 GROUP        1 Z    SEL  0     **** SEL Z 16
     9 GLL5        2 GROUP        1 Z    GLL  0     **** GLL Z 20
@<TRIPOS>SET

