#    Name: 1hj1_AOE_1_ligand
#    Modification time : Tue Mar 25 05:32:00 2014

@<TRIPOS>MOLECULE
1hj1_AOE_1_ligand
   93    96     1     0     0
SMALL
NO_CHARGES


@<TRIPOS>ATOM
      1 C1          2.2900   -0.1070   43.3310 C.ar      1 AOE1436     0.0000 
      2 C2          3.3290    0.4750   44.0560 C.ar      1 AOE1436     0.0000 
      3 C3          3.0790    1.1400   45.2370 C.ar      1 AOE1436     0.0000 
      4 O3          4.0690    1.7660   45.9860 O.3       1 AOE1436     0.0000 
      5 C4          1.7850    1.1960   45.6750 C.ar      1 AOE1436     0.0000 
      6 C5          0.7200    0.6050   44.9870 C.ar      1 AOE1436     0.0000 
      7 C6         -0.6650    0.7330   45.6080 C.3       1 AOE1436     0.0000 
      8 C7         -1.7600    0.3510   44.5990 C.3       1 AOE1436     0.0000 
      9 C8         -1.3930   -0.9280   43.8090 C.3       1 AOE1436     0.0000 
     10 C9         -0.1600   -0.6030   42.9340 C.3       1 AOE1436     0.0000 
     11 C10         0.9600   -0.0630   43.7780 C.ar      1 AOE1436     0.0000 
     12 C11         0.2460   -1.8700   42.1350 C.3       1 AOE1436     0.0000 
     13 C12        -0.8750   -2.3860   41.1980 C.3       1 AOE1436     0.0000 
     14 C13        -2.1510   -2.5610   42.0420 C.3       1 AOE1436     0.0000 
     15 C14        -2.5140   -1.2510   42.7850 C.3       1 AOE1436     0.0000 
     16 C15        -3.8580   -1.6880   43.4380 C.3       1 AOE1436     0.0000 
     17 C16        -4.5370   -2.5090   42.3220 C.3       1 AOE1436     0.0000 
     18 C17        -3.4590   -2.7280   41.2370 C.3       1 AOE1436     0.0000 
     19 C18        -1.8840   -3.6820   43.0430 C.3       1 AOE1436     0.0000 
     20 O17        -3.5060   -4.0460   40.7800 O.3       1 AOE1436     0.0000 
     21 C19        -1.8820    1.5120   43.5700 C.3       1 AOE1436     0.0000 
     22 C20        -2.7930    2.5630   44.2310 C.3       1 AOE1436     0.0000 
     23 C21        -3.0730    3.6560   43.2140 C.3       1 AOE1436     0.0000 
     24 C22        -3.8790    4.7400   43.9140 C.3       1 AOE1436     0.0000 
     25 C23        -5.1880    4.9590   43.1380 C.3       1 AOE1436     0.0000 
     26 C24        -5.3040    6.4870   43.0290 C.3       1 AOE1436     0.0000 
     27 C25        -4.6220    7.0030   41.7600 C.3       1 AOE1436     0.0000 
     28 C26        -4.0650    8.4160   42.0450 C.3       1 AOE1436     0.0000 
     29 C27        -3.9770    9.1950   40.7320 C.3       1 AOE1436     0.0000 
     30 C28        -2.6770   10.0360   40.7330 C.3       1 AOE1436     0.0000 
     31 C29        -2.8850   11.0070   39.5460 C.2       1 AOE1436     0.0000 
     32 O29        -3.8560   10.7330   38.8440 O.2       1 AOE1436     0.0000 
     33 N29        -2.0170   12.0290   39.3980 N.am      1 AOE1436     0.0000 
     34 C30        -2.2370   12.9290   38.2790 C.3       1 AOE1436     0.0000 
     35 C31        -0.9010   12.2150   40.3270 C.3       1 AOE1436     0.0000 
     36 C32         0.4170   12.1000   39.5760 C.3       1 AOE1436     0.0000 
     37 C33         1.5140   12.8320   40.3450 C.3       1 AOE1436     0.0000 
     38 C34         2.1970   11.9740   41.4240 C.3       1 AOE1436     0.0000 
     39 H           2.5016   -0.5873   42.4350 H         1 AOE1436     0.0000 
     40 H           4.2974    0.4029   43.6971 H         1 AOE1436     0.0000 
     41 H           1.5664    1.7044   46.5702 H         1 AOE1436     0.0000 
     42 H          -0.8250    1.7608   45.9312 H         1 AOE1436     0.0000 
     43 H          -0.7374    0.0762   46.4738 H         1 AOE1436     0.0000 
     44 H          -2.6845    0.2279   45.0820 H         1 AOE1436     0.0000 
     45 H          -1.2071   -1.7236   44.4175 H         1 AOE1436     0.0000 
     46 H          -0.4692    0.1546   42.2131 H         1 AOE1436     0.0000 
     47 H           0.5099   -2.6626   42.8414 H         1 AOE1436     0.0000 
     48 H           1.1312   -1.6395   41.5348 H         1 AOE1436     0.0000 
     49 H          -0.5832   -3.3327   40.7872 H         1 AOE1436     0.0000 
     50 H          -1.0508   -1.6620   40.4266 H         1 AOE1436     0.0000 
     51 H          -2.6728   -0.5064   42.1003 H         1 AOE1436     0.0000 
     52 H          -4.4337   -0.8341   43.6555 H         1 AOE1436     0.0000 
     53 H          -3.6583   -2.3058   44.2664 H         1 AOE1436     0.0000 
     54 H          -5.3464   -1.9513   41.9110 H         1 AOE1436     0.0000 
     55 H          -4.8465   -3.4516   42.7105 H         1 AOE1436     0.0000 
     56 H          -3.5186   -1.9854   40.5326 H         1 AOE1436     0.0000 
     57 H          -2.3392    1.1454   42.6826 H         1 AOE1436     0.0000 
     58 H          -0.9186    1.9276   43.3967 H         1 AOE1436     0.0000 
     59 H          -2.2872    2.9789   45.0868 H         1 AOE1436     0.0000 
     60 H          -3.7159    2.0924   44.5273 H         1 AOE1436     0.0000 
     61 H          -3.6455    3.2521   42.3961 H         1 AOE1436     0.0000 
     62 H          -2.1433    4.0691   42.8606 H         1 AOE1436     0.0000 
     63 H          -3.3173    5.6616   43.9272 H         1 AOE1436     0.0000 
     64 H          -4.1126    4.4287   44.9208 H         1 AOE1436     0.0000 
     65 H          -6.0024    4.5776   43.6973 H         1 AOE1436     0.0000 
     66 H          -5.1040    4.5369   42.1704 H         1 AOE1436     0.0000 
     67 H          -4.8355    6.9424   43.9001 H         1 AOE1436     0.0000 
     68 H          -6.3570    6.7634   43.0096 H         1 AOE1436     0.0000 
     69 H          -5.3403    7.0623   40.9604 H         1 AOE1436     0.0000 
     70 H          -3.8080    6.3505   41.4945 H         1 AOE1436     0.0000 
     71 H          -3.0811    8.3252   42.4802 H         1 AOE1436     0.0000 
     72 H          -4.7301    8.9256   42.7259 H         1 AOE1436     0.0000 
     73 H          -4.8231    9.8579   40.6445 H         1 AOE1436     0.0000 
     74 H          -3.9488    8.5073   39.9018 H         1 AOE1436     0.0000 
     75 H          -1.8514    9.4113   40.5391 H         1 AOE1436     0.0000 
     76 H          -2.6103   10.5830   41.6306 H         1 AOE1436     0.0000 
     77 H          -0.9195   11.4564   41.1126 H         1 AOE1436     0.0000 
     78 H          -0.9473   13.1999   40.7969 H         1 AOE1436     0.0000 
     79 H           0.3127   12.5432   38.5912 H         1 AOE1436     0.0000 
     80 H           0.6867   11.0539   39.4755 H         1 AOE1436     0.0000 
     81 H           1.0840   13.7248   40.8248 H         1 AOE1436     0.0000 
     82 H           2.2801   13.1815   39.6357 H         1 AOE1436     0.0000 
     83 H          -1.6644   -4.5438   42.5857 H         1 AOE1436     0.0000 
     84 H          -1.1161   -3.4662   43.6461 H         1 AOE1436     0.0000 
     85 H          -2.6766   -3.8543   43.6278 H         1 AOE1436     0.0000 
     86 H          -1.5521   13.6570   38.2477 H         1 AOE1436     0.0000 
     87 H          -2.1950   12.4492   37.4026 H         1 AOE1436     0.0000 
     88 H          -3.1326   13.3711   38.3285 H         1 AOE1436     0.0000 
     89 H           2.6315   11.1625   41.0332 H         1 AOE1436     0.0000 
     90 H           2.9087   12.4832   41.9079 H         1 AOE1436     0.0000 
     91 H           1.5455   11.6549   42.1123 H         1 AOE1436     0.0000 
     92 H           3.5902    2.4699   46.5107 H         1 AOE1436     0.0000 
     93 H          -3.1244   -3.1647   40.5010 H         1 AOE1436     0.0000 
@<TRIPOS>BOND
     1    2    1 ar   
     2   11    1 ar   
     3   39    1 1    
     4    3    2 ar   
     5   40    2 1    
     6    4    3 1    
     7    5    3 ar   
     8   92    4 1    
     9    6    5 ar   
    10   41    5 1    
    11    7    6 1    
    12   11    6 ar   
    13    8    7 1    
    14   42    7 1    
    15   43    7 1    
    16    9    8 1    
    17   21    8 1    
    18   44    8 1    
    19   10    9 1    
    20   15    9 1    
    21   45    9 1    
    22   11   10 1    
    23   12   10 1    
    24   46   10 1    
    25   13   12 1    
    26   47   12 1    
    27   48   12 1    
    28   14   13 1    
    29   49   13 1    
    30   50   13 1    
    31   15   14 1    
    32   18   14 1    
    33   19   14 1    
    34   16   15 1    
    35   51   15 1    
    36   17   16 1    
    37   52   16 1    
    38   53   16 1    
    39   18   17 1    
    40   54   17 1    
    41   55   17 1    
    42   20   18 1    
    43   56   18 1    
    44   83   19 1    
    45   84   19 1    
    46   85   19 1    
    47   93   20 1    
    48   22   21 1    
    49   57   21 1    
    50   58   21 1    
    51   23   22 1    
    52   59   22 1    
    53   60   22 1    
    54   24   23 1    
    55   61   23 1    
    56   62   23 1    
    57   25   24 1    
    58   63   24 1    
    59   64   24 1    
    60   26   25 1    
    61   65   25 1    
    62   66   25 1    
    63   27   26 1    
    64   67   26 1    
    65   68   26 1    
    66   28   27 1    
    67   69   27 1    
    68   70   27 1    
    69   29   28 1    
    70   71   28 1    
    71   72   28 1    
    72   30   29 1    
    73   73   29 1    
    74   74   29 1    
    75   31   30 1    
    76   75   30 1    
    77   76   30 1    
    78   32   31 2    
    79   33   31 am   
    80   34   33 1    
    81   35   33 1    
    82   86   34 1    
    83   87   34 1    
    84   88   34 1    
    85   36   35 1    
    86   77   35 1    
    87   78   35 1    
    88   37   36 1    
    89   79   36 1    
    90   80   36 1    
    91   38   37 1    
    92   81   37 1    
    93   82   37 1    
    94   89   38 1    
    95   90   38 1    
    96   91   38 1    
@<TRIPOS>SUBSTRUCTURE
     1 AOE1436     1 GROUP   
@<TRIPOS>SET

