#    Name: 1TOX_1_CAVITY_N1_ALL.mol2
#    Modification time : Tue Mar 11 12:05:06 2014

@<TRIPOS>MOLECULE
1TOX_1_CAVITY_N1_ALL.mol2
   73     0     5     0     0
SMALL
NO_CHARGES


@<TRIPOS>ATOM
      1 CZ         28.8093  -46.1315  -26.6758 C.ar      3 PHE5        0.0000 
      2 CA         29.3584  -45.1083  -27.6252 C.3       4 GLY6        0.0000 
      3 CZ         26.9465  -46.4308  -25.7059 C.ar      3 PHE5        0.0000 
      4 CA         27.4957  -45.4076  -26.6554 C.3       4 GLY6        0.0000 
      5 CA         28.0448  -44.3844  -27.6048 C.3       4 GLY6        0.0000 
      6 CA         25.6329  -45.7069  -25.6855 C.3       4 GLY6        0.0000 
      7 CA         26.1821  -44.6837  -26.6350 C.3       4 GLY6        0.0000 
      8 CA         26.7313  -43.6604  -27.5844 C.3       4 GLY6        0.0000 
      9 DU         27.2804  -42.6372  -28.5338 H         5 CUB7        0.0000 
     10 CA         24.8685  -43.9597  -26.6146 C.3       4 GLY6        0.0000 
     11 OG         25.4177  -42.9365  -27.5640 O.2       1 SER1        0.0000 
     12 CZ         25.9668  -41.9133  -28.5134 C.ar      3 PHE5        0.0000 
     13 CA         23.5549  -43.2358  -26.5942 C.3       4 GLY6        0.0000 
     14 CA         24.2936  -47.9795  -31.2794 C.3       4 GLY6        0.0000 
     15 N          22.4308  -48.2788  -30.3096 N.2       2 ALA2        0.0000 
     16 DU         22.9800  -47.2556  -31.2590 H         5 CUB7        0.0000 
     17 N          21.6664  -46.5317  -31.2386 N.2       2 ALA2        0.0000 
     18 CZ         31.9086  -46.7554  -25.5555 C.ar      3 PHE5        0.0000 
     19 CZ         30.0458  -47.0547  -24.5856 C.ar      3 PHE5        0.0000 
     20 CZ         30.5950  -46.0315  -25.5351 C.ar      3 PHE5        0.0000 
     21 CZ         28.7322  -46.3308  -24.5652 C.ar      3 PHE5        0.0000 
     22 CZ         29.2814  -45.3076  -25.5147 C.ar      3 PHE5        0.0000 
     23 DU         29.8306  -44.2843  -26.4641 H         5 CUB7        0.0000 
     24 N          27.4186  -45.6069  -24.5448 N.2       2 ALA2        0.0000 
     25 N          27.9678  -44.5836  -25.4943 N.2       2 ALA2        0.0000 
     26 DU         28.5170  -43.5604  -26.4437 H         5 CUB7        0.0000 
     27 DU         29.0661  -42.5372  -27.3931 H         5 CUB7        0.0000 
     28 N          26.6542  -43.8597  -25.4739 N.2       2 ALA2        0.0000 
     29 OG         27.2034  -42.8365  -26.4233 O.2       1 SER1        0.0000 
     30 DU         27.7525  -41.8132  -27.3727 H         5 CUB7        0.0000 
     31 OG         25.3406  -43.1358  -25.4535 O.2       1 SER1        0.0000 
     32 OG         25.8898  -42.1125  -26.4029 O.2       1 SER1        0.0000 
     33 N          29.4612  -41.9125  -24.1215 N.2       2 ALA2        0.0000 
     34 N          32.3807  -45.9315  -24.3943 N.2       2 ALA2        0.0000 
     35 O          30.5179  -46.2308  -23.4245 O.2       2 ALA2        0.0000 
     36 DU         31.0671  -45.2075  -24.3739 H         5 CUB7        0.0000 
     37 N          29.7535  -44.4836  -24.3535 N.2       2 ALA2        0.0000 
     38 DU         30.3027  -43.4604  -25.3030 H         5 CUB7        0.0000 
     39 N          28.9891  -42.7364  -25.2826 N.2       2 ALA2        0.0000 
     40 N          27.6755  -42.0125  -25.2622 N.2       2 ALA2        0.0000 
     41 CA         28.2247  -40.9893  -26.2116 C.3       4 GLY6        0.0000 
     42 N          21.5894  -46.7309  -29.1281 N.2       2 ALA2        0.0000 
     43 N          22.1385  -45.7077  -30.0775 N.2       2 ALA2        0.0000 
     44 OG         22.6877  -44.6845  -31.0269 O.2       1 SER1        0.0000 
     45 N          26.4744  -47.2548  -26.8671 N.2       2 ALA2        0.0000 
     46 CA         27.0235  -46.2316  -27.8165 C.3       4 GLY6        0.0000 
     47 CA         25.1608  -46.5309  -26.8467 C.3       4 GLY6        0.0000 
     48 CA         25.7100  -45.5076  -27.7961 C.3       4 GLY6        0.0000 
     49 CA         26.2591  -44.4844  -28.7455 C.3       4 GLY6        0.0000 
     50 CA         26.8083  -43.4612  -29.6949 C.3       4 GLY6        0.0000 
     51 CA         23.8472  -45.8069  -26.8263 C.3       4 GLY6        0.0000 
     52 CA         24.3964  -44.7837  -27.7757 C.3       4 GLY6        0.0000 
     53 CZ         24.9455  -43.7605  -28.7251 C.ar      3 PHE5        0.0000 
     54 CZ         25.4947  -42.7372  -29.6745 C.ar      3 PHE5        0.0000 
     55 CA         23.0828  -44.0598  -27.7553 C.3       4 GLY6        0.0000 
     56 CZ         23.6320  -43.0365  -28.7047 C.ar      3 PHE5        0.0000 
     57 O          24.2165  -48.1788  -29.1689 O.2       2 ALA2        0.0000 
     58 N          24.7657  -47.1556  -30.1183 N.2       2 ALA2        0.0000 
     59 CA         25.3149  -46.1323  -31.0677 C.3       4 GLY6        0.0000 
     60 CA         25.8640  -45.1091  -32.0171 C.3       4 GLY6        0.0000 
     61 N          22.9030  -47.4549  -29.1485 N.2       2 ALA2        0.0000 
     62 DU         23.4521  -46.4316  -30.0979 H         5 CUB7        0.0000 
     63 DU         24.0013  -45.4084  -31.0473 H         5 CUB7        0.0000 
     64 N          24.6887  -47.3548  -28.0078 N.2       2 ALA2        0.0000 
     65 N          25.2378  -46.3316  -28.9572 N.2       2 ALA2        0.0000 
     66 CA         25.7870  -45.3084  -29.9066 C.3       4 GLY6        0.0000 
     67 CA         26.3362  -44.2851  -30.8560 C.3       4 GLY6        0.0000 
     68 N          23.3751  -46.6309  -27.9874 N.2       2 ALA2        0.0000 
     69 DU         23.9242  -45.6077  -28.9368 H         5 CUB7        0.0000 
     70 CZ         24.4734  -44.5844  -29.8862 C.ar      3 PHE5        0.0000 
     71 CZ         25.0226  -43.5612  -30.8356 C.ar      3 PHE5        0.0000 
     72 CA         22.6107  -44.8837  -28.9164 C.3       4 GLY6        0.0000 
     73 CZ         23.1598  -43.8605  -29.8658 C.ar      3 PHE5        0.0000 
@<TRIPOS>BOND
@<TRIPOS>SUBSTRUCTURE
     1 SER1       11 GROUP   
     2 ALA2       15 GROUP   
     3 PHE5        1 GROUP   
     4 GLY6        2 GROUP   
     5 CUB7        9 GROUP   
@<TRIPOS>SET

