#    Name: 1tox_NAD_1_INTS_M
#    Modification time : Tue Mar 25 05:34:16 2014

@<TRIPOS>MOLECULE
1tox_NAD_1_INTS_M
   67     0     9     0     0
SMALL
NO_CHARGES


@<TRIPOS>ATOM
      1 CA         29.5025  -44.9600  -28.2350 C.3       3 GLC5        0.0000 
      2 CA         30.3260  -43.7720  -26.5990 C.3       9 GLL5        0.0000 
      3 CA         28.6790  -46.1480  -29.8710 C.3       6 GLP5        0.0000 
      4 N          26.6860  -43.2075  -23.5275 N.am      2 SEC2        0.0000 
      5 N          26.4100  -42.4470  -24.6520 N.am      8 SEL2        0.0000 
      6 N          26.9620  -43.9680  -22.4030 N.am      5 SEP2        0.0000 
      7 N          25.4080  -41.5305  -24.7925 N.am      2 SEC2        0.0000 
      8 N          24.4060  -40.6140  -24.9330 N.am      5 SEP2        0.0000 
      9 CA         23.2710  -46.0950  -26.3120 C.3       3 GLC5        0.0000 
     10 CA         24.3440  -46.7490  -27.7550 C.3       9 GLL5        0.0000 
     11 CA         22.1980  -45.4410  -24.8690 C.3       6 GLP5        0.0000 
     12 CA         23.8820  -48.6665  -26.9235 C.3       3 GLC5        0.0000 
     13 CA         23.4200  -50.5840  -26.0920 C.3       6 GLP5        0.0000 
     14 O          22.3330  -48.0805  -27.9540 O.2       1 ALC1        0.0000 
     15 O          23.1740  -46.9620  -28.3710 O.2       7 ALL1        0.0000 
     16 O          21.4920  -49.1990  -27.5370 O.2       4 ALP1        0.0000 
     17 N          24.9900  -49.1075  -27.5720 N.am      2 SEC2        0.0000 
     18 N          25.0850  -47.7040  -27.1390 N.am      8 SEL2        0.0000 
     19 N          24.8950  -50.5110  -28.0050 N.am      5 SEP2        0.0000 
     20 CA         24.8440  -46.1045  -25.3755 C.3       3 GLC5        0.0000 
     21 CA         26.2420  -47.3830  -26.5650 C.3       9 GLL5        0.0000 
     22 CA         23.4460  -44.8260  -24.1860 C.3       6 GLP5        0.0000 
     23 CA         25.9170  -49.0385  -25.6890 C.3       3 GLC5        0.0000 
     24 CA         25.5920  -50.6940  -24.8130 C.3       6 GLP5        0.0000 
     25 CA         27.4605  -46.7655  -28.2180 C.3       3 GLC5        0.0000 
     26 CA         34.2235  -41.1230  -19.4385 C.3       3 GLC5        0.0000 
     27 CA         35.1410  -42.4660  -20.7850 C.3       9 GLL5        0.0000 
     28 CA         33.3060  -39.7800  -18.0920 C.3       6 GLP5        0.0000 
     29 CA         34.5105  -45.5275  -20.1700 C.3       3 GLC5        0.0000 
     30 CA         35.4550  -43.8590  -20.4150 C.3       9 GLL5        0.0000 
     31 CA         33.5660  -47.1960  -19.9250 C.3       6 GLP5        0.0000 
     32 CA         34.9640  -45.6155  -18.8845 C.3       3 GLC5        0.0000 
     33 CA         35.4750  -43.8230  -18.9060 C.3       9 GLL5        0.0000 
     34 CA         34.4530  -47.4080  -18.8630 C.3       6 GLP5        0.0000 
     35 O          36.1580  -44.3225  -17.0875 O.2       1 ALC1        0.0000 
     36 O          36.7030  -43.3530  -18.3680 O.2       7 ALL1        0.0000 
     37 O          35.6130  -45.2920  -15.8070 O.2       4 ALP1        0.0000 
     38 CA         33.8580  -41.2955  -18.3675 C.3       3 GLC5        0.0000 
     39 CA         34.4100  -42.8110  -18.6430 C.3       9 GLL5        0.0000 
     40 N          27.2000  -42.3845  -18.3560 N.am      2 SEC2        0.0000 
     41 N          28.4540  -42.8920  -18.0300 N.am      8 SEL2        0.0000 
     42 N          25.9460  -41.8770  -18.6820 N.am      5 SEP2        0.0000 
     43 O          28.1480  -41.5035  -20.4695 O.2       1 ALC1        0.0000 
     44 O          29.4250  -42.0770  -19.8780 O.2       7 ALL1        0.0000 
     45 O          26.8710  -40.9300  -21.0610 O.2       4 ALP1        0.0000 
     46 CA         27.9913  -43.7175  -23.5940 C.3       3 GLC5        0.0000 
     47 CA         28.7670  -42.2810  -25.2280 C.3       9 GLL5        0.0000 
     48 CA         27.8630  -44.7730  -21.8760 C.3       6 GLP5        0.0000 
     49 CA         24.4525  -45.0643  -25.8070 C.3       3 GLC5        0.0000 
     50 CA         26.0530  -45.1380  -27.1350 C.3       9 GLL5        0.0000 
     51 CA         27.0690  -45.7253  -28.6495 C.3       3 GLC5        0.0000 
     52 CA         24.8650  -45.4670  -27.7210 C.3       9 GLL5        0.0000 
     53 CA         31.7647  -44.8273  -19.0510 C.3       3 GLC5        0.0000 
     54 CA         31.9290  -42.9030  -18.7160 C.3       9 GLL5        0.0000 
     55 CA         32.2040  -46.5940  -19.6920 C.3       6 GLP5        0.0000 
     56 CA         30.5607  -41.0567  -18.7940 C.3       3 GLC5        0.0000 
     57 CA         29.7960  -39.0530  -19.1780 C.3       6 GLP5        0.0000 
     58 CA         30.0053  -45.6497  -16.6320 C.3       3 GLC5        0.0000 
     59 CA         31.8490  -44.3330  -16.2500 C.3       9 GLL5        0.0000 
     60 CA         28.7430  -47.1770  -16.6960 C.3       6 GLP5        0.0000 
     61 CA         30.4423  -44.4808  -14.7180 C.3       3 GLC5        0.0000 
     62 CA         30.6860  -43.9120  -16.8860 C.3       9 GLL5        0.0000 
     63 CA         29.6170  -44.8390  -12.8680 C.3       6 GLP5        0.0000 
     64 CA         33.5558  -45.7353  -15.7580 C.3       3 GLC5        0.0000 
     65 CA         34.6530  -47.3030  -14.9700 C.3       6 GLP5        0.0000 
     66 CA         32.1859  -45.3281  -18.1985 C.3       3 GLC5        0.0000 
     67 CA         33.0680  -44.0020  -16.8420 C.3       9 GLL5        0.0000 
@<TRIPOS>BOND
@<TRIPOS>SUBSTRUCTURE
     1 ALC1       14 GROUP        1 X    ALC  0     ROOT ALC X 1
     2 SEC2        4 GROUP        1 X    SEC  0     **** SEC X 2
     3 GLC5        1 GROUP        1 X    GLC  0     **** GLC X 6
     4 ALP1       16 GROUP        1 Y    ALP  0     ROOT ALP Y 8
     5 SEP2        6 GROUP        1 Y    SEP  0     **** SEP Y 9
     6 GLP5        3 GROUP        1 Y    GLP  0     **** GLP Y 13
     7 ALL1       15 GROUP        1 Z    ALL  0     ROOT ALL Z 15
     8 SEL2        5 GROUP        1 Z    SEL  0     **** SEL Z 16
     9 GLL5        2 GROUP        1 Z    GLL  0     **** GLL Z 20
@<TRIPOS>SET

