#    Name: 1tox_NAD_1_ligand
#    Modification time : Tue Mar 25 05:34:16 2014

@<TRIPOS>MOLECULE
1tox_NAD_1_ligand
   70    74     1     0     0
SMALL
NO_CHARGES


@<TRIPOS>ATOM
      1 PA         32.6720  -43.6000  -25.3990 P.3       1 NAD536      0.0000 
      2 O1A        32.4170  -45.0670  -25.1760 O.co2     1 NAD536      0.0000 
      3 O2A        34.0260  -43.1270  -25.7740 O.co2     1 NAD536      0.0000 
      4 O5B        31.6120  -43.1430  -26.5560 O.3       1 NAD536      0.0000 
      5 C5B        30.3260  -43.7720  -26.5990 C.3       1 NAD536      0.0000 
      6 C4B        29.4580  -42.5360  -26.5560 C.3       1 NAD536      0.0000 
      7 O4B        28.4380  -42.7900  -27.5290 O.3       1 NAD536      0.0000 
      8 C3B        28.7670  -42.2810  -25.2280 C.3       1 NAD536      0.0000 
      9 O3B        28.3990  -40.9140  -25.0410 O.3       1 NAD536      0.0000 
     10 C2B        27.4720  -43.0430  -25.3960 C.3       1 NAD536      0.0000 
     11 O2B        26.4100  -42.4470  -24.6520 O.3       1 NAD536      0.0000 
     12 C1B        27.1750  -42.8520  -26.8600 C.3       1 NAD536      0.0000 
     13 N9A        26.1530  -43.8170  -27.3210 N.pl3     1 NAD536      0.0000 
     14 C8A        25.0690  -43.4010  -27.9870 C.2       1 NAD536      0.0000 
     15 N7A        24.2510  -44.4230  -28.2490 N.2       1 NAD536      0.0000 
     16 C5A        24.8650  -45.4670  -27.7210 C.ar      1 NAD536      0.0000 
     17 C6A        24.3440  -46.7490  -27.7550 C.ar      1 NAD536      0.0000 
     18 N6A        23.1740  -46.9620  -28.3710 N.pl3     1 NAD536      0.0000 
     19 N1A        25.0850  -47.7040  -27.1390 N.ar      1 NAD536      0.0000 
     20 C2A        26.2420  -47.3830  -26.5650 C.ar      1 NAD536      0.0000 
     21 N3A        26.7230  -46.1390  -26.5800 N.ar      1 NAD536      0.0000 
     22 C4A        26.0530  -45.1380  -27.1350 C.ar      1 NAD536      0.0000 
     23 O3         32.3400  -42.6460  -24.1180 O.3       1 NAD536      0.0000 
     24 PN         31.8400  -42.7080  -22.5840 P.3       1 NAD536      0.0000 
     25 O1N        30.8090  -43.7710  -22.4220 O.co2     1 NAD536      0.0000 
     26 O2N        31.4510  -41.3150  -22.2490 O.co2     1 NAD536      0.0000 
     27 O5D        33.1690  -43.2750  -21.8960 O.3       1 NAD536      0.0000 
     28 C5D        34.4390  -42.6520  -22.1170 C.3       1 NAD536      0.0000 
     29 C4D        35.1410  -42.4660  -20.7850 C.3       1 NAD536      0.0000 
     30 O4D        34.2720  -41.9290  -19.7660 O.3       1 NAD536      0.0000 
     31 C3D        35.4550  -43.8590  -20.4150 C.3       1 NAD536      0.0000 
     32 O3D        36.6060  -44.3070  -21.1090 O.3       1 NAD536      0.0000 
     33 C2D        35.4750  -43.8230  -18.9060 C.3       1 NAD536      0.0000 
     34 O2D        36.7030  -43.3530  -18.3680 O.3       1 NAD536      0.0000 
     35 C1D        34.4100  -42.8110  -18.6430 C.3       1 NAD536      0.0000 
     36 N1N        33.1230  -43.2770  -18.0750 N.pl3     1 NAD536      0.0000 
     37 C2N        31.9290  -42.9030  -18.7160 C.ar      1 NAD536      0.0000 
     38 C3N        30.7220  -43.2180  -18.1040 C.ar      1 NAD536      0.0000 
     39 C7N        29.4310  -42.7400  -18.7190 C.2       1 NAD536      0.0000 
     40 O7N        28.4540  -42.8920  -18.0300 O.2       1 NAD536      0.0000 
     41 N7N        29.4250  -42.0770  -19.8780 N.am      1 NAD536      0.0000 
     42 C4N        30.6860  -43.9120  -16.8860 C.ar      1 NAD536      0.0000 
     43 C5N        31.8490  -44.3330  -16.2500 C.ar      1 NAD536      0.0000 
     44 C6N        33.0680  -44.0020  -16.8420 C.ar      1 NAD536      0.0000 
     45 H          30.1364  -44.3558  -25.7397 H         1 NAD536      0.0000 
     46 H          30.1581  -44.2791  -27.5099 H         1 NAD536      0.0000 
     47 H          30.0322  -41.6858  -26.8423 H         1 NAD536      0.0000 
     48 H          29.3061  -42.7029  -24.4503 H         1 NAD536      0.0000 
     49 H          27.6255  -44.0542  -25.2060 H         1 NAD536      0.0000 
     50 H          26.7088  -41.8161  -26.9051 H         1 NAD536      0.0000 
     51 H          24.8993  -42.4654  -28.2480 H         1 NAD536      0.0000 
     52 H          22.6267  -47.7240  -28.0247 H         1 NAD536      0.0000 
     53 H          22.9525  -46.3400  -29.1221 H         1 NAD536      0.0000 
     54 H          26.8029  -48.1430  -26.0776 H         1 NAD536      0.0000 
     55 H          34.3291  -41.6686  -22.5843 H         1 NAD536      0.0000 
     56 H          35.0813  -43.2636  -22.7580 H         1 NAD536      0.0000 
     57 H          36.0237  -41.9287  -20.9223 H         1 NAD536      0.0000 
     58 H          34.5572  -44.4484  -20.7022 H         1 NAD536      0.0000 
     59 H          35.1547  -44.7514  -18.5339 H         1 NAD536      0.0000 
     60 H          34.8785  -42.1309  -17.8021 H         1 NAD536      0.0000 
     61 H          31.9560  -42.4143  -19.6054 H         1 NAD536      0.0000 
     62 H          28.5257  -41.8312  -20.2397 H         1 NAD536      0.0000 
     63 H          30.3204  -41.8858  -20.2802 H         1 NAD536      0.0000 
     64 H          29.7648  -44.1144  -16.4517 H         1 NAD536      0.0000 
     65 H          31.8143  -44.8610  -15.3880 H         1 NAD536      0.0000 
     66 H          33.9544  -44.2775  -16.3955 H         1 NAD536      0.0000 
     67 H          29.0769  -40.5485  -24.4032 H         1 NAD536      0.0000 
     68 H          26.7207  -41.5166  -24.4577 H         1 NAD536      0.0000 
     69 H          37.3589  -43.7616  -20.7406 H         1 NAD536      0.0000 
     70 H          36.7450  -43.7367  -17.4455 H         1 NAD536      0.0000 
@<TRIPOS>BOND
     1    2    1 ar   
     2    3    1 ar   
     3    4    1 1    
     4   23    1 1    
     5    5    4 1    
     6    6    5 1    
     7   45    5 1    
     8   46    5 1    
     9    7    6 1    
    10    8    6 1    
    11   47    6 1    
    12   12    7 1    
    13    9    8 1    
    14   10    8 1    
    15   48    8 1    
    16   67    9 1    
    17   11   10 1    
    18   12   10 1    
    19   49   10 1    
    20   68   11 1    
    21   13   12 1    
    22   50   12 1    
    23   14   13 1    
    24   22   13 1    
    25   15   14 2    
    26   51   14 1    
    27   16   15 1    
    28   17   16 ar   
    29   22   16 ar   
    30   18   17 1    
    31   19   17 ar   
    32   52   18 1    
    33   53   18 1    
    34   20   19 ar   
    35   21   20 ar   
    36   54   20 1    
    37   22   21 ar   
    38   24   23 1    
    39   25   24 ar   
    40   26   24 ar   
    41   27   24 1    
    42   28   27 1    
    43   29   28 1    
    44   55   28 1    
    45   56   28 1    
    46   30   29 1    
    47   31   29 1    
    48   57   29 1    
    49   35   30 1    
    50   32   31 1    
    51   33   31 1    
    52   58   31 1    
    53   69   32 1    
    54   34   33 1    
    55   35   33 1    
    56   59   33 1    
    57   70   34 1    
    58   36   35 1    
    59   60   35 1    
    60   37   36 ar   
    61   44   36 ar   
    62   38   37 ar   
    63   61   37 1    
    64   39   38 1    
    65   42   38 ar   
    66   40   39 2    
    67   41   39 am   
    68   62   41 1    
    69   63   41 1    
    70   43   42 ar   
    71   64   42 1    
    72   44   43 ar   
    73   65   43 1    
    74   66   44 1    
@<TRIPOS>SUBSTRUCTURE
     1 NAD536      1 GROUP   
@<TRIPOS>SET

