#    Name: 3p17_99P_1_INTS_M
#    Modification time : Tue Mar 25 05:47:39 2014

@<TRIPOS>MOLECULE
3p17_99P_1_INTS_M
   55     0     9     0     0
SMALL
NO_CHARGES


@<TRIPOS>ATOM
      1 CA         17.6590  -13.0625   26.1840 C.3       3 GLC5        0.0000 
      2 CA         18.1780  -14.5050   24.6150 C.3       9 GLL5        0.0000 
      3 CA         17.1400  -11.6200   27.7530 C.3       6 GLP5        0.0000 
      4 CA         16.7935  -15.2090   26.2340 C.3       3 GLC5        0.0000 
      5 CA         15.4090  -15.9130   27.8530 C.3       6 GLP5        0.0000 
      6 O          15.4610  -14.5905   23.8830 O.2       1 ALC1        0.0000 
      7 O          16.3850  -15.3010   23.0820 O.2       7 ALL1        0.0000 
      8 O          14.5370  -13.8800   24.6840 O.2       4 ALP1        0.0000 
      9 N          15.6115  -11.8660   24.0085 N.am      2 SEC2        0.0000 
     10 N          16.5570  -12.4680   23.0010 N.am      8 SEL2        0.0000 
     11 N          14.6660  -11.2640   25.0160 N.am      5 SEP2        0.0000 
     12 CA         22.6920  -11.3280   23.7310 C.3       3 GLC5        0.0000 
     13 CA         22.2090  -12.9810   24.8600 C.3       9 GLL5        0.0000 
     14 CA         23.1750   -9.6750   22.6020 C.3       6 GLP5        0.0000 
     15 CA         17.8230  -10.7185   22.8955 C.3       3 GLC5        0.0000 
     16 CA         18.2050  -11.4320   20.9920 C.3       9 GLL5        0.0000 
     17 CA         17.4410  -10.0050   24.7990 C.3       6 GLP5        0.0000 
     18 O          16.6210   -9.1220   21.5085 O.2       1 ALC1        0.0000 
     19 O          16.0870  -10.1430   20.7160 O.2       7 ALL1        0.0000 
     20 O          17.1550   -8.1010   22.3010 O.2       4 ALP1        0.0000 
     21 CA         15.0585   -8.3050   18.7150 C.3       3 GLC5        0.0000 
     22 CA         14.7610   -9.8760   20.1810 C.3       9 GLL5        0.0000 
     23 CA         15.3560   -6.7340   17.2490 C.3       6 GLP5        0.0000 
     24 CA         10.9755  -10.0955   20.9225 C.3       3 GLC5        0.0000 
     25 CA         12.9340   -9.6220   21.8870 C.3       9 GLL5        0.0000 
     26 CA          9.0170  -10.5690   19.9580 C.3       6 GLP5        0.0000 
     27 CA         12.8030   -7.6350   21.6270 C.3       3 GLC5        0.0000 
     28 CA         12.6720   -5.6480   21.3670 C.3       6 GLP5        0.0000 
     29 CA         19.1698  -14.5092   26.6360 C.3       3 GLC5        0.0000 
     30 CA         19.4450  -14.7690   28.6230 C.3       6 GLP5        0.0000 
     31 CA         22.9592  -11.8223   26.3705 C.3       3 GLC5        0.0000 
     32 CA         21.1620  -12.3040   25.4820 C.3       9 GLL5        0.0000 
     33 CA         24.2330  -11.0020   27.5700 C.3       6 GLP5        0.0000 
     34 CA         20.6275  -10.9120   24.1685 C.3       3 GLC5        0.0000 
     35 CA         20.7350   -9.2670   22.9010 C.3       6 GLP5        0.0000 
     36 CA         19.9825  -13.6630   27.0295 C.3       3 GLC5        0.0000 
     37 CA         18.9805  -11.2810   25.1175 C.3       3 GLC5        0.0000 
     38 CA         19.8780  -12.8100   25.3900 C.3       9 GLL5        0.0000 
     39 CA         18.9322   -9.8515   19.2810 C.3       3 GLC5        0.0000 
     40 CA         19.1650   -8.2770   18.1630 C.3       6 GLP5        0.0000 
     41 CA         21.7055  -13.2190   20.1887 C.3       3 GLC5        0.0000 
     42 CA         20.2390  -12.4020   20.2720 C.3       9 GLL5        0.0000 
     43 CA         23.5630  -13.4690   19.7670 C.3       6 GLP5        0.0000 
     44 CA         20.1021  -10.5905   21.6182 C.3       3 GLC5        0.0000 
     45 CA         19.0974  -13.6077   18.9670 C.3       3 GLC5        0.0000 
     46 CA         19.1940  -11.4200   19.8060 C.3       9 GLL5        0.0000 
     47 CA         18.6080  -14.4920   17.4400 C.3       6 GLP5        0.0000 
     48 CA         14.8344   -9.6814   22.8073 C.3       3 GLC5        0.0000 
     49 CA         16.0820   -9.4740   24.3530 C.3       6 GLP5        0.0000 
     50 CA         10.5825  -11.2140   21.1815 C.3       3 GLC5        0.0000 
     51 CA         11.7790  -11.4190   22.7850 C.3       9 GLL5        0.0000 
     52 CA         12.9000  -11.8970   24.1215 C.3       3 GLC5        0.0000 
     53 CA         13.6520  -11.9350   25.8380 C.3       6 GLP5        0.0000 
     54 CA         10.4140  -12.7870   21.7735 C.3       3 GLC5        0.0000 
     55 CA          8.6800  -13.7150   21.1420 C.3       6 GLP5        0.0000 
@<TRIPOS>BOND
@<TRIPOS>SUBSTRUCTURE
     1 ALC1        6 GROUP        1 X    ALC  0     ROOT ALC X 1
     2 SEC2        9 GROUP        1 X    SEC  0     **** SEC X 2
     3 GLC5        1 GROUP        1 X    GLC  0     **** GLC X 6
     4 ALP1        8 GROUP        1 Y    ALP  0     ROOT ALP Y 8
     5 SEP2       11 GROUP        1 Y    SEP  0     **** SEP Y 9
     6 GLP5        3 GROUP        1 Y    GLP  0     **** GLP Y 13
     7 ALL1        7 GROUP        1 Z    ALL  0     ROOT ALL Z 15
     8 SEL2       10 GROUP        1 Z    SEL  0     **** SEL Z 16
     9 GLL5        2 GROUP        1 Z    GLL  0     **** GLL Z 20
@<TRIPOS>SET

