#    Name: 3p17_99P_1_ligand
#    Modification time : Tue Mar 25 05:47:39 2014

@<TRIPOS>MOLECULE
3p17_99P_1_ligand
   51    53     1     0     0
SMALL
NO_CHARGES


@<TRIPOS>ATOM
      1 C1         19.6110  -13.9940   24.6830 C.ar      1 99P1001     0.0000 
      2 C2         18.1780  -14.5050   24.6150 C.3       1 99P1001     0.0000 
      3 C3         17.6990  -14.5780   23.1540 C.3       1 99P1001     0.0000 
      4 N4         16.3850  -15.3010   23.0820 N.4       1 99P1001     0.0000 
      5 C5         17.4730  -13.1790   22.5570 C.2       1 99P1001     0.0000 
      6 N6         18.3390  -12.7830   21.5650 N.am      1 99P1001     0.0000 
      7 O7         16.5570  -12.4680   23.0010 O.2       1 99P1001     0.0000 
      8 C8         20.6710  -14.6660   24.0630 C.ar      1 99P1001     0.0000 
      9 C9         21.9580  -14.1600   24.1540 C.ar      1 99P1001     0.0000 
     10 C10        22.2090  -12.9810   24.8600 C.ar      1 99P1001     0.0000 
     11 C11        21.1620  -12.3040   25.4820 C.ar      1 99P1001     0.0000 
     12 C12        19.8780  -12.8100   25.3900 C.ar      1 99P1001     0.0000 
     13 C13        18.2050  -11.4320   20.9920 C.3       1 99P1001     0.0000 
     14 C14        16.7460  -11.3110   20.4680 C.2       1 99P1001     0.0000 
     15 O15        16.2600  -12.1930   19.7200 O.2       1 99P1001     0.0000 
     16 N16        16.0870  -10.1430   20.7160 N.am      1 99P1001     0.0000 
     17 C17        14.7610   -9.8760   20.1810 C.3       1 99P1001     0.0000 
     18 C18        13.7180  -10.4350   21.0910 C.ar      1 99P1001     0.0000 
     19 C19        19.1940  -11.4200   19.8060 C.3       1 99P1001     0.0000 
     20 C20        20.2390  -12.4020   20.2720 C.3       1 99P1001     0.0000 
     21 C21        19.4570  -13.5360   20.9490 C.3       1 99P1001     0.0000 
     22 C22        12.9340   -9.6220   21.8870 C.ar      1 99P1001     0.0000 
     23 N23        11.9730  -10.0820   22.7300 N.ar      1 99P1001     0.0000 
     24 C24        11.7790  -11.4190   22.7850 C.ar      1 99P1001     0.0000 
     25 C25        12.5170  -12.2990   22.0250 C.ar      1 99P1001     0.0000 
     26 C26        13.4900  -11.7940   21.1770 C.ar      1 99P1001     0.0000 
     27 H          17.5252  -13.8339   25.1671 H         1 99P1001     0.0000 
     28 H          18.1239  -15.4978   25.0539 H         1 99P1001     0.0000 
     29 H          18.4222  -15.0931   22.5635 H         1 99P1001     0.0000 
     30 H          20.4887  -15.5325   23.5428 H         1 99P1001     0.0000 
     31 H          22.7405  -14.6545   23.6983 H         1 99P1001     0.0000 
     32 H          23.1665  -12.6143   24.9197 H         1 99P1001     0.0000 
     33 H          21.3461  -11.4403   26.0013 H         1 99P1001     0.0000 
     34 H          19.0926  -12.3135   25.8477 H         1 99P1001     0.0000 
     35 H          18.4247  -10.6948   21.6641 H         1 99P1001     0.0000 
     36 H          16.5119   -9.3979   21.2997 H         1 99P1001     0.0000 
     37 H          14.6482  -10.3290   19.1873 H         1 99P1001     0.0000 
     38 H          14.5995   -8.7953   20.0735 H         1 99P1001     0.0000 
     39 H          19.6062  -10.4564   19.7090 H         1 99P1001     0.0000 
     40 H          18.7057  -11.7773   18.9447 H         1 99P1001     0.0000 
     41 H          20.8852  -11.9441   20.9881 H         1 99P1001     0.0000 
     42 H          20.7770  -12.7951   19.4376 H         1 99P1001     0.0000 
     43 H          19.1076  -14.2025   20.2100 H         1 99P1001     0.0000 
     44 H          20.0667  -13.9841   21.6838 H         1 99P1001     0.0000 
     45 H          13.1002   -8.5735   21.8295 H         1 99P1001     0.0000 
     46 H          11.0426  -11.8105   23.4262 H         1 99P1001     0.0000 
     47 H          12.3532  -13.3068   22.0824 H         1 99P1001     0.0000 
     48 H          14.0525  -12.4469   20.6009 H         1 99P1001     0.0000 
     49 H          16.4544  -16.2337   23.4358 H         1 99P1001     0.0000 
     50 H          15.6765  -14.8376   23.6143 H         1 99P1001     0.0000 
     51 H          16.0490  -15.3681   22.1425 H         1 99P1001     0.0000 
@<TRIPOS>BOND
     1    2    1 1    
     2    8    1 ar   
     3   12    1 ar   
     4    3    2 1    
     5   27    2 1    
     6   28    2 1    
     7    4    3 1    
     8    5    3 1    
     9   29    3 1    
    10   49    4 1    
    11   50    4 1    
    12   51    4 1    
    13    6    5 am   
    14    7    5 2    
    15   13    6 1    
    16   21    6 1    
    17    9    8 ar   
    18   30    8 1    
    19   10    9 ar   
    20   31    9 1    
    21   11   10 ar   
    22   32   10 1    
    23   12   11 ar   
    24   33   11 1    
    25   34   12 1    
    26   14   13 1    
    27   19   13 1    
    28   35   13 1    
    29   15   14 2    
    30   16   14 am   
    31   17   16 1    
    32   36   16 1    
    33   18   17 1    
    34   37   17 1    
    35   38   17 1    
    36   22   18 ar   
    37   26   18 ar   
    38   20   19 1    
    39   39   19 1    
    40   40   19 1    
    41   21   20 1    
    42   41   20 1    
    43   42   20 1    
    44   43   21 1    
    45   44   21 1    
    46   23   22 ar   
    47   45   22 1    
    48   24   23 ar   
    49   25   24 ar   
    50   46   24 1    
    51   26   25 ar   
    52   47   25 1    
    53   48   26 1    
@<TRIPOS>SUBSTRUCTURE
     1 99P1001     1 GROUP   
@<TRIPOS>SET

