#    Name: 1jut_LYD_2_INTS_M
#    Modification time : Tue Mar 25 09:27:12 2014

@<TRIPOS>MOLECULE
1jut_LYD_2_INTS_M
   27     0     6     0     0
SMALL
NO_CHARGES


@<TRIPOS>ATOM
      1 CA         42.9095   41.6635   23.1615 C.3       2 GLC5        0.0000 
      2 CA         44.5020   41.0140   22.0790 C.3       6 GLL5        0.0000 
      3 CA         41.3170   42.3130   24.2440 C.3       4 GLP5        0.0000 
      4 CA         47.3205   44.1490   19.5090 C.3       2 GLC5        0.0000 
      5 CA         48.9150   45.1850   20.6620 C.3       6 GLL5        0.0000 
      6 CA         45.7260   43.1130   18.3560 C.3       4 GLP5        0.0000 
      7 CA         43.3690   40.4670   19.0360 C.3       2 GLC5        0.0000 
      8 CA         43.5800   39.1400   20.6510 C.3       6 GLL5        0.0000 
      9 CA         43.1580   41.7940   17.4210 C.3       4 GLP5        0.0000 
     10 CA         42.2515   40.8520   21.2100 C.3       2 GLC5        0.0000 
     11 CA         40.9230   42.5640   21.7690 C.3       4 GLP5        0.0000 
     12 CA         44.9380   34.6730   22.7100 C.3       2 GLC5        0.0000 
     13 CA         46.2520   35.5990   21.9600 C.3       6 GLL5        0.0000 
     14 CA         43.6240   33.7470   23.4600 C.3       4 GLP5        0.0000 
     15 O          48.5100   35.8265   26.2520 O.2       1 ALC1        0.0000 
     16 O          48.6380   35.1130   24.7240 O.2       5 ALL1        0.0000 
     17 O          48.3820   36.5400   27.7800 O.2       3 ALP1        0.0000 
     18 CA         45.9771   40.9869   19.3582 C.3       2 GLC5        0.0000 
     19 CA         44.7630   39.9770   21.1630 C.3       6 GLL5        0.0000 
     20 CA         45.6780   41.7710   17.6490 C.3       4 GLP5        0.0000 
     21 CA         45.8301   42.3059   20.2837 C.3       2 GLC5        0.0000 
     22 CA         46.8480   41.5820   22.1080 C.3       6 GLL5        0.0000 
     23 CA         42.9815   37.2140   19.4383 C.3       2 GLC5        0.0000 
     24 CA         42.5110   35.9250   17.8170 C.3       4 GLP5        0.0000 
     25 CA         43.8191   35.6068   22.0816 C.3       2 GLC5        0.0000 
     26 CA         45.3920   36.5560   22.4580 C.3       6 GLL5        0.0000 
     27 CA         42.7800   34.5720   22.4820 C.3       4 GLP5        0.0000 
@<TRIPOS>BOND
@<TRIPOS>SUBSTRUCTURE
     1 ALC1       15 GROUP        1 X    ALC  0     ROOT ALC X 1
     2 GLC5        1 GROUP        1 X    GLC  0     **** GLC X 6
     3 ALP1       17 GROUP        1 Y    ALP  0     ROOT ALP Y 8
     4 GLP5        3 GROUP        1 Y    GLP  0     **** GLP Y 13
     5 ALL1       16 GROUP        1 Z    ALL  0     ROOT ALL Z 15
     6 GLL5        2 GROUP        1 Z    GLL  0     **** GLL Z 20
@<TRIPOS>SET

