#    Name: 1jut_LYD_2_ligand
#    Modification time : Tue Mar 25 09:27:12 2014

@<TRIPOS>MOLECULE
1jut_LYD_2_ligand
   51    53     1     0     0
SMALL
NO_CHARGES


@<TRIPOS>ATOM
      1 C5'        44.5020   41.0140   22.0790 C.ar      1 LYD305      0.0000 
      2 C4'        44.7630   39.9770   21.1630 C.ar      1 LYD305      0.0000 
      3 C3'        46.0800   39.7460   20.7230 C.ar      1 LYD305      0.0000 
      4 C2'        47.1310   40.5440   21.1920 C.ar      1 LYD305      0.0000 
      5 C1'        46.8480   41.5820   22.1080 C.ar      1 LYD305      0.0000 
      6 C6'        45.5390   41.8170   22.5510 C.ar      1 LYD305      0.0000 
      7 C9         47.9090   42.5050   22.4910 C.2       1 LYD305      0.0000 
      8 O9         49.0820   42.1560   22.3730 O.2       1 LYD305      0.0000 
      9 N          47.5640   43.7730   22.9050 N.am      1 LYD305      0.0000 
     10 CA         48.5770   44.8310   23.1710 C.3       1 LYD305      0.0000 
     11 CB         48.6380   45.8560   22.0160 C.3       1 LYD305      0.0000 
     12 CG1        48.9150   45.1850   20.6620 C.3       1 LYD305      0.0000 
     13 CG2        49.6930   46.9370   22.2920 C.3       1 LYD305      0.0000 
     14 C8         43.5800   39.1400   20.6510 C.3       1 LYD305      0.0000 
     15 C7         43.3240   37.8660   21.4680 C.3       1 LYD305      0.0000 
     16 C5         44.4580   36.8780   21.4230 C.2       1 LYD305      0.0000 
     17 C          48.2750   45.5380   24.4800 C.2       1 LYD305      0.0000 
     18 OX1        47.0860   45.5910   24.8310 O.co2     1 LYD305      0.0000 
     19 OX2        49.2150   46.0610   25.1040 O.co2     1 LYD305      0.0000 
     20 C6         44.7580   36.0820   20.3630 C.2       1 LYD305      0.0000 
     21 N7         45.8590   35.2580   20.6810 N.pl3     1 LYD305      0.0000 
     22 C7A        46.2520   35.5990   21.9600 C.2       1 LYD305      0.0000 
     23 C4A        45.3920   36.5560   22.4580 C.2       1 LYD305      0.0000 
     24 C4         45.5950   37.0420   23.7840 C.2       1 LYD305      0.0000 
     25 O4         44.8930   37.8510   24.3820 O.2       1 LYD305      0.0000 
     26 N3         46.6940   36.5280   24.4900 N.am      1 LYD305      0.0000 
     27 C2         47.5880   35.5860   23.9550 C.2       1 LYD305      0.0000 
     28 N1         47.3650   35.1000   22.6780 N.2       1 LYD305      0.0000 
     29 N2         48.6380   35.1130   24.7240 N.pl3     1 LYD305      0.0000 
     30 H          43.5382   41.1750   22.3980 H         1 LYD305      0.0000 
     31 H          46.2674   38.9895   20.0563 H         1 LYD305      0.0000 
     32 H          48.0851   40.3835   20.8816 H         1 LYD305      0.0000 
     33 H          45.3504   42.5711   23.2141 H         1 LYD305      0.0000 
     34 H          46.5777   44.0454   23.0496 H         1 LYD305      0.0000 
     35 H          49.5626   44.3734   23.2543 H         1 LYD305      0.0000 
     36 H          47.6654   46.3505   21.9533 H         1 LYD305      0.0000 
     37 H          43.7693   38.8604   19.6044 H         1 LYD305      0.0000 
     38 H          42.6727   39.7613   20.6655 H         1 LYD305      0.0000 
     39 H          42.4030   37.3896   21.0908 H         1 LYD305      0.0000 
     40 H          43.1279   38.1567   22.5142 H         1 LYD305      0.0000 
     41 H          44.3075   36.0611   19.5145 H         1 LYD305      0.0000 
     42 H          46.2364   34.6105   20.1202 H         1 LYD305      0.0000 
     43 H          46.8567   36.8653   25.4698 H         1 LYD305      0.0000 
     44 H          49.2523   34.4625   24.2774 H         1 LYD305      0.0000 
     45 H          48.6910   35.4629   25.6593 H         1 LYD305      0.0000 
     46 H          49.7881   44.6975   20.6608 H         1 LYD305      0.0000 
     47 H          48.2072   44.5192   20.4257 H         1 LYD305      0.0000 
     48 H          48.9506   45.8517   19.9175 H         1 LYD305      0.0000 
     49 H          50.6079   46.5460   22.3927 H         1 LYD305      0.0000 
     50 H          49.7406   47.6072   21.5514 H         1 LYD305      0.0000 
     51 H          49.4961   47.4422   23.1322 H         1 LYD305      0.0000 
@<TRIPOS>BOND
     1    2    1 ar   
     2    6    1 ar   
     3   30    1 1    
     4    3    2 ar   
     5   14    2 1    
     6    4    3 ar   
     7   31    3 1    
     8    5    4 ar   
     9   32    4 1    
    10    6    5 ar   
    11    7    5 1    
    12   33    6 1    
    13    8    7 2    
    14    9    7 am   
    15   10    9 1    
    16   34    9 1    
    17   11   10 1    
    18   17   10 1    
    19   35   10 1    
    20   12   11 1    
    21   13   11 1    
    22   36   11 1    
    23   46   12 1    
    24   47   12 1    
    25   48   12 1    
    26   49   13 1    
    27   50   13 1    
    28   51   13 1    
    29   15   14 1    
    30   37   14 1    
    31   38   14 1    
    32   16   15 1    
    33   39   15 1    
    34   40   15 1    
    35   20   16 2    
    36   23   16 1    
    37   18   17 ar   
    38   19   17 ar   
    39   21   20 1    
    40   41   20 1    
    41   22   21 1    
    42   42   21 1    
    43   23   22 2    
    44   28   22 1    
    45   24   23 1    
    46   25   24 2    
    47   26   24 am   
    48   27   26 1    
    49   43   26 1    
    50   28   27 2    
    51   29   27 1    
    52   44   29 1    
    53   45   29 1    
@<TRIPOS>SUBSTRUCTURE
     1 LYD305      1 GROUP   
@<TRIPOS>SET

