#    Name: 1hop_GCP_1_INTS_M
#    Modification time : Tue Mar 25 05:38:30 2014

@<TRIPOS>MOLECULE
1hop_GCP_1_INTS_M
   43     0    12     0     0
SMALL
NO_CHARGES


@<TRIPOS>ATOM
      1 NZ         26.4840   60.4585  -18.9640 N.4       3 LYC4        0.0000 
      2 NZ         26.8680   61.0380  -20.0690 N.4      11 LYL4        0.0000 
      3 NZ         26.1000   59.8790  -17.8590 N.4       7 LYP4        0.0000 
      4 N          26.4840   60.4585  -18.9640 N.am      2 SEC2        0.0000 
      5 N          26.8680   61.0380  -20.0690 N.am     10 SEL2        0.0000 
      6 N          26.1000   59.8790  -17.8590 N.am      6 SEP2        0.0000 
      7 CA         26.8760   61.3215  -17.6415 C.3       4 GLC5        0.0000 
      8 CA         28.4870   62.4000  -18.6310 C.3      12 GLL5        0.0000 
      9 CA         25.2650   60.2430  -16.6520 C.3       8 GLP5        0.0000 
     10 NZ         26.4120   61.5910  -17.3825 N.4       3 LYC4        0.0000 
     11 NZ         26.7240   63.3030  -16.9060 N.4      11 LYL4        0.0000 
     12 N          26.2165   64.5100  -16.1765 N.am      2 SEC2        0.0000 
     13 N          26.7240   63.3030  -16.9060 N.am     10 SEL2        0.0000 
     14 N          25.7090   65.7170  -15.4470 N.am      6 SEP2        0.0000 
     15 N          27.0020   63.5215  -15.5655 N.am      2 SEC2        0.0000 
     16 N          27.2800   63.7400  -14.2250 N.am      6 SEP2        0.0000 
     17 N          29.5320   63.6055  -15.3880 N.am      2 SEC2        0.0000 
     18 N          29.1040   64.3920  -16.7330 N.am     10 SEL2        0.0000 
     19 N          29.9600   62.8190  -14.0430 N.am      6 SEP2        0.0000 
     20 CA         27.8455   67.0580  -15.4920 C.3       4 GLC5        0.0000 
     21 CA         28.8350   68.0210  -16.3200 C.3      12 GLL5        0.0000 
     22 CA         26.8560   66.0950  -14.6640 C.3       8 GLP5        0.0000 
     23 N          25.8500   71.6245  -10.1050 N.am      2 SEC2        0.0000 
     24 N          27.3000   71.5510   -9.7840 N.am     10 SEL2        0.0000 
     25 N          24.4000   71.6980  -10.4260 N.am      6 SEP2        0.0000 
     26 N          27.8155   70.7055   -8.7165 N.am      2 SEC2        0.0000 
     27 N          28.3310   69.8600   -7.6490 N.am      6 SEP2        0.0000 
     28 O          27.0225   74.2065  -10.3340 O.2       1 ALC1        0.0000 
     29 O          27.7190   73.1690  -11.3770 O.2       9 ALL1        0.0000 
     30 O          26.3260   75.2440   -9.2910 O.2       5 ALP1        0.0000 
     31 O          27.1955   74.6610  -11.3355 O.2       1 ALC1        0.0000 
     32 O          26.6720   76.1530  -11.2940 O.2       5 ALP1        0.0000 
     33 O          27.5280   75.5105  -12.0335 O.2       1 ALC1        0.0000 
     34 O          28.3840   74.8680  -12.7730 O.2       9 ALL1        0.0000 
     35 CA         31.6998   71.2940  -13.8550 C.3       4 GLC5        0.0000 
     36 CA         30.1750   70.5580  -14.8280 C.3      12 GLL5        0.0000 
     37 CA         32.6120   72.4780  -12.7530 C.3       8 GLP5        0.0000 
     38 CA         26.9815   71.7915  -12.8040 C.3       4 GLC5        0.0000 
     39 CA         29.0310   71.5030  -12.9120 C.3      12 GLL5        0.0000 
     40 CA         25.2190   72.3350  -13.2720 C.3       8 GLP5        0.0000 
     41 CA         30.5025   71.5405  -11.8730 C.3       4 GLC5        0.0000 
     42 CA         28.4570   70.9930  -11.7600 C.3      12 GLL5        0.0000 
     43 CA         32.2610   71.8330  -11.4100 C.3       8 GLP5        0.0000 
@<TRIPOS>BOND
@<TRIPOS>SUBSTRUCTURE
     1 ALC1       28 GROUP        1 X    ALC  0     ROOT ALC X 1
     2 SEC2        4 GROUP        1 X    SEC  0     **** SEC X 2
     3 LYC4        1 GROUP        1 X    LYC  0     **** LYC X 4
     4 GLC5        7 GROUP        1 X    GLC  0     **** GLC X 6
     5 ALP1       30 GROUP        1 Y    ALP  0     ROOT ALP Y 8
     6 SEP2        6 GROUP        1 Y    SEP  0     **** SEP Y 9
     7 LYP4        3 GROUP        1 Y    LYP  0     **** LYP Y 11
     8 GLP5        9 GROUP        1 Y    GLP  0     **** GLP Y 13
     9 ALL1       29 GROUP        1 Z    ALL  0     ROOT ALL Z 15
    10 SEL2        5 GROUP        1 Z    SEL  0     **** SEL Z 16
    11 LYL4        2 GROUP        1 Z    LYL  0     **** LYL Z 18
    12 GLL5        8 GROUP        1 Z    GLL  0     **** GLL Z 20
@<TRIPOS>SET

