#    Name: 1hop_GCP_1_ligand
#    Modification time : Tue Mar 25 05:38:30 2014

@<TRIPOS>MOLECULE
1hop_GCP_1_ligand
   46    48     1     0     0
SMALL
NO_CHARGES


@<TRIPOS>ATOM
      1 PG         27.9370   62.0470  -20.3320 P.3       1 GCP432      0.0000 
      2 O1G        27.4480   63.3950  -20.7700 O.co2     1 GCP432      0.0000 
      3 O2G        29.0520   61.5330  -21.1960 O.co2     1 GCP432      0.0000 
      4 O3G        26.8680   61.0380  -20.0690 O.co2     1 GCP432      0.0000 
      5 C3B        28.4870   62.4000  -18.6310 C.3       1 GCP432      0.0000 
      6 PB         27.9000   63.7910  -17.6440 P.3       1 GCP432      0.0000 
      7 O1B        27.6710   64.9670  -18.4910 O.co2     1 GCP432      0.0000 
      8 O2B        26.7240   63.3030  -16.9060 O.co2     1 GCP432      0.0000 
      9 O3A        29.1040   64.3920  -16.7330 O.3       1 GCP432      0.0000 
     10 PA         30.0160   65.7450  -16.8520 P.3       1 GCP432      0.0000 
     11 O1A        30.6340   66.1250  -15.5450 O.co2     1 GCP432      0.0000 
     12 O2A        30.9040   65.6210  -18.0190 O.co2     1 GCP432      0.0000 
     13 O5'        28.9570   66.8940  -17.1460 O.3       1 GCP432      0.0000 
     14 C5'        28.8350   68.0210  -16.3200 C.3       1 GCP432      0.0000 
     15 C4'        29.6020   69.2250  -16.7660 C.3       1 GCP432      0.0000 
     16 O4'        29.1510   70.2440  -15.8290 O.3       1 GCP432      0.0000 
     17 C3'        31.1400   69.0680  -16.5700 C.3       1 GCP432      0.0000 
     18 O3'        31.7610   69.7280  -17.6810 O.3       1 GCP432      0.0000 
     19 C2'        31.4000   69.6620  -15.0860 C.3       1 GCP432      0.0000 
     20 O2'        32.6250   70.4010  -14.8430 O.3       1 GCP432      0.0000 
     21 C1'        30.1750   70.5580  -14.8280 C.3       1 GCP432      0.0000 
     22 N9         29.6460   70.4880  -13.5550 N.pl3     1 GCP432      0.0000 
     23 C8         29.3790   69.4270  -12.7270 C.2       1 GCP432      0.0000 
     24 N7         28.6750   69.6130  -11.6300 N.2       1 GCP432      0.0000 
     25 C5         28.4570   70.9930  -11.7600 C.2       1 GCP432      0.0000 
     26 C6         27.7520   71.8590  -10.8910 C.2       1 GCP432      0.0000 
     27 O6         27.3000   71.5510   -9.7840 O.2       1 GCP432      0.0000 
     28 N1         27.7190   73.1690  -11.3770 N.am      1 GCP432      0.0000 
     29 C2         28.3650   73.5670  -12.5270 C.2       1 GCP432      0.0000 
     30 N2         28.3840   74.8680  -12.7730 N.pl3     1 GCP432      0.0000 
     31 N3         29.0200   72.7730  -13.3390 N.2       1 GCP432      0.0000 
     32 C4         29.0310   71.5030  -12.9120 C.2       1 GCP432      0.0000 
     33 H          29.5770   62.5003  -18.6875 H         1 GCP432      0.0000 
     34 H          28.2620   61.4958  -18.0538 H         1 GCP432      0.0000 
     35 H          29.1558   67.7879  -15.2662 H         1 GCP432      0.0000 
     36 H          27.7575   68.3288  -16.2108 H         1 GCP432      0.0000 
     37 H          29.3775   69.4829  -17.7429 H         1 GCP432      0.0000 
     38 H          31.3243   68.0170  -16.5244 H         1 GCP432      0.0000 
     39 H          31.2855   68.8085  -14.4102 H         1 GCP432      0.0000 
     40 H          30.5212   71.6005  -15.0535 H         1 GCP432      0.0000 
     41 H          29.7439   68.4856  -12.9880 H         1 GCP432      0.0000 
     42 H          27.1701   73.8822  -10.8304 H         1 GCP432      0.0000 
     43 H          28.8467   75.1502  -13.6134 H         1 GCP432      0.0000 
     44 H          27.9339   75.4504  -12.0961 H         1 GCP432      0.0000 
     45 H          32.7120   69.8633  -17.4029 H         1 GCP432      0.0000 
     46 H          32.8434   70.2310  -13.8821 H         1 GCP432      0.0000 
@<TRIPOS>BOND
     1    2    1 ar   
     2    3    1 ar   
     3    4    1 ar   
     4    5    1 1    
     5    6    5 1    
     6   33    5 1    
     7   34    5 1    
     8    7    6 ar   
     9    8    6 ar   
    10    9    6 1    
    11   10    9 1    
    12   11   10 ar   
    13   12   10 ar   
    14   13   10 1    
    15   14   13 1    
    16   15   14 1    
    17   35   14 1    
    18   36   14 1    
    19   16   15 1    
    20   17   15 1    
    21   37   15 1    
    22   21   16 1    
    23   18   17 1    
    24   19   17 1    
    25   38   17 1    
    26   45   18 1    
    27   20   19 1    
    28   21   19 1    
    29   39   19 1    
    30   46   20 1    
    31   22   21 1    
    32   40   21 1    
    33   23   22 1    
    34   32   22 1    
    35   24   23 2    
    36   41   23 1    
    37   25   24 1    
    38   26   25 1    
    39   32   25 2    
    40   27   26 2    
    41   28   26 am   
    42   29   28 1    
    43   42   28 1    
    44   30   29 1    
    45   31   29 2    
    46   43   30 1    
    47   44   30 1    
    48   32   31 1    
@<TRIPOS>SUBSTRUCTURE
     1 GCP432      1 GROUP   
@<TRIPOS>SET

