#    Name: 1i75_NOJ_1_INTS_M
#    Modification time : Tue Mar 25 06:44:36 2014

@<TRIPOS>MOLECULE
1i75_NOJ_1_INTS_M
   17     0     9     0     0
SMALL
NO_CHARGES


@<TRIPOS>ATOM
      1 CA         43.8330   55.3515   19.5900 C.3       3 GLC5        0.0000 
      2 CA         45.2950   54.2460   19.5050 C.3       9 GLL5        0.0000 
      3 CA         42.3710   56.4570   19.6750 C.3       6 GLP5        0.0000 
      4 O          47.5895   50.6845   17.7985 O.2       1 ALC1        0.0000 
      5 O          47.6980   51.3160   19.3240 O.2       7 ALL1        0.0000 
      6 O          47.4810   50.0530   16.2730 O.2       4 ALP1        0.0000 
      7 N          46.4960   50.0940   17.2735 N.am      2 SEC2        0.0000 
      8 N          45.5110   50.1350   18.2740 N.am      8 SEL2        0.0000 
      9 N          47.4810   50.0530   16.2730 N.am      5 SEP2        0.0000 
     10 CA         41.0835   53.0130   18.2770 C.3       3 GLC5        0.0000 
     11 CA         42.6820   51.6040   18.7650 C.3       9 GLL5        0.0000 
     12 CA         39.4850   54.4220   17.7890 C.3       6 GLP5        0.0000 
     13 CA         46.3092   55.6105   20.7475 C.3       3 GLC5        0.0000 
     14 CA         46.7350   57.4220   21.7590 C.3       6 GLP5        0.0000 
     15 CA         43.1285   53.3870   17.2130 C.3       3 GLC5        0.0000 
     16 CA         44.0980   52.2460   18.5830 C.3       9 GLL5        0.0000 
     17 CA         42.8670   54.8490   15.7520 C.3       6 GLP5        0.0000 
@<TRIPOS>BOND
@<TRIPOS>SUBSTRUCTURE
     1 ALC1        4 GROUP        1 X    ALC  0     ROOT ALC X 1
     2 SEC2        7 GROUP        1 X    SEC  0     **** SEC X 2
     3 GLC5        1 GROUP        1 X    GLC  0     **** GLC X 6
     4 ALP1        6 GROUP        1 Y    ALP  0     ROOT ALP Y 8
     5 SEP2        9 GROUP        1 Y    SEP  0     **** SEP Y 9
     6 GLP5        3 GROUP        1 Y    GLP  0     **** GLP Y 13
     7 ALL1        5 GROUP        1 Z    ALL  0     ROOT ALL Z 15
     8 SEL2        8 GROUP        1 Z    SEL  0     **** SEL Z 16
     9 GLL5        2 GROUP        1 Z    GLL  0     **** GLL Z 20
@<TRIPOS>SET

