#    Name: 1i75_NOJ_1_ligand
#    Modification time : Tue Mar 25 06:44:36 2014

@<TRIPOS>MOLECULE
1i75_NOJ_1_ligand
   23    23     1     0     0
SMALL
NO_CHARGES


@<TRIPOS>ATOM
      1 C1         45.2950   54.2460   19.5050 C.3       1 NOJ2691     0.0000 
      2 C2         46.4720   53.3520   19.9670 C.3       1 NOJ2691     0.0000 
      3 O2         47.6940   54.0860   19.9250 O.3       1 NOJ2691     0.0000 
      4 C3         46.5800   52.1620   19.0320 C.3       1 NOJ2691     0.0000 
      5 O3         47.6980   51.3160   19.3240 O.3       1 NOJ2691     0.0000 
      6 C4         45.2800   51.3150   19.0880 C.3       1 NOJ2691     0.0000 
      7 O4         45.5110   50.1350   18.2740 O.3       1 NOJ2691     0.0000 
      8 C5         44.0980   52.2460   18.5830 C.3       1 NOJ2691     0.0000 
      9 N5         44.0380   53.4810   19.3650 N.4       1 NOJ2691     0.0000 
     10 C6         42.6820   51.6040   18.7650 C.3       1 NOJ2691     0.0000 
     11 O6         42.2520   51.8940   20.1210 O.3       1 NOJ2691     0.0000 
     12 H          45.5769   54.7054   18.5488 H         1 NOJ2691     0.0000 
     13 H          45.1771   55.0529   20.2398 H         1 NOJ2691     0.0000 
     14 H          46.2504   52.9954   20.9516 H         1 NOJ2691     0.0000 
     15 H          46.6474   52.5420   18.0049 H         1 NOJ2691     0.0000 
     16 H          45.1023   51.0786   20.1128 H         1 NOJ2691     0.0000 
     17 H          44.2353   52.4606   17.5509 H         1 NOJ2691     0.0000 
     18 H          42.7823   50.5442   18.5897 H         1 NOJ2691     0.0000 
     19 H          42.0289   52.0470   18.0294 H         1 NOJ2691     0.0000 
     20 H          48.3978   53.4053   19.7220 H         1 NOJ2691     0.0000 
     21 H          47.7144   50.6442   18.5834 H         1 NOJ2691     0.0000 
     22 H          46.3581   49.7384   18.6278 H         1 NOJ2691     0.0000 
     23 H          42.8294   52.4714   20.6984 H         1 NOJ2691     0.0000 
@<TRIPOS>BOND
     1    2    1 1    
     2    9    1 1    
     3   12    1 1    
     4   13    1 1    
     5    3    2 1    
     6    4    2 1    
     7   14    2 1    
     8   20    3 1    
     9    5    4 1    
    10    6    4 1    
    11   15    4 1    
    12   21    5 1    
    13    7    6 1    
    14    8    6 1    
    15   16    6 1    
    16   22    7 1    
    17    9    8 1    
    18   10    8 1    
    19   17    8 1    
    20   11   10 1    
    21   18   10 1    
    22   19   10 1    
    23   23   11 1    
@<TRIPOS>SUBSTRUCTURE
     1 NOJ2691     1 GROUP   
@<TRIPOS>SET

