#    Name: 2oid_ANP_1_INTS_M
#    Modification time : Tue Mar 25 22:44:21 2014

@<TRIPOS>MOLECULE
2oid_ANP_1_INTS_M
   53     0    12     0     0
SMALL
NO_CHARGES


@<TRIPOS>ATOM
      1 N          17.9590    4.0775    0.4475 N.am      2 SEC2        0.0000 
      2 N          19.4260    3.7570    0.5380 N.am     10 SEL2        0.0000 
      3 N          16.4920    4.3980    0.3570 N.am      6 SEP2        0.0000 
      4 NZ         21.8430    5.1510    3.2535 N.4       3 LYC4        0.0000 
      5 NZ         21.1170    5.1620    1.8880 N.4      11 LYL4        0.0000 
      6 NZ         22.5690    5.1400    4.6190 N.4       7 LYP4        0.0000 
      7 N          21.8430    5.1510    3.2535 N.am      2 SEC2        0.0000 
      8 N          21.1170    5.1620    1.8880 N.am     10 SEL2        0.0000 
      9 N          22.5690    5.1400    4.6190 N.am      6 SEP2        0.0000 
     10 N          21.5505    0.3640    0.0905 N.am      2 SEC2        0.0000 
     11 N          20.4410   -0.4660    0.6880 N.am     10 SEL2        0.0000 
     12 N          22.6600    1.1940   -0.5070 N.am      6 SEP2        0.0000 
     13 CA         16.3585    0.4445    1.6855 C.3       4 GLC5        0.0000 
     14 CA         16.9520   -1.5120    1.8760 C.3      12 GLL5        0.0000 
     15 CA         15.7650    2.4010    1.4950 C.3       8 GLP5        0.0000 
     16 CA         16.6210   -2.9670    0.5190 C.3       4 GLC5        0.0000 
     17 CA         16.2900   -4.4220   -0.8380 C.3       8 GLP5        0.0000 
     18 CA         15.9190   -3.8890    1.4480 C.3       4 GLC5        0.0000 
     19 CA         16.5890   -2.5890    2.8930 C.3      12 GLL5        0.0000 
     20 CA         15.2490   -5.1890    0.0030 C.3       8 GLP5        0.0000 
     21 CA         20.2745   -4.4585    4.8075 C.3       4 GLC5        0.0000 
     22 CA         18.2720   -3.7070    4.2390 C.3      12 GLL5        0.0000 
     23 CA         22.2770   -5.2100    5.3760 C.3       8 GLP5        0.0000 
     24 CA         16.6805   -5.6590    1.7955 C.3       4 GLC5        0.0000 
     25 CA         17.6400   -4.6880    3.2430 C.3      12 GLL5        0.0000 
     26 CA         15.7210   -6.6300    0.3480 C.3       8 GLP5        0.0000 
     27 CA         21.6615   -9.5045    2.3540 C.3       4 GLC5        0.0000 
     28 CA         20.3210   -8.3190    1.2180 C.3      12 GLL5        0.0000 
     29 CA         23.0020  -10.6900    3.4900 C.3       8 GLP5        0.0000 
     30 O          21.4480  -10.0385   -0.0490 O.2       1 ALC1        0.0000 
     31 O          21.2040   -8.5960    0.2340 O.2       9 ALL1        0.0000 
     32 O          21.6920  -11.4810   -0.3320 O.2       5 ALP1        0.0000 
     33 N          20.1420  -10.6650    2.6300 N.am      2 SEC2        0.0000 
     34 N          19.9220   -9.2760    2.0880 N.am     10 SEL2        0.0000 
     35 N          20.3620  -12.0540    3.1720 N.am      6 SEP2        0.0000 
     36 CA         18.3545   -9.4990    1.1440 C.3       4 GLC5        0.0000 
     37 CA         19.0560   -9.0030    3.0820 C.3      12 GLL5        0.0000 
     38 CA         17.6530   -9.9950   -0.7940 C.3       8 GLP5        0.0000 
     39 CA         19.3830  -10.9700    2.0425 C.3       4 GLC5        0.0000 
     40 CA         19.7100  -12.9370    1.0030 C.3       8 GLP5        0.0000 
     41 CA         20.5010   -9.8995    3.8445 C.3       4 GLC5        0.0000 
     42 CA         21.9460  -10.7960    4.6070 C.3       8 GLP5        0.0000 
     43 CA         20.6700   -7.8365    3.1940 C.3       4 GLC5        0.0000 
     44 CA         22.2840   -6.6700    3.3060 C.3       8 GLP5        0.0000 
     45 CA         15.0448   -1.2492    2.2797 C.3       4 GLC5        0.0000 
     46 CA         13.3190   -0.4480    2.1750 C.3       8 GLP5        0.0000 
     47 CA         15.1420   -3.0928    3.9075 C.3       4 GLC5        0.0000 
     48 CA         13.3090   -3.6420    4.2700 C.3       8 GLP5        0.0000 
     49 CA         17.5382   -6.7615    1.1230 C.3       4 GLC5        0.0000 
     50 CA         18.8850   -6.7520    2.4470 C.3      12 GLL5        0.0000 
     51 CA         18.8633   -8.8358    0.2447 C.3       4 GLC5        0.0000 
     52 CA         19.8260   -7.0340    1.3490 C.3      12 GLL5        0.0000 
     53 CA         20.8816   -6.9421    2.5856 C.3       4 GLC5        0.0000 
@<TRIPOS>BOND
@<TRIPOS>SUBSTRUCTURE
     1 ALC1       30 GROUP        1 X    ALC  0     ROOT ALC X 1
     2 SEC2        1 GROUP        1 X    SEC  0     **** SEC X 2
     3 LYC4        4 GROUP        1 X    LYC  0     **** LYC X 4
     4 GLC5       13 GROUP        1 X    GLC  0     **** GLC X 6
     5 ALP1       32 GROUP        1 Y    ALP  0     ROOT ALP Y 8
     6 SEP2        3 GROUP        1 Y    SEP  0     **** SEP Y 9
     7 LYP4        6 GROUP        1 Y    LYP  0     **** LYP Y 11
     8 GLP5       15 GROUP        1 Y    GLP  0     **** GLP Y 13
     9 ALL1       31 GROUP        1 Z    ALL  0     ROOT ALL Z 15
    10 SEL2        2 GROUP        1 Z    SEL  0     **** SEL Z 16
    11 LYL4        5 GROUP        1 Z    LYL  0     **** LYL Z 18
    12 GLL5       14 GROUP        1 Z    GLL  0     **** GLL Z 20
@<TRIPOS>SET

