#    Name: 2oid_ANP_1_ligand
#    Modification time : Tue Mar 25 22:44:21 2014

@<TRIPOS>MOLECULE
2oid_ANP_1_ligand
   43    45     1     0     0
SMALL
NO_CHARGES


@<TRIPOS>ATOM
      1 PG         20.5680    3.7850    1.5420 P.3       1 ANP1        0.0000 
      2 O1G        21.6420    2.7770    1.2030 O.co2     1 ANP1        0.0000 
      3 O2G        19.4260    3.7570    0.5380 O.co2     1 ANP1        0.0000 
      4 O3G        21.1170    5.1620    1.8880 O.co2     1 ANP1        0.0000 
      5 PB         19.6690    1.4940    3.1900 P.3       1 ANP1        0.0000 
      6 O1B        18.8350    1.1550    4.4160 O.co2     1 ANP1        0.0000 
      7 O2B        21.0450    0.8810    3.0490 O.co2     1 ANP1        0.0000 
      8 N3B        19.8820    3.2220    3.0590 N.4       1 ANP1        0.0000 
      9 PA         18.9830   -0.1740    0.9130 P.3       1 ANP1        0.0000 
     10 O1A        20.4410   -0.4660    0.6880 O.co2     1 ANP1        0.0000 
     11 O2A        18.0690    0.0620   -0.2690 O.co2     1 ANP1        0.0000 
     12 O3A        18.7890    1.1100    1.8780 O.3       1 ANP1        0.0000 
     13 O5'        18.3690   -1.3880    1.7690 O.3       1 ANP1        0.0000 
     14 C5'        16.9520   -1.5120    1.8760 C.3       1 ANP1        0.0000 
     15 C4'        16.5890   -2.5890    2.8930 C.3       1 ANP1        0.0000 
     16 O4'        16.8410   -3.8870    2.3600 O.3       1 ANP1        0.0000 
     17 C3'        17.3610   -2.4980    4.1970 C.3       1 ANP1        0.0000 
     18 O3'        16.3840   -2.5850    5.2450 O.3       1 ANP1        0.0000 
     19 C2'        18.2720   -3.7070    4.2390 C.3       1 ANP1        0.0000 
     20 O2'        18.2810   -4.2600    5.5660 O.3       1 ANP1        0.0000 
     21 C1'        17.6400   -4.6880    3.2430 C.3       1 ANP1        0.0000 
     22 N9         18.5910   -5.4410    2.3710 N.pl3     1 ANP1        0.0000 
     23 C8         19.2660   -4.9160    1.3160 C.2       1 ANP1        0.0000 
     24 N7         20.0160   -5.8690    0.6930 N.2       1 ANP1        0.0000 
     25 C5         19.8260   -7.0340    1.3490 C.ar      1 ANP1        0.0000 
     26 C6         20.3210   -8.3190    1.2180 C.ar      1 ANP1        0.0000 
     27 N6         21.2040   -8.5960    0.2340 N.pl3     1 ANP1        0.0000 
     28 N1         19.9220   -9.2760    2.0880 N.ar      1 ANP1        0.0000 
     29 C2         19.0560   -9.0030    3.0820 C.ar      1 ANP1        0.0000 
     30 N3         18.5380   -7.7720    3.2700 N.ar      1 ANP1        0.0000 
     31 C4         18.8850   -6.7520    2.4470 C.ar      1 ANP1        0.0000 
     32 H          16.4947   -1.7903    0.9160 H         1 ANP1        0.0000 
     33 H          16.4853   -0.5721    2.2028 H         1 ANP1        0.0000 
     34 H          15.5266   -2.4938    3.1314 H         1 ANP1        0.0000 
     35 H          17.9138   -1.6176    4.2154 H         1 ANP1        0.0000 
     36 H          19.2249   -3.4331    3.8869 H         1 ANP1        0.0000 
     37 H          17.0065   -5.3678    3.7784 H         1 ANP1        0.0000 
     38 H          19.2220   -3.9795    1.0378 H         1 ANP1        0.0000 
     39 H          21.4691   -7.8276   -0.3485 H         1 ANP1        0.0000 
     40 H          21.5142   -9.5449    0.1754 H         1 ANP1        0.0000 
     41 H          18.7708   -9.7817    3.7401 H         1 ANP1        0.0000 
     42 H          16.3446   -1.6667    5.6388 H         1 ANP1        0.0000 
     43 H          17.5226   -3.8110    6.0385 H         1 ANP1        0.0000 
@<TRIPOS>BOND
     1    2    1 ar   
     2    3    1 ar   
     3    4    1 ar   
     4    8    1 1    
     5    6    5 ar   
     6    7    5 ar   
     7    8    5 1    
     8   12    5 1    
     9   10    9 ar   
    10   11    9 ar   
    11   12    9 1    
    12   13    9 1    
    13   14   13 1    
    14   15   14 1    
    15   32   14 1    
    16   33   14 1    
    17   16   15 1    
    18   17   15 1    
    19   34   15 1    
    20   21   16 1    
    21   18   17 1    
    22   19   17 1    
    23   35   17 1    
    24   42   18 1    
    25   20   19 1    
    26   21   19 1    
    27   36   19 1    
    28   43   20 1    
    29   22   21 1    
    30   37   21 1    
    31   23   22 1    
    32   31   22 1    
    33   24   23 2    
    34   38   23 1    
    35   25   24 1    
    36   26   25 ar   
    37   31   25 ar   
    38   27   26 1    
    39   28   26 ar   
    40   39   27 1    
    41   40   27 1    
    42   29   28 ar   
    43   30   29 ar   
    44   41   29 1    
    45   31   30 ar   
@<TRIPOS>SUBSTRUCTURE
     1 ANP1        1 GROUP   
@<TRIPOS>SET

