#    Name: 2b53_D23_1_INTS_M
#    Modification time : Mon Mar 24 20:04:30 2014

@<TRIPOS>MOLECULE
2b53_D23_1_INTS_M
   66     0     6     0     0
SMALL
NO_CHARGES


@<TRIPOS>ATOM
      1 CA         81.6820   63.1550   59.7710 C.3       2 GLC5        0.0000 
      2 CA         82.4300   65.0130   59.3270 C.3       6 GLL5        0.0000 
      3 CA         80.9340   61.2970   60.2150 C.3       4 GLP5        0.0000 
      4 CA         84.4615   64.1355   61.7650 C.3       2 GLC5        0.0000 
      5 CA         83.3220   65.2760   60.4460 C.3       6 GLL5        0.0000 
      6 CA         85.6010   62.9950   63.0840 C.3       4 GLP5        0.0000 
      7 CA         82.4195   68.6430   57.4920 C.3       2 GLC5        0.0000 
      8 CA         81.9850   67.4520   59.2960 C.3       6 GLL5        0.0000 
      9 CA         82.8540   69.8340   55.6880 C.3       4 GLP5        0.0000 
     10 O          83.4265   62.7215   61.2790 O.2       1 ALC1        0.0000 
     11 O          84.0230   64.1860   60.9370 O.2       5 ALL1        0.0000 
     12 O          82.8300   61.2570   61.6210 O.2       3 ALP1        0.0000 
     13 O          83.6010   62.8325   60.2195 O.2       1 ALC1        0.0000 
     14 O          83.1790   61.4790   59.5020 O.2       3 ALP1        0.0000 
     15 CA         79.5835   66.7640   53.6070 C.3       2 GLC5        0.0000 
     16 CA         78.7520   65.7190   55.3740 C.3       6 GLL5        0.0000 
     17 CA         80.4150   67.8090   51.8400 C.3       4 GLP5        0.0000 
     18 CA         79.2055   66.2930   52.5600 C.3       2 GLC5        0.0000 
     19 CA         77.9960   64.7770   53.2800 C.3       6 GLL5        0.0000 
     20 CA         77.0810   63.8610   54.9290 C.3       2 GLC5        0.0000 
     21 CA         76.1660   62.9450   56.5780 C.3       4 GLP5        0.0000 
     22 O          81.6830   62.5415   55.3090 O.2       1 ALC1        0.0000 
     23 O          80.9900   62.9060   53.8270 O.2       5 ALL1        0.0000 
     24 O          82.3760   62.1770   56.7910 O.2       3 ALP1        0.0000 
     25 CA         79.5115   59.1585   53.8540 C.3       2 GLC5        0.0000 
     26 CA         80.0050   60.7700   53.0640 C.3       6 GLL5        0.0000 
     27 CA         79.0180   57.5470   54.6440 C.3       4 GLP5        0.0000 
     28 CA         77.9450   60.5290   53.5420 C.3       2 GLC5        0.0000 
     29 CA         75.8850   60.2880   54.0200 C.3       4 GLP5        0.0000 
     30 CA         82.7720   62.1165   50.4830 C.3       2 GLC5        0.0000 
     31 CA         81.2260   62.2460   51.4510 C.3       6 GLL5        0.0000 
     32 CA         84.3180   61.9870   49.5150 C.3       4 GLP5        0.0000 
     33 CA         81.3605   64.1320   50.9355 C.3       2 GLC5        0.0000 
     34 CA         81.4950   66.0180   50.4200 C.3       4 GLP5        0.0000 
     35 CA         80.9395   62.5335   49.3665 C.3       2 GLC5        0.0000 
     36 CA         80.6530   62.8210   47.2820 C.3       4 GLP5        0.0000 
     37 CA         83.4435   61.5460   51.3945 C.3       2 GLC5        0.0000 
     38 CA         82.5690   61.1050   53.2740 C.3       6 GLL5        0.0000 
     39 CA         76.2825   61.8805   52.9955 C.3       2 GLC5        0.0000 
     40 CA         76.6800   63.4730   51.9710 C.3       6 GLL5        0.0000 
     41 CA         74.1560   64.0015   53.1555 C.3       2 GLC5        0.0000 
     42 CA         75.8050   65.3020   52.7650 C.3       6 GLL5        0.0000 
     43 CA         72.5070   62.7010   53.5460 C.3       4 GLP5        0.0000 
     44 CA         74.5375   65.9575   51.9695 C.3       2 GLC5        0.0000 
     45 CA         73.2700   66.6130   51.1740 C.3       4 GLP5        0.0000 
     46 CA         75.9855   64.1235   54.6715 C.3       2 GLC5        0.0000 
     47 CA         78.8780   66.5920   51.5455 C.3       2 GLC5        0.0000 
     48 CA         77.3410   65.3750   51.2510 C.3       6 GLL5        0.0000 
     49 CA         77.9935   65.7680   49.2320 C.3       2 GLC5        0.0000 
     50 CA         78.6460   66.1610   47.2130 C.3       4 GLP5        0.0000 
     51 CA         81.2320   65.2228   61.1198 C.3       2 GLC5        0.0000 
     52 CA         79.5880   65.3010   62.3530 C.3       4 GLP5        0.0000 
     53 CA         81.3920   66.2297   61.5442 C.3       2 GLC5        0.0000 
     54 CA         83.5370   66.5950   61.0380 C.3       6 GLL5        0.0000 
     55 CA         80.7162   66.0422   60.6788 C.3       2 GLC5        0.0000 
     56 CA         77.4048   64.5670   56.2515 C.3       2 GLC5        0.0000 
     57 CA         78.5350   66.6590   56.4760 C.3       6 GLL5        0.0000 
     58 CA         79.6112   67.9269   55.6619 C.3       2 GLC5        0.0000 
     59 CA         80.3410   69.6470   55.1280 C.3       4 GLP5        0.0000 
     60 CA         79.2263   63.3568   56.8678 C.3       2 GLC5        0.0000 
     61 CA         79.9610   64.8020   55.3300 C.3       6 GLL5        0.0000 
     62 CA         78.0190   61.8510   57.8450 C.3       4 GLP5        0.0000 
     63 CA         76.7241   67.0286   52.4464 C.3       2 GLC5        0.0000 
     64 CA         76.4650   68.8560   52.8820 C.3       4 GLP5        0.0000 
     65 CA         75.9213   65.1965   50.5046 C.3       2 GLC5        0.0000 
     66 CA         74.7780   65.6550   49.3230 C.3       4 GLP5        0.0000 
@<TRIPOS>BOND
@<TRIPOS>SUBSTRUCTURE
     1 ALC1       10 GROUP        1 X    ALC  0     ROOT ALC X 1
     2 GLC5        1 GROUP        1 X    GLC  0     **** GLC X 6
     3 ALP1       12 GROUP        1 Y    ALP  0     ROOT ALP Y 8
     4 GLP5        3 GROUP        1 Y    GLP  0     **** GLP Y 13
     5 ALL1       11 GROUP        1 Z    ALL  0     ROOT ALL Z 15
     6 GLL5        2 GROUP        1 Z    GLL  0     **** GLL Z 20
@<TRIPOS>SET

