#    Name: 2b53_D23_1_ligand
#    Modification time : Mon Mar 24 20:04:30 2014

@<TRIPOS>MOLECULE
2b53_D23_1_ligand
   45    47     1     0     0
SMALL
NO_CHARGES


@<TRIPOS>ATOM
      1 C1         82.4300   65.0130   59.3270 C.ar      1 D23299      0.0000 
      2 C2         83.3220   65.2760   60.4460 C.ar      1 D23299      0.0000 
      3 C3         83.5370   66.5950   61.0380 C.ar      1 D23299      0.0000 
      4 C4         82.8550   67.7220   60.4330 C.ar      1 D23299      0.0000 
      5 C5         81.9850   67.4520   59.2960 C.ar      1 D23299      0.0000 
      6 C6         81.7040   66.1150   58.7130 C.ar      1 D23299      0.0000 
      7 N7         84.0230   64.1860   60.9370 N.pl3     1 D23299      0.0000 
      8 C8         80.7080   65.8880   57.5900 C.ar      1 D23299      0.0000 
      9 C9         79.4870   66.7300   57.5590 C.ar      1 D23299      0.0000 
     10 C10        78.5350   66.6590   56.4760 C.ar      1 D23299      0.0000 
     11 C11        78.7520   65.7190   55.3740 C.ar      1 D23299      0.0000 
     12 C12        79.9610   64.8020   55.3300 C.ar      1 D23299      0.0000 
     13 C13        80.9060   64.9230   56.4510 C.ar      1 D23299      0.0000 
     14 N14        77.8500   65.6320   54.3280 N.ar      1 D23299      0.0000 
     15 C15        77.9960   64.7770   53.2800 C.ar      1 D23299      0.0000 
     16 N16        79.0650   63.9280   53.1600 N.ar      1 D23299      0.0000 
     17 C17        80.0260   63.9220   54.1480 C.ar      1 D23299      0.0000 
     18 N18        80.9900   62.9060   53.8270 N.pl3     1 D23299      0.0000 
     19 C19        81.2110   61.7530   52.9140 C.3       1 D23299      0.0000 
     20 C20        80.0050   60.7700   53.0640 C.3       1 D23299      0.0000 
     21 C21        81.2260   62.2460   51.4510 C.3       1 D23299      0.0000 
     22 C22        82.5690   61.1050   53.2740 C.3       1 D23299      0.0000 
     23 C23        76.8960   64.7290   52.2720 C.3       1 D23299      0.0000 
     24 F24        76.6800   63.4730   51.9710 F         1 D23299      0.0000 
     25 F25        75.8050   65.3020   52.7650 F         1 D23299      0.0000 
     26 F26        77.3410   65.3750   51.2510 F         1 D23299      0.0000 
     27 H          82.3159   64.0781   58.9807 H         1 D23299      0.0000 
     28 H          84.1277   66.7087   61.8232 H         1 D23299      0.0000 
     29 H          82.9737   68.6422   60.7771 H         1 D23299      0.0000 
     30 H          81.5105   68.2657   58.8418 H         1 D23299      0.0000 
     31 H          84.6393   64.3681   61.7032 H         1 D23299      0.0000 
     32 H          83.8519   63.3118   60.4826 H         1 D23299      0.0000 
     33 H          79.3304   67.3732   58.3339 H         1 D23299      0.0000 
     34 H          77.7209   67.2504   56.4698 H         1 D23299      0.0000 
     35 H          81.7362   64.3335   56.4706 H         1 D23299      0.0000 
     36 H          81.9323   63.0125   54.5164 H         1 D23299      0.0000 
     37 H          80.0990   59.9731   52.4672 H         1 D23299      0.0000 
     38 H          79.9194   60.4272   53.9995 H         1 D23299      0.0000 
     39 H          79.1370   61.2090   52.8322 H         1 D23299      0.0000 
     40 H          81.9511   62.9162   51.2923 H         1 D23299      0.0000 
     41 H          81.3750   61.4951   50.8076 H         1 D23299      0.0000 
     42 H          80.3628   62.6825   51.1973 H         1 D23299      0.0000 
     43 H          83.3261   61.7511   53.1770 H         1 D23299      0.0000 
     44 H          82.5844   60.7749   54.2178 H         1 D23299      0.0000 
     45 H          82.7744   60.3224   52.6864 H         1 D23299      0.0000 
@<TRIPOS>BOND
     1    2    1 ar   
     2    6    1 ar   
     3   27    1 1    
     4    3    2 ar   
     5    7    2 1    
     6    4    3 ar   
     7   28    3 1    
     8    5    4 ar   
     9   29    4 1    
    10    6    5 ar   
    11   30    5 1    
    12    8    6 1    
    13   31    7 1    
    14   32    7 1    
    15    9    8 ar   
    16   13    8 ar   
    17   10    9 ar   
    18   33    9 1    
    19   11   10 ar   
    20   34   10 1    
    21   12   11 ar   
    22   14   11 ar   
    23   13   12 ar   
    24   17   12 ar   
    25   35   13 1    
    26   15   14 ar   
    27   16   15 ar   
    28   23   15 1    
    29   17   16 ar   
    30   18   17 1    
    31   19   18 1    
    32   36   18 1    
    33   20   19 1    
    34   21   19 1    
    35   22   19 1    
    36   37   20 1    
    37   38   20 1    
    38   39   20 1    
    39   40   21 1    
    40   41   21 1    
    41   42   21 1    
    42   43   22 1    
    43   44   22 1    
    44   45   22 1    
    45   24   23 1    
    46   25   23 1    
    47   26   23 1    
@<TRIPOS>SUBSTRUCTURE
     1 D23299      1 GROUP   
@<TRIPOS>SET

