#    Name: 3hti_MGR_1_INTS_M
#    Modification time : Tue Mar 25 14:56:12 2014

@<TRIPOS>MOLECULE
3hti_MGR_1_INTS_M
   62     0     3     0     0
SMALL
NO_CHARGES


@<TRIPOS>ATOM
      1 CA         20.0210  -21.0520   11.8910 C.3       1 GLC5        0.0000 
      2 CA         21.2110  -20.7000   10.1130 C.3       3 GLL5        0.0000 
      3 CA         18.8310  -21.4040   13.6690 C.3       2 GLP5        0.0000 
      4 CA         21.7520  -23.2940   13.6835 C.3       1 GLC5        0.0000 
      5 CA         23.5080  -24.2640   13.3320 C.3       3 GLL5        0.0000 
      6 CA         19.9960  -22.3240   14.0350 C.3       2 GLP5        0.0000 
      7 CA         26.6940  -24.3455   10.3685 C.3       1 GLC5        0.0000 
      8 CA         25.3380  -25.1090   11.8810 C.3       3 GLL5        0.0000 
      9 CA         28.0500  -23.5820    8.8560 C.3       2 GLP5        0.0000 
     10 CA         25.0865  -19.3840   10.2455 C.3       1 GLC5        0.0000 
     11 CA         26.1510  -20.6060   11.3290 C.3       3 GLL5        0.0000 
     12 CA         24.0220  -18.1620    9.1620 C.3       2 GLP5        0.0000 
     13 CA         26.2555  -19.0195    9.7650 C.3       1 GLC5        0.0000 
     14 CA         27.3750  -19.9490   11.3850 C.3       3 GLL5        0.0000 
     15 CA         25.1360  -18.0900    8.1450 C.3       2 GLP5        0.0000 
     16 CA         29.9735  -22.4770   13.9320 C.3       1 GLC5        0.0000 
     17 CA         28.3830  -21.8920   12.5140 C.3       3 GLL5        0.0000 
     18 CA         31.5640  -23.0620   15.3500 C.3       2 GLP5        0.0000 
     19 CA         22.0615  -26.9010   16.2900 C.3       1 GLC5        0.0000 
     20 CA         22.9760  -28.1820   14.9620 C.3       3 GLL5        0.0000 
     21 CA         21.1470  -25.6200   17.6180 C.3       2 GLP5        0.0000 
     22 CA         21.3585  -27.1560   14.6330 C.3       1 GLC5        0.0000 
     23 CA         19.7410  -26.1300   14.3040 C.3       2 GLP5        0.0000 
     24 CA         22.7115  -29.1660   13.2615 C.3       1 GLC5        0.0000 
     25 CA         22.4470  -30.1500   11.5610 C.3       2 GLP5        0.0000 
     26 CA         22.3630  -29.9675   15.6225 C.3       1 GLC5        0.0000 
     27 CA         21.7500  -31.7530   16.2830 C.3       2 GLP5        0.0000 
     28 CA         24.1925  -28.2695   16.1945 C.3       1 GLC5        0.0000 
     29 CA         25.4090  -28.3570   17.4270 C.3       2 GLP5        0.0000 
     30 CA         24.1665  -30.0375   12.4825 C.3       1 GLC5        0.0000 
     31 CA         24.8530  -29.0250   13.5220 C.3       3 GLL5        0.0000 
     32 CA         23.4800  -31.0500   11.4430 C.3       2 GLP5        0.0000 
     33 CA         25.1835  -31.0815   13.9695 C.3       1 GLC5        0.0000 
     34 CA         25.5140  -33.1380   14.4170 C.3       2 GLP5        0.0000 
     35 CA         25.1310  -28.6910   15.4745 C.3       1 GLC5        0.0000 
     36 CA         29.7415  -18.9125    9.3910 C.3       1 GLC5        0.0000 
     37 CA         29.9190  -18.5550   11.4890 C.3       3 GLL5        0.0000 
     38 CA         29.5640  -19.2700    7.2930 C.3       2 GLP5        0.0000 
     39 CA         31.9965  -21.8275   11.2625 C.3       1 GLC5        0.0000 
     40 CA         30.9320  -20.5650   12.6410 C.3       3 GLL5        0.0000 
     41 CA         33.0610  -23.0900    9.8840 C.3       2 GLP5        0.0000 
     42 CA         31.2480  -21.8135   13.9955 C.3       1 GLC5        0.0000 
     43 CA         23.5657  -19.8360   10.3758 C.3       1 GLC5        0.0000 
     44 CA         23.4890  -21.9780   11.2000 C.3       3 GLL5        0.0000 
     45 CA         21.0815  -21.5263   12.8697 C.3       1 GLC5        0.0000 
     46 CA         22.7300  -21.0420   11.9790 C.3       3 GLL5        0.0000 
     47 CA         19.9363  -19.4977    9.9413 C.3       1 GLC5        0.0000 
     48 CA         21.6040  -20.4150   11.4300 C.3       3 GLL5        0.0000 
     49 CA         18.4650  -18.4380    9.1110 C.3       2 GLP5        0.0000 
     50 CA         22.7147  -19.3597    9.9667 C.3       1 GLC5        0.0000 
     51 CA         20.6097  -18.9982   11.7588 C.3       1 GLC5        0.0000 
     52 CA         19.8120  -17.4390   12.7460 C.3       2 GLP5        0.0000 
     53 CA         23.2670  -20.0487    9.3833 C.3       1 GLC5        0.0000 
     54 CA         21.9440  -21.6130    9.3400 C.3       3 GLL5        0.0000 
     55 CA         23.7180  -21.5987    7.8352 C.3       1 GLC5        0.0000 
     56 CA         24.9240  -21.2620    6.0660 C.3       2 GLP5        0.0000 
     57 CA         24.6920  -26.2673   10.1672 C.3       1 GLC5        0.0000 
     58 CA         24.1290  -26.7910    8.1920 C.3       2 GLP5        0.0000 
     59 CA         27.3878  -22.0964   10.1734 C.3       1 GLC5        0.0000 
     60 CA         26.0010  -21.9390   11.8640 C.3       3 GLL5        0.0000 
     61 CA         27.9135  -22.9020   10.6720 C.3       1 GLC5        0.0000 
     62 CA         27.1710  -22.5520   12.4620 C.3       3 GLL5        0.0000 
@<TRIPOS>BOND
@<TRIPOS>SUBSTRUCTURE
     1 GLC5        1 GROUP        1 X    GLC  0     ROOT GLC X 6
     2 GLP5        3 GROUP        1 Y    GLP  0     ROOT GLP Y 13
     3 GLL5        2 GROUP        1 Z    GLL  0     ROOT GLL Z 20
@<TRIPOS>SET

