#    Name: 3hti_MGR_1_ligand
#    Modification time : Tue Mar 25 14:56:12 2014

@<TRIPOS>MOLECULE
3hti_MGR_1_ligand
   50    52     1     0     0
SMALL
NO_CHARGES


@<TRIPOS>ATOM
      1 C1         24.6880  -22.6490   11.8030 C.2       1 MGR201      0.0000 
      2 C2         23.4890  -21.9780   11.2000 C.ar      1 MGR201      0.0000 
      3 C3         22.7300  -21.0420   11.9790 C.ar      1 MGR201      0.0000 
      4 C4         21.6040  -20.4150   11.4300 C.ar      1 MGR201      0.0000 
      5 C5         21.2110  -20.7000   10.1130 C.ar      1 MGR201      0.0000 
      6 C6         21.9440  -21.6130    9.3400 C.ar      1 MGR201      0.0000 
      7 C7         23.0800  -22.2580    9.8690 C.ar      1 MGR201      0.0000 
      8 C8         24.5140  -24.0070   12.3360 C.ar      1 MGR201      0.0000 
      9 C9         23.5080  -24.2640   13.3320 C.ar      1 MGR201      0.0000 
     10 C10        23.3410  -25.5360   13.8450 C.ar      1 MGR201      0.0000 
     11 C11        24.1700  -26.6310   13.4040 C.ar      1 MGR201      0.0000 
     12 C12        25.1720  -26.3780   12.4040 C.ar      1 MGR201      0.0000 
     13 C13        25.3380  -25.1090   11.8810 C.ar      1 MGR201      0.0000 
     14 C14        26.0010  -21.9390   11.8640 C.2       1 MGR201      0.0000 
     15 C15        26.1510  -20.6060   11.3290 C.2       1 MGR201      0.0000 
     16 C16        27.3750  -19.9490   11.3850 C.2       1 MGR201      0.0000 
     17 C17        28.5230  -20.5760   11.9800 C.2       1 MGR201      0.0000 
     18 C18        28.3830  -21.8920   12.5140 C.2       1 MGR201      0.0000 
     19 C19        27.1710  -22.5520   12.4620 C.2       1 MGR201      0.0000 
     20 C22        22.9760  -28.1820   14.9620 C.3       1 MGR201      0.0000 
     21 C23        24.8530  -29.0250   13.5220 C.3       1 MGR201      0.0000 
     22 C24        29.9190  -18.5550   11.4890 C.3       1 MGR201      0.0000 
     23 C25        30.9320  -20.5650   12.6410 C.3       1 MGR201      0.0000 
     24 N2         24.0040  -27.9120   13.9430 N.pl3     1 MGR201      0.0000 
     25 N3         29.7520  -19.9190   12.0340 N.2       1 MGR201      0.0000 
     26 H          23.0242  -20.8422   12.9364 H         1 MGR201      0.0000 
     27 H          21.0651  -19.7465   11.9902 H         1 MGR201      0.0000 
     28 H          20.3859  -20.2395    9.7150 H         1 MGR201      0.0000 
     29 H          21.6510  -21.8160    8.3749 H         1 MGR201      0.0000 
     30 H          23.6069  -22.9206    9.3051 H         1 MGR201      0.0000 
     31 H          22.9246  -23.4822   13.6464 H         1 MGR201      0.0000 
     32 H          22.6213  -25.7323   14.5538 H         1 MGR201      0.0000 
     33 H          25.7561  -27.1616   12.0922 H         1 MGR201      0.0000 
     34 H          26.0436  -24.9156   11.1625 H         1 MGR201      0.0000 
     35 H          25.3302  -20.1583   10.9072 H         1 MGR201      0.0000 
     36 H          27.4810  -19.0019   11.0014 H         1 MGR201      0.0000 
     37 H          29.2082  -22.3380   12.9394 H         1 MGR201      0.0000 
     38 H          27.0656  -23.5017   12.8485 H         1 MGR201      0.0000 
     39 H          22.9817  -29.1394   15.2507 H         1 MGR201      0.0000 
     40 H          23.1122  -27.6275   15.7830 H         1 MGR201      0.0000 
     41 H          22.0563  -27.9834   14.6234 H         1 MGR201      0.0000 
     42 H          25.8192  -28.8460   13.7077 H         1 MGR201      0.0000 
     43 H          24.6156  -29.8731   13.9958 H         1 MGR201      0.0000 
     44 H          24.7713  -29.2042   12.5416 H         1 MGR201      0.0000 
     45 H          30.8546  -18.2212   11.6038 H         1 MGR201      0.0000 
     46 H          29.7124  -18.5178   10.5113 H         1 MGR201      0.0000 
     47 H          29.3158  -17.8980   11.9412 H         1 MGR201      0.0000 
     48 H          31.7383  -19.9746   12.6048 H         1 MGR201      0.0000 
     49 H          30.7777  -20.7918   13.6026 H         1 MGR201      0.0000 
     50 H          31.1708  -21.4163   12.1738 H         1 MGR201      0.0000 
@<TRIPOS>BOND
     1    2    1 1    
     2    8    1 1    
     3   14    1 2    
     4    3    2 ar   
     5    7    2 ar   
     6    4    3 ar   
     7   26    3 1    
     8    5    4 ar   
     9   27    4 1    
    10    6    5 ar   
    11   28    5 1    
    12    7    6 ar   
    13   29    6 1    
    14   30    7 1    
    15    9    8 ar   
    16   13    8 ar   
    17   10    9 ar   
    18   31    9 1    
    19   11   10 ar   
    20   32   10 1    
    21   12   11 ar   
    22   24   11 1    
    23   13   12 ar   
    24   33   12 1    
    25   34   13 1    
    26   15   14 1    
    27   19   14 1    
    28   16   15 2    
    29   35   15 1    
    30   17   16 1    
    31   36   16 1    
    32   18   17 1    
    33   25   17 2    
    34   19   18 2    
    35   37   18 1    
    36   38   19 1    
    37   24   20 1    
    38   39   20 1    
    39   40   20 1    
    40   41   20 1    
    41   24   21 1    
    42   42   21 1    
    43   43   21 1    
    44   44   21 1    
    45   25   22 1    
    46   45   22 1    
    47   46   22 1    
    48   47   22 1    
    49   25   23 1    
    50   48   23 1    
    51   49   23 1    
    52   50   23 1    
@<TRIPOS>SUBSTRUCTURE
     1 MGR201      1 GROUP   
@<TRIPOS>SET

