#    Name: 3rtt_KLH_1_INTS_M
#    Modification time : Mon Apr  7 20:35:43 2014

@<TRIPOS>MOLECULE
3rtt_KLH_1_INTS_M
   51     0    12     0     0
SMALL
NO_CHARGES


@<TRIPOS>ATOM
      1 Zn         -3.5495   -1.9910   -4.4725 Zn        3 ZIC7        0.0000 
      2 Zn         -2.9450   -2.6550   -3.9010 Zn       11 ZIL7        0.0000 
      3 Zn         -4.1540   -1.3270   -5.0440 Zn        7 ZIP7        0.0000 
      4 O          -0.1590   -2.2800   -5.9995 O.2       1 ALC1        0.0000 
      5 O          -1.2820   -2.0810   -5.3100 O.2       9 ALL1        0.0000 
      6 O           0.9640   -2.4790   -6.6890 O.2       5 ALP1        0.0000 
      7 Zn         -3.0980   -1.2340   -5.5005 Zn        3 ZIC7        0.0000 
      8 Zn         -2.0420   -1.1410   -5.9570 Zn       11 ZIL7        0.0000 
      9 O          -1.9795   -1.5545   -7.2195 O.2       1 ALC1        0.0000 
     10 O          -2.0420   -1.1410   -5.9570 O.2       9 ALL1        0.0000 
     11 O          -1.9170   -1.9680   -8.4820 O.2       5 ALP1        0.0000 
     12 O          -1.6350   -0.5215   -7.3890 O.2       1 ALC1        0.0000 
     13 O          -1.2280    0.0980   -8.8210 O.2       5 ALP1        0.0000 
     14 Zn         -2.7050   -3.1620   -4.3245 Zn        3 ZIC7        0.0000 
     15 Zn         -1.2560   -4.9970   -3.6050 Zn       11 ZIL7        0.0000 
     16 N           1.1140   -6.0135   -5.9760 N.am      2 SEC2        0.0000 
     17 N          -0.0880   -5.2530   -5.7090 N.am     10 SEL2        0.0000 
     18 N           2.3160   -6.7740   -6.2430 N.am      6 SEP2        0.0000 
     19 N           1.0340   -4.9195   -6.8260 N.am      2 SEC2        0.0000 
     20 N           2.1560   -4.5860   -7.9430 N.am      6 SEP2        0.0000 
     21 N           0.9470   -6.9380   -5.2535 N.am      2 SEC2        0.0000 
     22 N          -0.4220   -7.1020   -4.2640 N.am     10 SEL2        0.0000 
     23 CA         -1.4945   -7.8880   -6.8785 C.3       4 GLC5        0.0000 
     24 CA         -2.3020   -6.4110   -5.7230 C.3      12 GLL5        0.0000 
     25 CA         -0.6870   -9.3650   -8.0340 C.3       8 GLP5        0.0000 
     26 CA         -5.1280   -5.4645   -4.1630 C.3       4 GLC5        0.0000 
     27 CA         -3.5160   -5.5200   -5.6930 C.3      12 GLL5        0.0000 
     28 CA         -6.7400   -5.4090   -2.6330 C.3       8 GLP5        0.0000 
     29 CA         -6.2170   -5.7450   -4.7350 C.3       4 GLC5        0.0000 
     30 CA         -5.6940   -6.0810   -6.8370 C.3      12 GLL5        0.0000 
     31 CA         -2.1420   -7.8435   -8.0345 C.3       4 GLC5        0.0000 
     32 CA         -3.5970   -6.3220   -8.0350 C.3      12 GLL5        0.0000 
     33 CA         -2.5405   -5.8455   -9.7035 C.3       4 GLC5        0.0000 
     34 CA         -1.4840   -5.3690  -11.3720 C.3       8 GLP5        0.0000 
     35 CA         -6.0175   -4.5990   -7.8735 C.3       4 GLC5        0.0000 
     36 CA         -5.9880   -2.9080   -8.3410 C.3       8 GLP5        0.0000 
     37 CA         -4.3157   -4.2880   -7.4104 C.3       4 GLC5        0.0000 
     38 CA         -4.8790   -2.5390   -7.6590 C.3       8 GLP5        0.0000 
     39 CA         -4.3037   -6.1963  -10.9393 C.3       4 GLC5        0.0000 
     40 CA         -4.3010   -6.7360   -9.1700 C.3      12 GLL5        0.0000 
     41 CA         -3.6040   -5.6090  -12.7250 C.3       8 GLP5        0.0000 
     42 CA         -5.6082   -4.9712   -9.4827 C.3       4 GLC5        0.0000 
     43 CA         -6.2130   -3.1590   -9.8120 C.3       8 GLP5        0.0000 
     44 CA         -4.0144   -8.3392   -7.9724 C.3       4 GLC5        0.0000 
     45 CA         -3.9040  -10.2340   -7.6300 C.3       8 GLP5        0.0000 
     46 CA         -5.6113   -8.3742   -7.6457 C.3       4 GLC5        0.0000 
     47 CA         -5.7060   -6.8310   -9.1370 C.3      12 GLL5        0.0000 
     48 CA         -5.3460  -10.1880   -7.0200 C.3       8 GLP5        0.0000 
     49 CA          0.4462   -4.6720   -1.9784 C.3       4 GLC5        0.0000 
     50 CA         -0.7900   -3.6060   -3.5750 C.3      12 GLL5        0.0000 
     51 CA          2.0570   -5.1800   -1.6020 C.3       8 GLP5        0.0000 
@<TRIPOS>BOND
@<TRIPOS>SUBSTRUCTURE
     1 ALC1        4 GROUP        1 X    ALC  0     ROOT ALC X 1
     2 SEC2       16 GROUP        1 X    SEC  0     **** SEC X 2
     3 ZIC7        1 GROUP        1 X    ZIC  0     **** ZIC X 5
     4 GLC5       23 GROUP        1 X    GLC  0     **** GLC X 6
     5 ALP1        6 GROUP        1 Y    ALP  0     ROOT ALP Y 8
     6 SEP2       18 GROUP        1 Y    SEP  0     **** SEP Y 9
     7 ZIP7        3 GROUP        1 Y    ZIP  0     **** ZIP Y 12
     8 GLP5       25 GROUP        1 Y    GLP  0     **** GLP Y 13
     9 ALL1        5 GROUP        1 Z    ALL  0     ROOT ALL Z 15
    10 SEL2       17 GROUP        1 Z    SEL  0     **** SEL Z 16
    11 ZIL7        2 GROUP        1 Z    ZIL  0     **** ZIL Z 19
    12 GLL5       24 GROUP        1 Z    GLL  0     **** GLL Z 20
@<TRIPOS>SET

