#    Name: 3rtt_KLH_1_ligand
#    Modification time : Mon Apr  7 20:35:43 2014

@<TRIPOS>MOLECULE
3rtt_KLH_1_ligand
   38    39     1     0     0
SMALL
NO_CHARGES


@<TRIPOS>ATOM
      1 O4         -2.9450   -2.6550   -3.9010 O.2       1 KLH0        0.0000 
      2 C13        -1.7770   -2.7250   -4.2620 C.2       1 KLH0        0.0000 
      3 N1         -1.2820   -2.0810   -5.3100 N.am      1 KLH0        0.0000 
      4 O2         -2.0420   -1.1410   -5.9570 O.3       1 KLH0        0.0000 
      5 C1         -0.7900   -3.6060   -3.5750 C.3       1 KLH0        0.0000 
      6 N2         -1.2560   -4.9970   -3.6050 N.pl3     1 KLH0        0.0000 
      7 C4         -1.8880   -5.4110   -2.3750 C.3       1 KLH0        0.0000 
      8 C6         -1.3570   -4.3870   -1.3760 C.3       1 KLH0        0.0000 
      9 C3         -0.6230   -3.2520   -2.0930 C.3       1 KLH0        0.0000 
     10 S1         -1.0050   -5.9160   -4.8200 S.o2      1 KLH0        0.0000 
     11 O1         -0.0880   -5.2530   -5.7090 O.2       1 KLH0        0.0000 
     12 O3         -0.4220   -7.1020   -4.2640 O.2       1 KLH0        0.0000 
     13 C7         -2.3020   -6.4110   -5.7230 C.3       1 KLH0        0.0000 
     14 C8         -3.5160   -5.5200   -5.6930 C.3       1 KLH0        0.0000 
     15 C9         -4.3000   -5.9840   -6.8840 C.ar      1 KLH0        0.0000 
     16 C10        -5.6940   -6.0810   -6.8370 C.ar      1 KLH0        0.0000 
     17 C2         -6.4000   -6.4990   -7.9750 C.ar      1 KLH0        0.0000 
     18 C11        -3.5970   -6.3220   -8.0350 C.ar      1 KLH0        0.0000 
     19 C12        -4.3010   -6.7360   -9.1700 C.ar      1 KLH0        0.0000 
     20 C5         -5.7060   -6.8310   -9.1370 C.ar      1 KLH0        0.0000 
     21 H          -0.3187   -2.2744   -5.6573 H         1 KLH0        0.0000 
     22 H           0.1701   -3.5384   -4.0456 H         1 KLH0        0.0000 
     23 H          -1.5709   -6.3808   -2.0694 H         1 KLH0        0.0000 
     24 H          -2.9485   -5.3232   -2.4212 H         1 KLH0        0.0000 
     25 H          -0.6706   -4.8777   -0.6871 H         1 KLH0        0.0000 
     26 H          -2.1890   -3.9723   -0.8081 H         1 KLH0        0.0000 
     27 H          -1.1004   -2.3306   -1.8897 H         1 KLH0        0.0000 
     28 H           0.4024   -3.2680   -1.8352 H         1 KLH0        0.0000 
     29 H          -2.5422   -7.4243   -5.3583 H         1 KLH0        0.0000 
     30 H          -1.9163   -6.5246   -6.7506 H         1 KLH0        0.0000 
     31 H          -3.2251   -4.5057   -5.8164 H         1 KLH0        0.0000 
     32 H          -4.0679   -5.6882   -4.8009 H         1 KLH0        0.0000 
     33 H          -6.1985   -5.8489   -5.9783 H         1 KLH0        0.0000 
     34 H          -7.4221   -6.5586   -7.9477 H         1 KLH0        0.0000 
     35 H          -2.5764   -6.2696   -8.0549 H         1 KLH0        0.0000 
     36 H          -3.7971   -6.9722  -10.0313 H         1 KLH0        0.0000 
     37 H          -6.2118   -7.1450   -9.9712 H         1 KLH0        0.0000 
     38 H          -1.9930   -1.3899   -6.9243 H         1 KLH0        0.0000 
@<TRIPOS>BOND
     1    2    1 2    
     2    3    2 am   
     3    5    2 1    
     4    4    3 1    
     5   21    3 1    
     6   38    4 1    
     7    6    5 1    
     8    9    5 1    
     9   22    5 1    
    10    7    6 1    
    11   10    6 1    
    12    8    7 1    
    13   23    7 1    
    14   24    7 1    
    15    9    8 1    
    16   25    8 1    
    17   26    8 1    
    18   27    9 1    
    19   28    9 1    
    20   11   10 2    
    21   12   10 2    
    22   13   10 1    
    23   14   13 1    
    24   29   13 1    
    25   30   13 1    
    26   15   14 1    
    27   31   14 1    
    28   32   14 1    
    29   16   15 ar   
    30   18   15 ar   
    31   17   16 ar   
    32   33   16 1    
    33   20   17 ar   
    34   34   17 1    
    35   19   18 ar   
    36   35   18 1    
    37   20   19 ar   
    38   36   19 1    
    39   37   20 1    
@<TRIPOS>SUBSTRUCTURE
     1 KLH0        1 GROUP   
@<TRIPOS>SET

