#    Name: 3L3L_1_CAVITY_N1_6.mol2
#    Modification time : Tue Mar 11 10:28:48 2014

@<TRIPOS>MOLECULE
3L3L_1_CAVITY_N1_6.mol2
  176     0     7     0     0
SMALL
NO_CHARGES


@<TRIPOS>ATOM
      1 N         -26.5423   62.2531   33.0603 N.2       2 ALA2        0.0000 
      2 CA        -28.0752   62.8652   31.7279 C.3       6 GLY6        0.0000 
      3 CA        -27.1499   61.6876   31.8109 C.3       6 GLY6        0.0000 
      4 CA        -28.6828   62.2997   30.4785 C.3       6 GLY6        0.0000 
      5 N         -24.9225   63.5558   33.4838 N.2       2 ALA2        0.0000 
      6 DU        -26.4554   64.1679   32.1514 H         7 CUB7        0.0000 
      7 N         -25.5301   62.9902   32.2344 N.2       2 ALA2        0.0000 
      8 OG        -27.0630   63.6023   30.9020 O.2       1 SER1        0.0000 
      9 N         -26.1377   62.4247   30.9850 N.2       2 ALA2        0.0000 
     10 OG        -28.5960   64.2144   29.5695 O.2       1 SER1        0.0000 
     11 OG        -27.6706   63.0368   29.6526 O.2       1 SER1        0.0000 
     12 N         -26.7453   61.8592   29.7356 N.2       2 ALA2        0.0000 
     13 OD1       -29.2036   63.6489   28.3201 O.3       3 ASP3        0.0000 
     14 NZ        -28.2782   62.4712   28.4032 N.2       4 LYS4        0.0000 
     15 NZ        -27.3529   61.2936   28.4862 N.2       4 LYS4        0.0000 
     16 NZ        -23.9103   64.2929   32.6579 N.2       4 LYS4        0.0000 
     17 NZ        -22.9849   63.1153   32.7410 N.2       4 LYS4        0.0000 
     18 OG        -25.4432   64.9050   31.3255 O.2       1 SER1        0.0000 
     19 N         -24.5179   63.7274   31.4085 N.2       2 ALA2        0.0000 
     20 OG        -26.0508   64.3394   30.0761 O.2       1 SER1        0.0000 
     21 N         -25.1255   63.1618   30.1591 N.2       2 ALA2        0.0000 
     22 OG        -26.6584   63.7739   28.8267 O.2       1 SER1        0.0000 
     23 N         -25.7331   62.5963   28.9097 N.2       2 ALA2        0.0000 
     24 N         -24.8077   61.4186   28.9928 N.2       2 ALA2        0.0000 
     25 OG        -27.2660   63.2084   27.5773 O.2       1 SER1        0.0000 
     26 CZ        -26.3407   62.0307   27.6603 C.ar      5 PHE5        0.0000 
     27 CZ        -25.4153   60.8531   27.7434 C.ar      5 PHE5        0.0000 
     28 CA        -28.7990   63.8204   26.2448 C.3       6 GLY6        0.0000 
     29 CZ        -27.8736   62.6428   26.3279 C.ar      5 PHE5        0.0000 
     30 NZ        -23.8234   66.2077   31.7490 N.2       4 LYS4        0.0000 
     31 NZ        -21.9727   63.8524   31.9151 N.2       4 LYS4        0.0000 
     32 CA        -21.0474   62.6748   31.9981 C.3       6 GLY6        0.0000 
     33 N         -20.1220   61.4971   32.0812 N.2       2 ALA2        0.0000 
     34 CZ        -24.4310   65.6421   30.4996 C.ar      5 PHE5        0.0000 
     35 NZ        -23.5057   64.4645   30.5826 N.2       4 LYS4        0.0000 
     36 N         -22.5803   63.2868   30.6657 N.2       2 ALA2        0.0000 
     37 N         -21.6550   62.1092   30.7487 N.2       2 ALA2        0.0000 
     38 CZ        -20.7296   60.9316   30.8318 C.ar      5 PHE5        0.0000 
     39 CZ        -25.0386   65.0766   29.2502 C.ar      5 PHE5        0.0000 
     40 DU        -24.1133   63.8989   29.3332 H         7 CUB7        0.0000 
     41 N         -23.1879   62.7213   29.4163 N.2       2 ALA2        0.0000 
     42 N         -22.2626   61.5437   29.4993 N.2       2 ALA2        0.0000 
     43 OG        -25.6462   64.5110   28.0008 O.2       1 SER1        0.0000 
     44 DU        -24.7209   63.3334   28.0838 H         7 CUB7        0.0000 
     45 N         -23.7955   62.1557   28.1669 N.2       2 ALA2        0.0000 
     46 CZ        -22.8702   60.9781   28.2499 C.ar      5 PHE5        0.0000 
     47 OG        -26.2538   63.9455   26.7514 O.2       1 SER1        0.0000 
     48 CZ        -25.3285   62.7678   26.8344 C.ar      5 PHE5        0.0000 
     49 CZ        -24.4031   61.5902   26.9175 C.ar      5 PHE5        0.0000 
     50 CZ        -23.4778   60.4126   27.0005 C.ar      5 PHE5        0.0000 
     51 CA        -28.7121   65.7352   25.3359 C.3       6 GLY6        0.0000 
     52 OG        -27.7868   64.5576   25.4189 O.2       1 SER1        0.0000 
     53 CA        -26.8614   63.3799   25.5020 C.3       6 GLY6        0.0000 
     54 CA        -29.3197   65.1696   24.0865 C.3       6 GLY6        0.0000 
     55 CA        -28.3944   63.9920   24.1695 C.3       6 GLY6        0.0000 
     56 CZ        -23.7366   68.1224   30.8400 C.ar      5 PHE5        0.0000 
     57 NZ        -22.8112   66.9448   30.9230 N.2       4 LYS4        0.0000 
     58 CA        -21.8859   65.7671   31.0061 C.3       6 GLY6        0.0000 
     59 CA        -20.0352   63.4119   31.1722 C.3       6 GLY6        0.0000 
     60 CA        -19.1098   62.2342   31.2553 C.3       6 GLY6        0.0000 
     61 CZ        -23.4188   66.3792   29.6737 C.ar      5 PHE5        0.0000 
     62 CA        -22.4935   65.2016   29.7567 C.3       6 GLY6        0.0000 
     63 CA        -21.5681   64.0240   29.8398 C.3       6 GLY6        0.0000 
     64 CA        -20.6428   62.8463   29.9228 C.3       6 GLY6        0.0000 
     65 CZ        -19.7174   61.6687   30.0059 C.ar      5 PHE5        0.0000 
     66 CZ        -23.1011   64.6360   28.5073 C.ar      5 PHE5        0.0000 
     67 DU        -22.1757   63.4584   28.5904 H         7 CUB7        0.0000 
     68 CZ        -21.2504   62.2808   28.6734 C.ar      5 PHE5        0.0000 
     69 CZ        -24.6340   65.2481   27.1749 C.ar      5 PHE5        0.0000 
     70 DU        -23.7087   64.0705   27.2579 H         7 CUB7        0.0000 
     71 DU        -22.7833   62.8929   27.3410 H         7 CUB7        0.0000 
     72 CZ        -21.8580   61.7152   27.4240 C.ar      5 PHE5        0.0000 
     73 CZ        -25.2416   64.6826   25.9255 C.ar      5 PHE5        0.0000 
     74 CZ        -24.3163   63.5049   26.0085 C.ar      5 PHE5        0.0000 
     75 CZ        -23.3909   62.3273   26.0916 C.ar      5 PHE5        0.0000 
     76 CZ        -22.4656   61.1497   26.1746 C.ar      5 PHE5        0.0000 
     77 CZ        -27.6999   66.4723   24.5100 C.ar      5 PHE5        0.0000 
     78 CZ        -26.7746   65.2947   24.5930 C.ar      5 PHE5        0.0000 
     79 CA        -25.8492   64.1170   24.6761 C.3       6 GLY6        0.0000 
     80 OG        -28.3075   65.9068   23.2606 O.2       1 SER1        0.0000 
     81 CA        -27.3822   64.7291   23.3436 C.3       6 GLY6        0.0000 
     82 CZ        -22.7244   68.8595   30.0141 C.ar      5 PHE5        0.0000 
     83 NZ        -21.7990   67.6819   30.0971 N.2       4 LYS4        0.0000 
     84 CA        -20.8737   66.5042   30.1802 C.3       6 GLY6        0.0000 
     85 CA        -19.0230   64.1490   30.3463 C.3       6 GLY6        0.0000 
     86 CZ        -22.4066   67.1163   28.8477 C.ar      5 PHE5        0.0000 
     87 DU        -21.4813   65.9387   28.9308 H         7 CUB7        0.0000 
     88 CA        -20.5559   64.7611   29.0139 C.3       6 GLY6        0.0000 
     89 NZ        -19.6306   63.5834   29.0969 N.2       4 LYS4        0.0000 
     90 CZ        -23.0142   66.5508   27.5984 C.ar      5 PHE5        0.0000 
     91 DU        -22.0889   65.3732   27.6814 H         7 CUB7        0.0000 
     92 DU        -21.1635   64.1955   27.7645 H         7 CUB7        0.0000 
     93 NZ        -20.2382   63.0179   27.8475 N.2       4 LYS4        0.0000 
     94 NZ        -19.3128   61.8403   27.9306 N.2       4 LYS4        0.0000 
     95 CZ        -23.6218   65.9852   26.3490 C.ar      5 PHE5        0.0000 
     96 DU        -22.6965   64.8076   26.4320 H         7 CUB7        0.0000 
     97 CZ        -20.8458   62.4523   26.5981 C.ar      5 PHE5        0.0000 
     98 CZ        -25.1548   66.5973   25.0165 C.ar      5 PHE5        0.0000 
     99 DU        -24.2294   65.4197   25.0996 H         7 CUB7        0.0000 
    100 DU        -23.3041   64.2421   25.1826 H         7 CUB7        0.0000 
    101 CZ        -22.3787   63.0644   25.2657 C.ar      5 PHE5        0.0000 
    102 CZ        -21.4534   61.8868   25.3487 C.ar      5 PHE5        0.0000 
    103 CZ        -20.5280   60.7092   25.4318 C.ar      5 PHE5        0.0000 
    104 CZ        -26.6877   67.2094   23.6841 C.ar      5 PHE5        0.0000 
    105 CZ        -25.7624   66.0318   23.7671 C.ar      5 PHE5        0.0000 
    106 CA        -24.8370   64.8541   23.8502 C.3       6 GLY6        0.0000 
    107 CA        -23.9117   63.6765   23.9332 C.3       6 GLY6        0.0000 
    108 CZ        -22.9863   62.4989   24.0163 C.ar      5 PHE5        0.0000 
    109 CZ        -22.0610   61.3212   24.0993 C.ar      5 PHE5        0.0000 
    110 OG        -27.2953   66.6439   22.4347 O.2       1 SER1        0.0000 
    111 CA        -19.2539   67.8069   30.6037 C.3       6 GLY6        0.0000 
    112 DU        -20.7868   68.4190   29.2712 H         7 CUB7        0.0000 
    113 CA        -19.8615   67.2414   29.3543 C.3       6 GLY6        0.0000 
    114 CA        -18.9361   66.0637   29.4373 C.3       6 GLY6        0.0000 
    115 CZ        -21.3944   67.8534   28.0218 C.ar      5 PHE5        0.0000 
    116 DU        -20.4691   66.6758   28.1049 H         7 CUB7        0.0000 
    117 NZ        -19.5437   65.4982   28.1879 N.2       4 LYS4        0.0000 
    118 CZ        -22.0020   67.2879   26.7725 C.ar      5 PHE5        0.0000 
    119 DU        -21.0767   66.1103   26.8555 H         7 CUB7        0.0000 
    120 NZ        -20.1513   64.9326   26.9386 N.2       4 LYS4        0.0000 
    121 NZ        -19.2260   63.7550   27.0216 N.2       4 LYS4        0.0000 
    122 CZ        -22.6096   66.7224   25.5231 C.ar      5 PHE5        0.0000 
    123 DU        -21.6843   65.5447   25.6061 H         7 CUB7        0.0000 
    124 DU        -20.7589   64.3671   25.6892 H         7 CUB7        0.0000 
    125 NZ        -19.8336   63.1895   25.7722 N.2       4 LYS4        0.0000 
    126 NZ        -18.9082   62.0118   25.8553 N.2       4 LYS4        0.0000 
    127 OG        -17.9829   60.8342   25.9383 O.2       1 SER1        0.0000 
    128 N         -24.1426   67.3344   24.1906 N.2       2 ALA2        0.0000 
    129 N         -23.2172   66.1568   24.2737 N.2       2 ALA2        0.0000 
    130 N         -22.2919   64.9792   24.3567 N.2       2 ALA2        0.0000 
    131 DU        -21.3665   63.8015   24.4398 H         7 CUB7        0.0000 
    132 DU        -20.4412   62.6239   24.5228 H         7 CUB7        0.0000 
    133 CZ        -19.5158   61.4463   24.6059 C.ar      5 PHE5        0.0000 
    134 O         -18.5905   60.2686   24.6889 O.2       2 ALA2        0.0000 
    135 N         -24.7502   66.7689   22.9412 N.2       2 ALA2        0.0000 
    136 N         -23.8248   65.5913   23.0243 N.2       2 ALA2        0.0000 
    137 N         -22.8995   64.4136   23.1073 N.2       2 ALA2        0.0000 
    138 N         -21.9741   63.2360   23.1904 N.2       2 ALA2        0.0000 
    139 N         -21.0488   62.0584   23.2734 N.2       2 ALA2        0.0000 
    140 N         -20.1234   60.8807   23.3565 N.2       2 ALA2        0.0000 
    141 O         -22.5817   62.6704   21.9410 O.2       2 ALA2        0.0000 
    142 N         -21.6564   61.4928   22.0240 N.2       2 ALA2        0.0000 
    143 N         -21.3076   69.7682   27.1129 N.2       2 ALA2        0.0000 
    144 DU        -20.3822   68.5906   27.1959 H         7 CUB7        0.0000 
    145 DU        -19.4569   67.4129   27.2790 H         7 CUB7        0.0000 
    146 CA        -18.5315   66.2353   27.3620 C.3       6 GLY6        0.0000 
    147 CA        -21.9152   69.2026   25.8635 C.3       6 GLY6        0.0000 
    148 CA        -20.9898   68.0250   25.9465 C.3       6 GLY6        0.0000 
    149 DU        -20.0645   66.8474   26.0296 H         7 CUB7        0.0000 
    150 NZ        -19.1391   65.6697   26.1127 N.2       4 LYS4        0.0000 
    151 NZ        -18.2138   64.4921   26.1957 N.2       4 LYS4        0.0000 
    152 N         -21.5974   67.4595   24.6972 N.2       2 ALA2        0.0000 
    153 DU        -20.6721   66.2818   24.7802 H         7 CUB7        0.0000 
    154 DU        -19.7467   65.1042   24.8633 H         7 CUB7        0.0000 
    155 NZ        -18.8214   63.9266   24.9463 N.2       4 LYS4        0.0000 
    156 NZ        -17.8960   62.7489   25.0294 N.2       4 LYS4        0.0000 
    157 N         -22.2050   66.8939   23.4478 N.2       2 ALA2        0.0000 
    158 N         -21.2797   65.7163   23.5308 N.2       2 ALA2        0.0000 
    159 N         -20.3543   64.5387   23.6139 N.2       2 ALA2        0.0000 
    160 DU        -19.4290   63.3610   23.6969 H         7 CUB7        0.0000 
    161 N         -18.5036   62.1834   23.7800 N.2       2 ALA2        0.0000 
    162 N         -20.9619   63.9731   22.3645 N.2       2 ALA2        0.0000 
    163 N         -20.0366   62.7955   22.4475 N.2       2 ALA2        0.0000 
    164 CA        -19.3700   69.3277   26.3700 C.3       6 GLY6        0.0000 
    165 O         -18.4447   68.1500   26.4531 O.2       2 ALA2        0.0000 
    166 OG        -19.9776   68.7621   25.1206 O.2       1 SER1        0.0000 
    167 OG        -19.0523   67.5845   25.2037 O.2       1 SER1        0.0000 
    168 DU        -18.1269   66.4069   25.2867 H         7 CUB7        0.0000 
    169 OG        -20.5852   68.1966   23.8712 O.2       1 SER1        0.0000 
    170 OG        -19.6599   67.0189   23.9543 O.2       1 SER1        0.0000 
    171 DU        -18.7345   65.8413   24.0374 H         7 CUB7        0.0000 
    172 N         -20.2675   66.4534   22.7049 N.2       2 ALA2        0.0000 
    173 N         -19.3421   65.2758   22.7880 N.2       2 ALA2        0.0000 
    174 O         -18.4168   64.0981   22.8710 O.2       2 ALA2        0.0000 
    175 N         -19.9497   64.7102   21.5386 N.2       2 ALA2        0.0000 
    176 OG        -19.2553   67.1905   21.8790 O.2       1 SER1        0.0000 
@<TRIPOS>BOND
@<TRIPOS>SUBSTRUCTURE
     1 SER1        8 GROUP   
     2 ALA2        1 GROUP   
     3 ASP3       13 GROUP   
     4 LYS4       14 GROUP   
     5 PHE5       26 GROUP   
     6 GLY6        2 GROUP   
     7 CUB7        6 GROUP   
@<TRIPOS>SET

