#    Name: 3l3l_L3L_1_INTS_M
#    Modification time : Mon Mar 24 20:56:13 2014

@<TRIPOS>MOLECULE
3l3l_L3L_1_INTS_M
   41     0     9     0     0
SMALL
NO_CHARGES


@<TRIPOS>ATOM
      1 CA        -28.1635   64.9560   21.7425 C.3       3 GLC5        0.0000 
      2 CA        -27.8410   65.9550   23.6210 C.3       9 GLL5        0.0000 
      3 CA        -28.4860   63.9570   19.8640 C.3       6 GLP5        0.0000 
      4 CA        -29.6285   66.8165   24.4360 C.3       3 GLC5        0.0000 
      5 CA        -31.4160   67.6780   25.2510 C.3       6 GLP5        0.0000 
      6 CA        -26.5495   62.0650   25.9390 C.3       3 GLC5        0.0000 
      7 CA        -26.2550   63.6590   26.7810 C.3       9 GLL5        0.0000 
      8 CA        -26.8440   60.4710   25.0970 C.3       6 GLP5        0.0000 
      9 CA        -26.4700   65.5505   27.2525 C.3       3 GLC5        0.0000 
     10 CA        -26.6850   67.4420   27.7240 C.3       6 GLP5        0.0000 
     11 CA        -24.0285   61.3030   25.6575 C.3       3 GLC5        0.0000 
     12 CA        -23.3550   62.4670   27.2140 C.3       9 GLL5        0.0000 
     13 CA        -24.7020   60.1390   24.1010 C.3       6 GLP5        0.0000 
     14 CA        -21.6360   60.3170   27.9580 C.3       3 GLC5        0.0000 
     15 CA        -22.1830   62.1540   28.1100 C.3       9 GLL5        0.0000 
     16 CA        -21.0890   58.4800   27.8060 C.3       6 GLP5        0.0000 
     17 O         -23.6860   68.2025   23.0740 O.2       1 ALC1        0.0000 
     18 O         -24.3290   66.8950   23.4850 O.2       7 ALL1        0.0000 
     19 O         -23.0430   69.5100   22.6630 O.2       4 ALP1        0.0000 
     20 N         -25.5960   68.8030   21.6215 N.am      2 SEC2        0.0000 
     21 N         -26.2050   67.7030   22.4160 N.am      8 SEL2        0.0000 
     22 N         -24.9870   69.9030   20.8270 N.am      5 SEP2        0.0000 
     23 N         -27.3770   68.2915   21.7835 N.am      2 SEC2        0.0000 
     24 N         -28.5490   68.8800   21.1510 N.am      5 SEP2        0.0000 
     25 CA        -27.1917   63.7963   23.6175 C.3       3 GLC5        0.0000 
     26 CA        -26.1090   62.0590   23.2790 C.3       6 GLP5        0.0000 
     27 CA        -29.9267   66.2507   22.7670 C.3       3 GLC5        0.0000 
     28 CA        -28.7080   65.1120   24.2910 C.3       9 GLL5        0.0000 
     29 CA        -31.5790   66.9680   21.5780 C.3       6 GLP5        0.0000 
     30 CA        -29.6555   63.2632   24.9153 C.3       3 GLC5        0.0000 
     31 CA        -28.2640   64.3350   25.3420 C.3       9 GLL5        0.0000 
     32 CA        -30.8250   61.8030   25.0140 C.3       6 GLP5        0.0000 
     33 CA        -26.8540   63.2133   24.3970 C.3       3 GLC5        0.0000 
     34 CA        -26.2005   63.8413   23.8893 C.3       3 GLC5        0.0000 
     35 CA        -26.0720   65.2250   25.0190 C.3       9 GLL5        0.0000 
     36 CA        -29.1275   65.4224   26.2016 C.3       3 GLC5        0.0000 
     37 CA        -26.9340   64.4000   25.6880 C.3       9 GLL5        0.0000 
     38 CA        -30.5450   66.2830   27.1510 C.3       6 GLP5        0.0000 
     39 CA        -24.7542   65.7963   28.2557 C.3       3 GLC5        0.0000 
     40 CA        -23.8640   63.8410   27.5660 C.3       9 GLL5        0.0000 
     41 CA        -25.4380   67.7530   28.2210 C.3       6 GLP5        0.0000 
@<TRIPOS>BOND
@<TRIPOS>SUBSTRUCTURE
     1 ALC1       17 GROUP        1 X    ALC  0     ROOT ALC X 1
     2 SEC2       20 GROUP        1 X    SEC  0     **** SEC X 2
     3 GLC5        1 GROUP        1 X    GLC  0     **** GLC X 6
     4 ALP1       19 GROUP        1 Y    ALP  0     ROOT ALP Y 8
     5 SEP2       22 GROUP        1 Y    SEP  0     **** SEP Y 9
     6 GLP5        3 GROUP        1 Y    GLP  0     **** GLP Y 13
     7 ALL1       18 GROUP        1 Z    ALL  0     ROOT ALL Z 15
     8 SEL2       21 GROUP        1 Z    SEL  0     **** SEL Z 16
     9 GLL5        2 GROUP        1 Z    GLL  0     **** GLL Z 20
@<TRIPOS>SET

