#    Name: 3l3l_L3L_1_ligand
#    Modification time : Mon Mar 24 20:56:13 2014

@<TRIPOS>MOLECULE
3l3l_L3L_1_ligand
   35    37     1     0     0
SMALL
NO_CHARGES


@<TRIPOS>ATOM
      1 C1        -28.7080   65.1120   24.2910 C.ar      1 L3L351      0.0000 
      2 C2        -27.8410   65.9550   23.6210 C.ar      1 L3L351      0.0000 
      3 C3        -28.2640   64.3350   25.3420 C.ar      1 L3L351      0.0000 
      4 C4        -26.0720   65.2250   25.0190 C.ar      1 L3L351      0.0000 
      5 C5        -26.5120   66.0220   23.9800 C.ar      1 L3L351      0.0000 
      6 C6        -26.9340   64.4000   25.6880 C.ar      1 L3L351      0.0000 
      7 C7        -24.7410   65.0730   25.6170 C.2       1 L3L351      0.0000 
      8 C8        -25.6700   66.9500   23.2160 C.2       1 L3L351      0.0000 
      9 C9        -26.2550   63.6590   26.7810 C.3       1 L3L351      0.0000 
     10 C10       -23.3550   62.4670   27.2140 C.3       1 L3L351      0.0000 
     11 C11       -24.2770   63.8380   29.0150 C.3       1 L3L351      0.0000 
     12 C12       -22.1830   62.1540   28.1100 C.3       1 L3L351      0.0000 
     13 C13       -23.0850   63.4460   29.8530 C.3       1 L3L351      0.0000 
     14 C14       -23.8640   63.8410   27.5660 C.3       1 L3L351      0.0000 
     15 N15       -22.6640   62.1060   29.4770 N.4       1 L3L351      0.0000 
     16 N16       -24.9400   64.2500   26.7020 N.am      1 L3L351      0.0000 
     17 N17       -24.3290   66.8950   23.4850 N.am      1 L3L351      0.0000 
     18 O18       -23.6920   65.5380   25.1910 O.2       1 L3L351      0.0000 
     19 O19       -26.2050   67.7030   22.4160 O.2       1 L3L351      0.0000 
     20 H         -29.7014   65.0635   24.0005 H         1 L3L351      0.0000 
     21 H         -28.1947   66.5401   22.8434 H         1 L3L351      0.0000 
     22 H         -28.9092   63.7270   25.8494 H         1 L3L351      0.0000 
     23 H         -26.2311   62.6234   26.5534 H         1 L3L351      0.0000 
     24 H         -26.7240   63.8743   27.7076 H         1 L3L351      0.0000 
     25 H         -24.1383   61.7365   27.3706 H         1 L3L351      0.0000 
     26 H         -23.0372   62.4496   26.1794 H         1 L3L351      0.0000 
     27 H         -24.6128   64.8278   29.3010 H         1 L3L351      0.0000 
     28 H         -25.0777   63.1233   29.1650 H         1 L3L351      0.0000 
     29 H         -21.4306   62.9304   27.9861 H         1 L3L351      0.0000 
     30 H         -21.7585   61.1979   27.8099 H         1 L3L351      0.0000 
     31 H         -23.3693   63.4844   30.9061 H         1 L3L351      0.0000 
     32 H         -22.2846   64.1683   29.6831 H         1 L3L351      0.0000 
     33 H         -23.0166   64.5346   27.4714 H         1 L3L351      0.0000 
     34 H         -23.7578   67.5671   23.0138 H         1 L3L351      0.0000 
     35 H         -24.0381   66.1875   24.1291 H         1 L3L351      0.0000 
@<TRIPOS>BOND
     1    2    1 ar   
     2    3    1 ar   
     3   20    1 1    
     4    5    2 ar   
     5   21    2 1    
     6    6    3 ar   
     7   22    3 1    
     8    5    4 ar   
     9    6    4 ar   
    10    7    4 1    
    11    8    5 1    
    12    9    6 1    
    13   16    7 am   
    14   18    7 2    
    15   17    8 am   
    16   19    8 2    
    17   16    9 1    
    18   23    9 1    
    19   24    9 1    
    20   12   10 1    
    21   14   10 1    
    22   25   10 1    
    23   26   10 1    
    24   13   11 1    
    25   14   11 1    
    26   27   11 1    
    27   28   11 1    
    28   15   12 1    
    29   29   12 1    
    30   30   12 1    
    31   15   13 1    
    32   31   13 1    
    33   32   13 1    
    34   16   14 1    
    35   33   14 1    
    36   34   17 1    
    37   35   17 1    
@<TRIPOS>SUBSTRUCTURE
     1 L3L351      1 GROUP   
@<TRIPOS>SET

