#    Name: 2AOU_1_CAVITY_N1_6.mol2
#    Modification time : Tue Mar 11 02:16:22 2014

@<TRIPOS>MOLECULE
2AOU_1_CAVITY_N1_6.mol2
  186     0     7     0     0
SMALL
NO_CHARGES


@<TRIPOS>ATOM
      1 OG         50.2817   -4.8269   40.8405 O.2       1 SER1        0.0000 
      2 CA         51.2991   -4.0865   40.0240 C.3       6 GLY6        0.0000 
      3 N          54.3515   -1.8653   37.5746 N.2       2 ALA2        0.0000 
      4 OD1        55.3689   -1.1249   36.7582 O.3       3 ASP3        0.0000 
      5 DU         56.3864   -0.3845   35.9417 H         7 CUB7        0.0000 
      6 CA         49.2993   -6.6997   40.6738 C.3       6 GLY6        0.0000 
      7 CA         50.3168   -5.9593   39.8573 C.3       6 GLY6        0.0000 
      8 CA         51.3342   -5.2189   39.0409 C.3       6 GLY6        0.0000 
      9 O          52.3517   -4.4785   38.2244 O.2       2 ALA2        0.0000 
     10 O          53.3691   -3.7381   37.4079 O.2       2 ALA2        0.0000 
     11 CZ         54.3866   -2.9977   36.5915 C.ar      5 PHE5        0.0000 
     12 CZ         55.4040   -2.2573   35.7750 C.ar      5 PHE5        0.0000 
     13 CZ         56.4215   -1.5168   34.9586 C.ar      5 PHE5        0.0000 
     14 CZ         49.3344   -7.8320   39.6906 C.ar      5 PHE5        0.0000 
     15 CZ         50.3519   -7.0916   38.8742 C.ar      5 PHE5        0.0000 
     16 CZ         51.3693   -6.3512   38.0577 C.ar      5 PHE5        0.0000 
     17 CZ         52.3868   -5.6108   37.2413 C.ar      5 PHE5        0.0000 
     18 CZ         53.4042   -4.8704   36.4248 C.ar      5 PHE5        0.0000 
     19 CZ         49.3695   -8.9644   38.7075 C.ar      5 PHE5        0.0000 
     20 CZ         52.4218   -6.7432   36.2581 C.ar      5 PHE5        0.0000 
     21 CZ         53.4393   -6.0027   35.4417 C.ar      5 PHE5        0.0000 
     22 OG         52.4569   -7.8755   35.2750 O.2       1 SER1        0.0000 
     23 CZ         53.4744   -7.1351   34.4585 C.ar      5 PHE5        0.0000 
     24 OG         52.4920   -9.0078   34.2918 O.2       1 SER1        0.0000 
     25 CZ         53.5095   -8.2674   33.4754 C.ar      5 PHE5        0.0000 
     26 NZ         53.6498  -12.7968   29.5428 N.2       4 LYS4        0.0000 
     27 NZ         52.6674  -14.6695   29.3761 N.2       4 LYS4        0.0000 
     28 CZ         53.6849  -13.9291   28.5596 C.ar      5 PHE5        0.0000 
     29 CA         54.2322    0.6552   36.9559 C.3       6 GLY6        0.0000 
     30 O          54.2673   -0.4771   35.9728 O.2       2 ALA2        0.0000 
     31 DU         55.2848    0.2633   35.1563 H         7 CUB7        0.0000 
     32 CA         54.5198   -4.6417   40.7783 C.3       6 GLY6        0.0000 
     33 CA         56.5547   -3.1609   39.1454 C.3       6 GLY6        0.0000 
     34 N          57.5722   -2.4205   38.3289 N.2       2 ALA2        0.0000 
     35 N          53.5375   -6.5144   40.6116 N.2       2 ALA2        0.0000 
     36 O          51.2922   -7.8484   28.3365 O.2       2 ALA2        0.0000 
     37 O          51.3273   -8.9807   27.3533 O.2       2 ALA2        0.0000 
     38 OG         51.3624  -10.1131   26.3702 O.2       1 SER1        0.0000 
     39 O          50.9975    0.3338   32.6335 O.2       2 ALA2        0.0000 
     40 N          47.9803   -3.0197   34.0997 N.2       2 ALA2        0.0000 
     41 CA         48.9977   -2.2793   33.2833 C.3       6 GLY6        0.0000 
     42 CA         50.0152   -1.5389   32.4668 C.3       6 GLY6        0.0000 
     43 DU         51.0326   -0.7985   31.6504 H         7 CUB7        0.0000 
     44 N          45.9805   -5.6329   34.7495 N.2       2 ALA2        0.0000 
     45 N          46.9979   -4.8925   33.9330 N.2       2 ALA2        0.0000 
     46 N          48.0154   -4.1521   33.1166 N.2       2 ALA2        0.0000 
     47 N          49.0328   -3.4117   32.3001 N.2       2 ALA2        0.0000 
     48 DU         50.0502   -2.6713   31.4837 H         7 CUB7        0.0000 
     49 CZ         51.0677   -1.9309   30.6672 C.ar      5 PHE5        0.0000 
     50 N          52.0851   -1.1905   29.8508 N.2       2 ALA2        0.0000 
     51 N          47.0330   -6.0248   32.9499 N.2       2 ALA2        0.0000 
     52 N          48.0504   -5.2844   32.1334 N.2       2 ALA2        0.0000 
     53 N          49.0679   -4.5440   31.3170 N.2       2 ALA2        0.0000 
     54 CA         50.0853   -3.8036   30.5005 C.3       6 GLY6        0.0000 
     55 CZ         51.1028   -3.0632   29.6841 C.ar      5 PHE5        0.0000 
     56 O          52.1202   -2.3228   28.8676 O.2       2 ALA2        0.0000 
     57 CA         51.1379   -4.1955   28.7009 C.3       6 GLY6        0.0000 
     58 O          47.8961   -1.6316   32.4979 O.2       2 ALA2        0.0000 
     59 N          47.9312   -2.7639   31.5147 N.2       2 ALA2        0.0000 
     60 N          48.9486   -2.0235   30.6983 N.2       2 ALA2        0.0000 
     61 N          48.9837   -3.1558   29.7151 N.2       2 ALA2        0.0000 
     62 CA         50.0012   -2.4154   28.8987 C.3       6 GLY6        0.0000 
     63 CA         51.0186   -1.6750   28.0822 C.3       6 GLY6        0.0000 
     64 N          50.3659   -6.2151   42.4423 N.2       2 ALA2        0.0000 
     65 N          51.3833   -5.4747   41.6258 N.2       2 ALA2        0.0000 
     66 N          52.4008   -4.7343   40.8094 N.2       2 ALA2        0.0000 
     67 N          53.4182   -3.9939   39.9929 N.2       2 ALA2        0.0000 
     68 OD1        54.4357   -3.2535   39.1765 O.3       3 ASP3        0.0000 
     69 OD1        55.4531   -2.5131   38.3600 O.3       3 ASP3        0.0000 
     70 OD1        56.4705   -1.7727   37.5436 O.3       3 ASP3        0.0000 
     71 DU         57.4880   -1.0323   36.7271 H         7 CUB7        0.0000 
     72 N          50.4010   -7.3475   41.4592 N.2       2 ALA2        0.0000 
     73 N          51.4184   -6.6071   40.6427 N.2       2 ALA2        0.0000 
     74 CZ         52.4358   -5.8666   39.8262 C.ar      5 PHE5        0.0000 
     75 CA         53.4533   -5.1262   39.0098 C.3       6 GLY6        0.0000 
     76 CA         54.4707   -4.3858   38.1933 C.3       6 GLY6        0.0000 
     77 N          55.4882   -3.6454   37.3769 N.2       2 ALA2        0.0000 
     78 N          56.5056   -2.9050   36.5604 N.2       2 ALA2        0.0000 
     79 CA         57.5231   -2.1646   35.7440 C.3       6 GLY6        0.0000 
     80 CZ         52.4709   -6.9990   38.8431 C.ar      5 PHE5        0.0000 
     81 CZ         53.4884   -6.2586   38.0266 C.ar      5 PHE5        0.0000 
     82 CA         54.5058   -5.5182   37.2102 C.3       6 GLY6        0.0000 
     83 CZ         55.5233   -4.7778   36.3937 C.ar      5 PHE5        0.0000 
     84 CA         48.1977   -6.0519   39.8884 C.3       6 GLY6        0.0000 
     85 CA         49.2152   -5.3115   39.0719 C.3       6 GLY6        0.0000 
     86 CA         50.2326   -4.5711   38.2555 C.3       6 GLY6        0.0000 
     87 O          53.2849   -2.3499   35.8061 O.2       2 ALA2        0.0000 
     88 CZ         54.3024   -1.6095   34.9897 C.ar      5 PHE5        0.0000 
     89 CZ         55.3198   -0.8691   34.1732 C.ar      5 PHE5        0.0000 
     90 NZ         48.2328   -7.1843   38.9052 N.2       4 LYS4        0.0000 
     91 DU         49.2502   -6.4439   38.0888 H         7 CUB7        0.0000 
     92 DU         50.2677   -5.7035   37.2723 H         7 CUB7        0.0000 
     93 O          51.2851   -4.9630   36.4559 O.2       2 ALA2        0.0000 
     94 O          52.3026   -4.2226   35.6394 O.2       2 ALA2        0.0000 
     95 OG         48.2679   -8.3166   37.9221 O.2       1 SER1        0.0000 
     96 OG         49.2853   -7.5762   37.1056 O.2       1 SER1        0.0000 
     97 OG         50.3028   -6.8358   36.2892 O.2       1 SER1        0.0000 
     98 DU         51.3202   -6.0954   35.4727 H         7 CUB7        0.0000 
     99 CZ         52.3377   -5.3550   34.6563 C.ar      5 PHE5        0.0000 
    100 OG         48.3030   -9.4489   36.9390 O.2       1 SER1        0.0000 
    101 OG         51.3553   -7.2277   34.4896 O.2       1 SER1        0.0000 
    102 CZ         52.3728   -6.4873   33.6731 C.ar      5 PHE5        0.0000 
    103 OG         51.3904   -8.3601   33.5064 O.2       1 SER1        0.0000 
    104 CZ         52.4078   -7.6197   32.6900 C.ar      5 PHE5        0.0000 
    105 OG         52.4429   -8.7520   31.7068 O.2       1 SER1        0.0000 
    106 CZ         53.4604   -8.0116   30.8904 C.ar      5 PHE5        0.0000 
    107 OG         52.4780   -9.8843   30.7237 O.2       1 SER1        0.0000 
    108 OG         51.4956  -11.7571   30.5570 O.2       1 SER1        0.0000 
    109 CZ         52.5131  -11.0167   29.7405 C.ar      5 PHE5        0.0000 
    110 NZ         51.5307  -12.8894   29.5739 N.2       4 LYS4        0.0000 
    111 DU         52.5482  -12.1490   28.7574 H         7 CUB7        0.0000 
    112 CZ         53.5656  -11.4086   27.9409 C.ar      5 PHE5        0.0000 
    113 CZ         54.5831  -10.6682   27.1245 C.ar      5 PHE5        0.0000 
    114 CZ         51.5658  -14.0218   28.5907 C.ar      5 PHE5        0.0000 
    115 CZ         52.5833  -13.2814   27.7743 C.ar      5 PHE5        0.0000 
    116 CZ         53.6007  -12.5410   26.9578 C.ar      5 PHE5        0.0000 
    117 CA         53.1657    0.1706   35.1874 C.3       6 GLY6        0.0000 
    118 NZ         48.1135   -4.6638   38.2866 N.2       4 LYS4        0.0000 
    119 O          52.1833   -1.7021   35.0207 O.2       2 ALA2        0.0000 
    120 CZ         53.2008   -0.9617   34.2043 C.ar      5 PHE5        0.0000 
    121 CZ         54.2182   -0.2213   33.3878 C.ar      5 PHE5        0.0000 
    122 NZ         47.1312   -6.5365   38.1199 N.2       4 LYS4        0.0000 
    123 NZ         48.1486   -5.7961   37.3034 N.2       4 LYS4        0.0000 
    124 O          49.1661   -5.0557   36.4870 O.2       2 ALA2        0.0000 
    125 O          50.1835   -4.3153   35.6705 O.2       2 ALA2        0.0000 
    126 O          51.2010   -3.5749   34.8540 O.2       2 ALA2        0.0000 
    127 CZ         52.2184   -2.8345   34.0376 C.ar      5 PHE5        0.0000 
    128 DU         47.1663   -7.6688   37.1367 H         7 CUB7        0.0000 
    129 DU         48.1837   -6.9284   36.3203 H         7 CUB7        0.0000 
    130 DU         49.2012   -6.1880   35.5038 H         7 CUB7        0.0000 
    131 DU         50.2186   -5.4476   34.6874 H         7 CUB7        0.0000 
    132 CZ         51.2360   -4.7072   33.8709 C.ar      5 PHE5        0.0000 
    133 CZ         47.2013   -8.8012   36.1536 C.ar      5 PHE5        0.0000 
    134 CZ         48.2188   -8.0608   35.3371 C.ar      5 PHE5        0.0000 
    135 CZ         49.2362   -7.3204   34.5207 C.ar      5 PHE5        0.0000 
    136 DU         50.2537   -6.5800   33.7042 H         7 CUB7        0.0000 
    137 CZ         51.2711   -5.8396   32.8877 C.ar      5 PHE5        0.0000 
    138 CZ         50.2888   -7.7123   32.7211 C.ar      5 PHE5        0.0000 
    139 CZ         51.3062   -6.9719   31.9046 C.ar      5 PHE5        0.0000 
    140 OG         50.3239   -8.8446   31.7379 O.2       1 SER1        0.0000 
    141 N          51.3413   -8.1042   30.9215 N.2       2 ALA2        0.0000 
    142 CZ         52.3587   -7.3638   30.1050 C.ar      5 PHE5        0.0000 
    143 CZ         53.3762   -6.6234   29.2885 C.ar      5 PHE5        0.0000 
    144 OG         50.3589   -9.9770   30.7548 O.2       1 SER1        0.0000 
    145 OG         51.3764   -9.2366   29.9383 O.2       1 SER1        0.0000 
    146 CZ         52.3938   -8.4962   29.1219 C.ar      5 PHE5        0.0000 
    147 CZ         53.4113   -7.7558   28.3054 C.ar      5 PHE5        0.0000 
    148 CZ         50.3940  -11.1093   29.7716 C.ar      5 PHE5        0.0000 
    149 CZ         51.4115  -10.3689   28.9552 C.ar      5 PHE5        0.0000 
    150 CZ         52.4289   -9.6285   28.1387 C.ar      5 PHE5        0.0000 
    151 CZ         53.4464   -8.8881   27.3223 C.ar      5 PHE5        0.0000 
    152 CZ         50.4291  -12.2417   28.7885 C.ar      5 PHE5        0.0000 
    153 CZ         51.4466  -11.5013   27.9720 C.ar      5 PHE5        0.0000 
    154 CA         52.4640  -10.7608   27.1556 C.3       6 GLY6        0.0000 
    155 CZ         53.4814  -10.0204   26.3391 C.ar      5 PHE5        0.0000 
    156 CZ         51.4816  -12.6336   26.9889 C.ar      5 PHE5        0.0000 
    157 CA         52.4991  -11.8932   26.1724 C.3       6 GLY6        0.0000 
    158 CZ         53.5165  -11.1528   25.3560 C.ar      5 PHE5        0.0000 
    159 O          52.0641    0.8184   34.4020 O.2       2 ALA2        0.0000 
    160 CA         51.0817   -1.0544   34.2353 C.3       6 GLY6        0.0000 
    161 O          52.0991   -0.3139   33.4189 O.2       2 ALA2        0.0000 
    162 N          53.1166    0.4265   32.6024 N.2       2 ALA2        0.0000 
    163 NZ         47.0470   -5.1483   36.5180 N.2       4 LYS4        0.0000 
    164 NZ         48.0644   -4.4079   35.7016 N.2       4 LYS4        0.0000 
    165 CA         49.0819   -3.6675   34.8851 C.3       6 GLY6        0.0000 
    166 CA         50.0993   -2.9271   34.0687 C.3       6 GLY6        0.0000 
    167 CZ         51.1168   -2.1867   33.2522 C.ar      5 PHE5        0.0000 
    168 CZ         52.1342   -1.4463   32.4357 C.ar      5 PHE5        0.0000 
    169 CZ         53.1517   -0.7059   31.6193 C.ar      5 PHE5        0.0000 
    170 DU         47.0821   -6.2807   35.5349 H         7 CUB7        0.0000 
    171 DU         48.0995   -5.5403   34.7184 H         7 CUB7        0.0000 
    172 DU         49.1170   -4.7998   33.9020 H         7 CUB7        0.0000 
    173 DU         50.1344   -4.0594   33.0855 H         7 CUB7        0.0000 
    174 CZ         51.1519   -3.3190   32.2691 C.ar      5 PHE5        0.0000 
    175 CZ         47.1172   -7.4130   34.5517 C.ar      5 PHE5        0.0000 
    176 N          48.1346   -6.6726   33.7353 N.2       2 ALA2        0.0000 
    177 N          49.1521   -5.9322   32.9188 N.2       2 ALA2        0.0000 
    178 N          50.1695   -5.1918   32.1024 N.2       2 ALA2        0.0000 
    179 CZ         51.1870   -4.4514   31.2859 C.ar      5 PHE5        0.0000 
    180 N          50.2046   -6.3241   31.1192 N.2       2 ALA2        0.0000 
    181 CA         51.2220   -5.5837   30.3028 C.3       6 GLY6        0.0000 
    182 CZ         52.2395   -4.8433   29.4863 C.ar      5 PHE5        0.0000 
    183 N          50.2397   -7.4565   30.1361 N.2       2 ALA2        0.0000 
    184 CA         51.2571   -6.7161   29.3196 C.3       6 GLY6        0.0000 
    185 NZ         52.2746   -5.9757   28.5032 N.2       4 LYS4        0.0000 
    186 CA         50.2748   -8.5888   29.1529 C.3       6 GLY6        0.0000 
@<TRIPOS>BOND
@<TRIPOS>SUBSTRUCTURE
     1 SER1        1 GROUP   
     2 ALA2        3 GROUP   
     3 ASP3        4 GROUP   
     4 LYS4       26 GROUP   
     5 PHE5       11 GROUP   
     6 GLY6        2 GROUP   
     7 CUB7        5 GROUP   
@<TRIPOS>SET

