#    Name: 2aou_CQA_1_INTS_M
#    Modification time : Mon Mar 24 19:32:02 2014

@<TRIPOS>MOLECULE
2aou_CQA_1_INTS_M
   49     0     6     0     0
SMALL
NO_CHARGES


@<TRIPOS>ATOM
      1 CA         55.4055   -6.4630   37.6630 C.3       2 GLC5        0.0000 
      2 CA         53.7320   -6.2600   36.5550 C.3       6 GLL5        0.0000 
      3 CA         57.0790   -6.6660   38.7710 C.3       4 GLP5        0.0000 
      4 O          55.4780   -8.5370   36.1970 O.2       1 ALC1        0.0000 
      5 O          54.2820   -8.3310   35.4110 O.2       5 ALL1        0.0000 
      6 O          56.6740   -8.7430   36.9830 O.2       3 ALP1        0.0000 
      7 CA         51.5185   -3.0385   38.6205 C.3       2 GLC5        0.0000 
      8 CA         53.2780   -4.0030   37.9660 C.3       6 GLL5        0.0000 
      9 CA         49.7590   -2.0740   39.2750 C.3       4 GLP5        0.0000 
     10 CA         50.7285   -6.7810   27.7065 C.3       2 GLC5        0.0000 
     11 CA         52.3870   -7.6880   28.4230 C.3       6 GLL5        0.0000 
     12 CA         49.0700   -5.8740   26.9900 C.3       4 GLP5        0.0000 
     13 O          52.7265   -8.8580   25.7440 O.2       1 ALC1        0.0000 
     14 O          52.2610   -9.5310   26.6840 O.2       5 ALL1        0.0000 
     15 O          53.1920   -8.1850   24.8040 O.2       3 ALP1        0.0000 
     16 CA         49.8360  -10.8745   28.3230 C.3       2 GLC5        0.0000 
     17 CA         51.5420  -11.3140   28.6290 C.3       6 GLL5        0.0000 
     18 CA         48.1300  -10.4350   28.0170 C.3       4 GLP5        0.0000 
     19 CA         53.9505  -13.5385   26.3380 C.3       2 GLC5        0.0000 
     20 CA         52.6450  -12.4780   27.2420 C.3       6 GLL5        0.0000 
     21 CA         55.2560  -14.5990   25.4340 C.3       4 GLP5        0.0000 
     22 CA         50.1700  -12.1255   26.3990 C.3       2 GLC5        0.0000 
     23 CA         52.1520  -13.0520   25.9320 C.3       6 GLL5        0.0000 
     24 CA         48.1880  -11.1990   26.8660 C.3       4 GLP5        0.0000 
     25 CA         53.5335  -13.4000   25.1520 C.3       2 GLC5        0.0000 
     26 CA         54.9150  -13.7480   24.3720 C.3       4 GLP5        0.0000 
     27 CA         49.4755  -13.2935   28.6155 C.3       2 GLC5        0.0000 
     28 CA         51.6370  -13.4900   29.1610 C.3       6 GLL5        0.0000 
     29 CA         47.3140  -13.0970   28.0700 C.3       4 GLP5        0.0000 
     30 CA         49.0755  -13.3290   29.7260 C.3       2 GLC5        0.0000 
     31 CA         50.9020  -14.3070   30.2070 C.3       6 GLL5        0.0000 
     32 CA         47.2490  -12.3510   29.2450 C.3       4 GLP5        0.0000 
     33 CA         50.0115  -15.1955   31.2885 C.3       2 GLC5        0.0000 
     34 CA         49.1210  -16.0840   32.3700 C.3       4 GLP5        0.0000 
     35 CA         52.0055  -15.5185   31.7120 C.3       2 GLC5        0.0000 
     36 CA         53.1090  -16.7300   33.2170 C.3       4 GLP5        0.0000 
     37 CA         55.0328   -6.5225   34.9185 C.3       2 GLC5        0.0000 
     38 CA         52.6270   -6.7900   34.3590 C.3       6 GLL5        0.0000 
     39 CA         56.6550   -6.4300   34.1110 C.3       4 GLP5        0.0000 
     40 CA         55.0826   -7.5977   33.9570 C.3       2 GLC5        0.0000 
     41 CA         54.1470   -9.2070   34.3510 C.3       6 GLL5        0.0000 
     42 CA         50.2542   -6.9172   29.3125 C.3       2 GLC5        0.0000 
     43 CA         51.7620   -7.9990   30.8030 C.3       6 GLL5        0.0000 
     44 CA         48.5080   -6.2620   28.3490 C.3       4 GLP5        0.0000 
     45 CA         51.8282  -11.7810   25.0695 C.3       2 GLC5        0.0000 
     46 CA         51.2580  -10.7970   23.5520 C.3       4 GLP5        0.0000 
     47 CA         52.0037  -14.5295   26.4190 C.3       2 GLC5        0.0000 
     48 CA         51.6090  -16.2940   26.2510 C.3       4 GLP5        0.0000 
     49 CA         51.4393  -15.0962   27.9675 C.3       2 GLC5        0.0000 
@<TRIPOS>BOND
@<TRIPOS>SUBSTRUCTURE
     1 ALC1        4 GROUP        1 X    ALC  0     ROOT ALC X 1
     2 GLC5        1 GROUP        1 X    GLC  0     **** GLC X 6
     3 ALP1        6 GROUP        1 Y    ALP  0     ROOT ALP Y 8
     4 GLP5        3 GROUP        1 Y    GLP  0     **** GLP Y 13
     5 ALL1        5 GROUP        1 Z    ALL  0     ROOT ALL Z 15
     6 GLL5        2 GROUP        1 Z    GLL  0     **** GLL Z 20
@<TRIPOS>SET

