#    Name: 2aou_CQA_1_ligand
#    Modification time : Mon Mar 24 19:32:02 2014

@<TRIPOS>MOLECULE
2aou_CQA_1_ligand
   49    51     1     0     0
SMALL
NO_CHARGES


@<TRIPOS>ATOM
      1 C1         53.0060   -5.0200   36.6160 C.ar      1 CQA402      0.0000 
      2 C2         52.0880   -4.6520   35.5600 C.ar      1 CQA402      0.0000 
      3 C3         51.8960   -5.5390   34.4320 C.ar      1 CQA402      0.0000 
      4 C4         52.6270   -6.7900   34.3590 C.ar      1 CQA402      0.0000 
      5 C5         53.5510   -7.1500   35.4350 C.ar      1 CQA402      0.0000 
      6 C6         53.7320   -6.2600   36.5550 C.ar      1 CQA402      0.0000 
      7 C7         52.4820   -7.7080   33.2470 C.ar      1 CQA402      0.0000 
      8 C8         53.2650   -8.9400   33.2630 C.ar      1 CQA402      0.0000 
      9 C9         54.1470   -9.2070   34.3510 C.ar      1 CQA402      0.0000 
     10 N1         54.2820   -8.3310   35.4110 N.pl3     1 CQA402      0.0000 
     11 CL         53.2780   -4.0030   37.9660 Cl        1 CQA402      0.0000 
     12 N2         51.5570   -7.3920   32.1290 N.pl3     1 CQA402      0.0000 
     13 C10        51.7620   -7.9990   30.8030 C.ar      1 CQA402      0.0000 
     14 C11        52.2390   -7.1460   29.7490 C.ar      1 CQA402      0.0000 
     15 C12        52.3870   -7.6880   28.4230 C.ar      1 CQA402      0.0000 
     16 C13        52.0850   -9.0710   28.1240 C.ar      1 CQA402      0.0000 
     17 C14        51.6220   -9.9360   29.2160 C.ar      1 CQA402      0.0000 
     18 C15        51.4580   -9.3700   30.5100 C.ar      1 CQA402      0.0000 
     19 O          52.2610   -9.5310   26.6840 O.3       1 CQA402      0.0000 
     20 C16        51.5420  -11.3140   28.6290 C.3       1 CQA402      0.0000 
     21 N3         52.4700  -12.4260   28.6670 N.4       1 CQA402      0.0000 
     22 C17        52.6450  -12.4780   27.2420 C.3       1 CQA402      0.0000 
     23 C18        52.1520  -13.0520   25.9320 C.3       1 CQA402      0.0000 
     24 C19        51.6370  -13.4900   29.1610 C.3       1 CQA402      0.0000 
     25 C20        50.9020  -14.3070   30.2070 C.3       1 CQA402      0.0000 
     26 H          51.5835   -3.7808   35.6091 H         1 CQA402      0.0000 
     27 H          51.2536   -5.2881   33.6954 H         1 CQA402      0.0000 
     28 H          54.3718   -6.5100   37.2990 H         1 CQA402      0.0000 
     29 H          53.1715   -9.5925   32.4977 H         1 CQA402      0.0000 
     30 H          54.6939  -10.0877   34.3287 H         1 CQA402      0.0000 
     31 H          54.9246   -8.5509   36.1859 H         1 CQA402      0.0000 
     32 H          50.7935   -6.7639   32.2826 H         1 CQA402      0.0000 
     33 H          52.4665   -6.1841   29.9337 H         1 CQA402      0.0000 
     34 H          52.7155   -7.0788   27.6675 H         1 CQA402      0.0000 
     35 H          51.1041   -9.9691   31.2777 H         1 CQA402      0.0000 
     36 H          51.2397  -11.1493   27.4816 H         1 CQA402      0.0000 
     37 H          50.4738  -11.7377   28.9672 H         1 CQA402      0.0000 
     38 H          53.2844  -12.2053   29.1841 H         1 CQA402      0.0000 
     39 H          53.9124  -12.6199   27.1070 H         1 CQA402      0.0000 
     40 H          52.8076  -11.2470   26.9212 H         1 CQA402      0.0000 
     41 H          52.1069  -14.5120   28.4281 H         1 CQA402      0.0000 
     42 H          50.6761  -13.4868   28.2234 H         1 CQA402      0.0000 
     43 H          52.6904  -12.7229   25.1563 H         1 CQA402      0.0000 
     44 H          52.2029  -14.0506   25.9215 H         1 CQA402      0.0000 
     45 H          51.1995  -12.8052   25.7534 H         1 CQA402      0.0000 
     46 H          51.5276  -14.6873   30.8882 H         1 CQA402      0.0000 
     47 H          50.2287  -13.7575   30.7017 H         1 CQA402      0.0000 
     48 H          50.4100  -15.0762   29.7992 H         1 CQA402      0.0000 
     49 H          52.6646   -8.7484   26.2099 H         1 CQA402      0.0000 
@<TRIPOS>BOND
     1    2    1 ar   
     2    6    1 ar   
     3   11    1 1    
     4    3    2 ar   
     5   26    2 1    
     6    4    3 ar   
     7   27    3 1    
     8    5    4 ar   
     9    7    4 ar   
    10    6    5 ar   
    11   10    5 ar   
    12   28    6 1    
    13    8    7 ar   
    14   12    7 1    
    15    9    8 ar   
    16   29    8 1    
    17   10    9 ar   
    18   30    9 1    
    19   31   10 1    
    20   13   12 1    
    21   32   12 1    
    22   14   13 ar   
    23   18   13 ar   
    24   15   14 ar   
    25   33   14 1    
    26   16   15 ar   
    27   34   15 1    
    28   17   16 ar   
    29   19   16 1    
    30   18   17 ar   
    31   20   17 1    
    32   35   18 1    
    33   49   19 1    
    34   21   20 1    
    35   36   20 1    
    36   37   20 1    
    37   22   21 1    
    38   24   21 1    
    39   38   21 1    
    40   23   22 1    
    41   39   22 1    
    42   40   22 1    
    43   43   23 1    
    44   44   23 1    
    45   45   23 1    
    46   25   24 1    
    47   41   24 1    
    48   42   24 1    
    49   46   25 1    
    50   47   25 1    
    51   48   25 1    
@<TRIPOS>SUBSTRUCTURE
     1 CQA402      1 GROUP   
@<TRIPOS>SET

