#    Name: 1jtv_TES_1_INTS_M
#    Modification time : Tue Mar 25 09:26:09 2014

@<TRIPOS>MOLECULE
1jtv_TES_1_INTS_M
   57     0     9     0     0
SMALL
NO_CHARGES


@<TRIPOS>ATOM
      1 CA         14.8245    7.6745  -11.9845 C.3       3 GLC5        0.0000 
      2 CA         13.2510    6.7770  -13.2250 C.3       9 GLL5        0.0000 
      3 CA         16.3980    8.5720  -10.7440 C.3       6 GLP5        0.0000 
      4 CA         14.8775    7.1705   -9.8640 C.3       3 GLC5        0.0000 
      5 CA         13.3260    6.2770  -10.4240 C.3       9 GLL5        0.0000 
      6 CA         16.4290    8.0640   -9.3040 C.3       6 GLP5        0.0000 
      7 CA         14.3615    7.8265  -10.8145 C.3       3 GLC5        0.0000 
      8 CA         12.3250    7.0810  -10.8850 C.3       9 GLL5        0.0000 
      9 CA         11.9350   11.2375  -10.3275 C.3       3 GLC5        0.0000 
     10 CA         11.0160    9.2190  -10.3880 C.3       9 GLL5        0.0000 
     11 CA         12.8540   13.2560  -10.2670 C.3       6 GLP5        0.0000 
     12 CA          7.4650   10.4425  -11.2965 C.3       3 GLC5        0.0000 
     13 CA          9.1860   11.3930  -11.5800 C.3       9 GLL5        0.0000 
     14 CA          5.7440    9.4920  -11.0130 C.3       6 GLP5        0.0000 
     15 CA          7.9790   14.3350  -11.9690 C.3       3 GLC5        0.0000 
     16 CA          8.8080   12.5100  -12.5670 C.3       9 GLL5        0.0000 
     17 CA          7.1500   16.1600  -11.3710 C.3       6 GLP5        0.0000 
     18 CA          6.8350   12.9765  -12.4040 C.3       3 GLC5        0.0000 
     19 CA          4.8620   13.4430  -12.2410 C.3       6 GLP5        0.0000 
     20 CA         11.2505   12.3085  -15.3530 C.3       3 GLC5        0.0000 
     21 CA          9.5460   12.1610  -13.8970 C.3       9 GLL5        0.0000 
     22 CA         12.9550   12.4560  -16.8090 C.3       6 GLP5        0.0000 
     23 N           9.1160   12.3340  -16.3110 N.am      2 SEC2        0.0000 
     24 N           8.8520   12.6620  -15.0420 N.am      8 SEL2        0.0000 
     25 N           9.3800   12.0060  -17.5800 N.am      5 SEP2        0.0000 
     26 O           8.9275   13.9695  -15.2655 O.2       1 ALC1        0.0000 
     27 O           8.8520   12.6620  -15.0420 O.2       7 ALL1        0.0000 
     28 O           9.0030   15.2770  -15.4890 O.2       4 ALP1        0.0000 
     29 CA          7.1065    9.6715  -12.5640 C.3       3 GLC5        0.0000 
     30 CA          8.4690    9.8510  -14.1150 C.3       9 GLL5        0.0000 
     31 CA          7.8390    8.1455  -15.2095 C.3       3 GLC5        0.0000 
     32 CA          7.2090    6.4400  -16.3040 C.3       6 GLP5        0.0000 
     33 CA          6.9280   10.3840  -15.5850 C.3       3 GLC5        0.0000 
     34 CA          5.3870   10.9170  -17.0550 C.3       6 GLP5        0.0000 
     35 CA          9.4010    5.8350  -14.3215 C.3       3 GLC5        0.0000 
     36 CA         10.7960    6.2890  -12.6710 C.3       9 GLL5        0.0000 
     37 CA          8.0060    5.3810  -15.9720 C.3       6 GLP5        0.0000 
     38 CA         15.5935    6.1585  -13.1442 C.3       3 GLC5        0.0000 
     39 CA         17.6570    6.2120  -13.3020 C.3       6 GLP5        0.0000 
     40 CA         10.8398    9.2477   -8.6828 C.3       3 GLC5        0.0000 
     41 CA         11.5110    7.8700   -9.9130 C.3       9 GLL5        0.0000 
     42 CA         10.4160    9.9510   -7.2150 C.3       6 GLP5        0.0000 
     43 CA         13.2248    9.3547   -9.8067 C.3       3 GLC5        0.0000 
     44 CA         15.1860   10.1650   -9.4630 C.3       6 GLP5        0.0000 
     45 CA          9.0256    8.1906  -10.6329 C.3       3 GLC5        0.0000 
     46 CA          7.1410    7.5140  -10.2680 C.3       6 GLP5        0.0000 
     47 CA         11.6653    8.5092  -16.1900 C.3       3 GLC5        0.0000 
     48 CA         11.3330    8.6750  -14.2780 C.3       9 GLL5        0.0000 
     49 CA         12.1970    7.6330  -17.8970 C.3       6 GLP5        0.0000 
     50 CA         12.5457   10.4897  -15.2710 C.3       3 GLC5        0.0000 
     51 CA         13.9580   11.5940  -16.0590 C.3       6 GLP5        0.0000 
     52 CA          9.3445   10.4361  -16.1819 C.3       3 GLC5        0.0000 
     53 CA         10.9340   10.0960  -14.6880 C.3       9 GLL5        0.0000 
     54 CA          9.2760   10.7670  -18.1760 C.3       6 GLP5        0.0000 
     55 CA         10.5689   12.7685  -11.6570 C.3       3 GLC5        0.0000 
     56 CA         10.2110   10.5800  -12.3600 C.3       9 GLL5        0.0000 
     57 CA         11.7000   13.8760  -10.7130 C.3       6 GLP5        0.0000 
@<TRIPOS>BOND
@<TRIPOS>SUBSTRUCTURE
     1 ALC1       26 GROUP        1 X    ALC  0     ROOT ALC X 1
     2 SEC2       23 GROUP        1 X    SEC  0     **** SEC X 2
     3 GLC5        1 GROUP        1 X    GLC  0     **** GLC X 6
     4 ALP1       28 GROUP        1 Y    ALP  0     ROOT ALP Y 8
     5 SEP2       25 GROUP        1 Y    SEP  0     **** SEP Y 9
     6 GLP5        3 GROUP        1 Y    GLP  0     **** GLP Y 13
     7 ALL1       27 GROUP        1 Z    ALL  0     ROOT ALL Z 15
     8 SEL2       24 GROUP        1 Z    SEL  0     **** SEL Z 16
     9 GLL5        2 GROUP        1 Z    GLL  0     **** GLL Z 20
@<TRIPOS>SET

