#    Name: 1jtv_TES_1_ligand
#    Modification time : Tue Mar 25 09:26:09 2014

@<TRIPOS>MOLECULE
1jtv_TES_1_ligand
   49    52     1     0     0
SMALL
NO_CHARGES


@<TRIPOS>ATOM
      1 C1         13.2510    6.7770  -13.2250 C.3       1 TES500      0.0000 
      2 C2         13.8090    5.4330  -12.7480 C.3       1 TES500      0.0000 
      3 C3         14.1420    5.4750  -11.2960 C.2       1 TES500      0.0000 
      4 O3         15.0710    4.8090  -10.9010 O.2       1 TES500      0.0000 
      5 C4         13.3260    6.2770  -10.4240 C.2       1 TES500      0.0000 
      6 C5         12.3250    7.0810  -10.8850 C.2       1 TES500      0.0000 
      7 C6         11.5110    7.8700   -9.9130 C.3       1 TES500      0.0000 
      8 C7         11.0160    9.2190  -10.3880 C.3       1 TES500      0.0000 
      9 C8         10.5570    9.1900  -11.8450 C.3       1 TES500      0.0000 
     10 C9         11.6440    8.6370  -12.7620 C.3       1 TES500      0.0000 
     11 C10        12.0120    7.1950  -12.3970 C.3       1 TES500      0.0000 
     12 C11        11.3330    8.6750  -14.2780 C.3       1 TES500      0.0000 
     13 C12        10.9340   10.0960  -14.6880 C.3       1 TES500      0.0000 
     14 C13         9.7800   10.6230  -13.8330 C.3       1 TES500      0.0000 
     15 C14        10.2110   10.5800  -12.3600 C.3       1 TES500      0.0000 
     16 C15         9.1860   11.3930  -11.5800 C.3       1 TES500      0.0000 
     17 C16         8.8080   12.5100  -12.5670 C.3       1 TES500      0.0000 
     18 C17         9.5460   12.1610  -13.8970 C.3       1 TES500      0.0000 
     19 O17         8.8520   12.6620  -15.0420 O.3       1 TES500      0.0000 
     20 C18         8.4690    9.8510  -14.1150 C.3       1 TES500      0.0000 
     21 C19        10.7960    6.2890  -12.6710 C.3       1 TES500      0.0000 
     22 H          12.9635    6.6992  -14.2713 H         1 TES500      0.0000 
     23 H          14.0160    7.5437  -13.1228 H         1 TES500      0.0000 
     24 H          14.7029    5.1999  -13.3337 H         1 TES500      0.0000 
     25 H          13.0621    4.6578  -12.9417 H         1 TES500      0.0000 
     26 H          13.5327    6.2198   -9.4020 H         1 TES500      0.0000 
     27 H          12.1033    8.0218   -8.9762 H         1 TES500      0.0000 
     28 H          10.6272    7.2620   -9.5957 H         1 TES500      0.0000 
     29 H          11.8183    9.9598  -10.2835 H         1 TES500      0.0000 
     30 H          10.1780    9.5428   -9.7585 H         1 TES500      0.0000 
     31 H           9.6856    8.5638  -11.9381 H         1 TES500      0.0000 
     32 H          12.5660    9.2349  -12.6118 H         1 TES500      0.0000 
     33 H          10.5183    7.9952  -14.4864 H         1 TES500      0.0000 
     34 H          12.2158    8.3741  -14.8252 H         1 TES500      0.0000 
     35 H          10.6323   10.0942  -15.7364 H         1 TES500      0.0000 
     36 H          11.7952   10.7560  -14.5746 H         1 TES500      0.0000 
     37 H          11.1667   11.1990  -12.3330 H         1 TES500      0.0000 
     38 H           9.6344   11.8165  -10.7222 H         1 TES500      0.0000 
     39 H           8.3350   10.8022  -11.3724 H         1 TES500      0.0000 
     40 H           9.1625   13.4454  -12.2092 H         1 TES500      0.0000 
     41 H           7.7598   12.5018  -12.7399 H         1 TES500      0.0000 
     42 H          10.5461   12.6222  -13.7885 H         1 TES500      0.0000 
     43 H           8.1888    9.9318  -15.0715 H         1 TES500      0.0000 
     44 H           8.5631    8.8750  -13.9186 H         1 TES500      0.0000 
     45 H           7.7110   10.1903  -13.5579 H         1 TES500      0.0000 
     46 H          10.5257    6.3112  -13.6335 H         1 TES500      0.0000 
     47 H          10.9850    5.3342  -12.4415 H         1 TES500      0.0000 
     48 H           9.9980    6.5666  -12.1360 H         1 TES500      0.0000 
     49 H           9.0553   13.6410  -15.0598 H         1 TES500      0.0000 
@<TRIPOS>BOND
     1    2    1 1    
     2   11    1 1    
     3   22    1 1    
     4   23    1 1    
     5    3    2 1    
     6   24    2 1    
     7   25    2 1    
     8    4    3 2    
     9    5    3 1    
    10    6    5 2    
    11   26    5 1    
    12    7    6 1    
    13   11    6 1    
    14    8    7 1    
    15   27    7 1    
    16   28    7 1    
    17    9    8 1    
    18   29    8 1    
    19   30    8 1    
    20   10    9 1    
    21   15    9 1    
    22   31    9 1    
    23   11   10 1    
    24   12   10 1    
    25   32   10 1    
    26   21   11 1    
    27   13   12 1    
    28   33   12 1    
    29   34   12 1    
    30   14   13 1    
    31   35   13 1    
    32   36   13 1    
    33   15   14 1    
    34   18   14 1    
    35   20   14 1    
    36   16   15 1    
    37   37   15 1    
    38   17   16 1    
    39   38   16 1    
    40   39   16 1    
    41   18   17 1    
    42   40   17 1    
    43   41   17 1    
    44   19   18 1    
    45   42   18 1    
    46   49   19 1    
    47   43   20 1    
    48   44   20 1    
    49   45   20 1    
    50   46   21 1    
    51   47   21 1    
    52   48   21 1    
@<TRIPOS>SUBSTRUCTURE
     1 TES500      1 GROUP   
@<TRIPOS>SET

