#    Name: 4dhy_S41_1_INTS_M
#    Modification time : Mon Apr  7 22:45:42 2014

@<TRIPOS>MOLECULE
4dhy_S41_1_INTS_M
   84     0     9     0     0
SMALL
NO_CHARGES


@<TRIPOS>ATOM
      1 CA         -7.1640    1.7780   19.0900 C.3       3 GLC5        0.0000 
      2 CA         -9.2860    2.5090   19.2460 C.3       9 GLL5        0.0000 
      3 CA         -5.0420    1.0470   18.9340 C.3       6 GLP5        0.0000 
      4 CA         -8.1965    2.1195   22.0075 C.3       3 GLC5        0.0000 
      5 CA         -9.6570    1.8620   20.4400 C.3       9 GLL5        0.0000 
      6 CA         -6.7360    2.3770   23.5750 C.3       6 GLP5        0.0000 
      7 CA        -13.5355    4.6015   22.4205 C.3       3 GLC5        0.0000 
      8 CA        -12.4550    5.4430   20.7850 C.3       9 GLL5        0.0000 
      9 CA        -14.6160    3.7600   24.0560 C.3       6 GLP5        0.0000 
     10 CA        -11.8665    6.5335   18.0585 C.3       3 GLC5        0.0000 
     11 CA        -11.6490    5.4830   19.7010 C.3       9 GLL5        0.0000 
     12 CA        -12.0840    7.5840   16.4160 C.3       6 GLP5        0.0000 
     13 CA        -12.5630    7.6110   19.8855 C.3       3 GLC5        0.0000 
     14 CA        -13.4850    6.4870   21.1410 C.3       9 GLL5        0.0000 
     15 CA        -11.6410    8.7350   18.6300 C.3       6 GLP5        0.0000 
     16 CA        -14.6900    7.9110   21.5080 C.3       3 GLC5        0.0000 
     17 CA        -15.8950    9.3350   21.8750 C.3       6 GLP5        0.0000 
     18 CA        -14.9420    6.0925   22.0275 C.3       3 GLC5        0.0000 
     19 CA        -16.3990    5.6980   22.9140 C.3       6 GLP5        0.0000 
     20 O          -9.8365    0.8470   23.1285 O.2       1 ALC1        0.0000 
     21 O          -9.3050   -0.0050   21.9500 O.2       7 ALL1        0.0000 
     22 O         -10.3680    1.6990   24.3070 O.2       4 ALP1        0.0000 
     23 CA         -6.0780    2.7100   18.4605 C.3       3 GLC5        0.0000 
     24 CA         -7.1140    4.3730   17.9870 C.3       9 GLL5        0.0000 
     25 CA         -5.8060    3.5470   14.1960 C.3       3 GLC5        0.0000 
     26 CA         -5.8440    4.6160   16.0900 C.3       9 GLL5        0.0000 
     27 CA         -5.7680    2.4780   12.3020 C.3       6 GLP5        0.0000 
     28 CA         -8.2065    5.8480   14.1470 C.3       3 GLC5        0.0000 
     29 CA         -8.1420    4.6440   15.8300 C.3       9 GLL5        0.0000 
     30 CA         -8.2710    7.0520   12.4640 C.3       6 GLP5        0.0000 
     31 CA         -8.1805    3.8705   13.9190 C.3       3 GLC5        0.0000 
     32 CA         -8.2190    3.0970   12.0080 C.3       6 GLP5        0.0000 
     33 CA         -2.7010    2.2255   16.4960 C.3       3 GLC5        0.0000 
     34 CA         -4.2590    2.2660   15.5460 C.3       9 GLL5        0.0000 
     35 CA         -1.1430    2.1850   17.4460 C.3       6 GLP5        0.0000 
     36 CA         -5.0135    2.3720   13.9240 C.3       3 GLC5        0.0000 
     37 CA         -3.4880    0.4440   15.3230 C.3       3 GLC5        0.0000 
     38 CA         -2.7170   -1.3780   15.1000 C.3       6 GLP5        0.0000 
     39 CA         -4.6505    1.6565   17.2400 C.3       3 GLC5        0.0000 
     40 CA         -1.7830    2.9465   16.0185 C.3       3 GLC5        0.0000 
     41 CA         -2.4230    3.7080   14.5910 C.3       9 GLL5        0.0000 
     42 CA         -1.4360    2.6430   13.4980 C.3       3 GLC5        0.0000 
     43 CA         -0.4490    1.5780   12.4050 C.3       6 GLP5        0.0000 
     44 CA         -4.0955    3.0930   13.4465 C.3       3 GLC5        0.0000 
     45 CA        -11.0235   -1.6245   22.6790 C.3       3 GLC5        0.0000 
     46 CA         -8.8990   -1.2580   22.4000 C.3       9 GLL5        0.0000 
     47 CA        -13.1480   -1.9910   22.9580 C.3       6 GLP5        0.0000 
     48 CA         -7.8175    0.5595   22.9875 C.3       3 GLC5        0.0000 
     49 N         -10.6800   -1.0680   24.0910 N.am      2 SEC2        0.0000 
     50 N          -9.3320   -1.5810   23.6160 N.am      8 SEL2        0.0000 
     51 N         -12.0280   -0.5550   24.5660 N.am      5 SEP2        0.0000 
     52 CA        -11.0840   -2.3775   23.5510 C.3       3 GLC5        0.0000 
     53 CA         -9.0200   -2.7640   24.1440 C.3       9 GLL5        0.0000 
     54 CA        -10.0970   -1.4430   25.4840 C.3       3 GLC5        0.0000 
     55 CA        -11.1740   -0.1220   26.8240 C.3       6 GLP5        0.0000 
     56 CA         -6.5675   -3.4740   21.1625 C.3       3 GLC5        0.0000 
     57 CA         -8.1450   -2.1840   21.6470 C.3       9 GLL5        0.0000 
     58 CA         -4.9900   -4.7640   20.6780 C.3       6 GLP5        0.0000 
     59 CA         -8.7560   -6.5975   23.1710 C.3       3 GLC5        0.0000 
     60 CA         -7.9560   -5.0060   24.0580 C.3       9 GLL5        0.0000 
     61 CA         -9.5560   -8.1890   22.2840 C.3       6 GLP5        0.0000 
     62 CA        -10.9680    2.5760   18.1250 C.3       3 GLC5        0.0000 
     63 CA         -9.8260    3.7390   18.9300 C.3       9 GLL5        0.0000 
     64 CA        -12.3800    2.0280   17.1620 C.3       6 GLP5        0.0000 
     65 CA        -11.6200    1.0349   20.8961 C.3       3 GLC5        0.0000 
     66 CA        -12.9390   -0.3590   21.0180 C.3       6 GLP5        0.0000 
     67 CA        -11.2665    2.0770   19.0105 C.3       3 GLC5        0.0000 
     68 CA        -10.6490    2.3900   21.2780 C.3       9 GLL5        0.0000 
     69 CA        -11.8610    3.3695   18.5934 C.3       3 GLC5        0.0000 
     70 CA        -14.1057    4.8525   19.8990 C.3       3 GLC5        0.0000 
     71 CA        -15.4430    3.7300   19.1060 C.3       6 GLP5        0.0000 
     72 CA         -9.4785    3.2618   15.8812 C.3       3 GLC5        0.0000 
     73 CA         -8.2860    4.4330   17.2090 C.3       9 GLL5        0.0000 
     74 CA        -10.7430    1.9850   15.2430 C.3       6 GLP5        0.0000 
     75 CA         -9.7355   -3.4225   21.7203 C.3       3 GLC5        0.0000 
     76 CA        -10.9490   -5.1240   21.4170 C.3       6 GLP5        0.0000 
     77 CA         -9.3100   -2.3135   20.2402 C.3       3 GLC5        0.0000 
     78 CA        -10.0980   -2.9060   18.4570 C.3       6 GLP5        0.0000 
     79 CA         -6.9735   -0.8640   21.6008 C.3       3 GLC5        0.0000 
     80 CA         -5.4250   -0.0070   21.1780 C.3       6 GLP5        0.0000 
     81 CA         -9.7937   -4.1715   22.5988 C.3       3 GLC5        0.0000 
     82 CA         -8.2570   -3.6740   23.4170 C.3       9 GLL5        0.0000 
     83 CA         -7.1193   -4.9655   21.9218 C.3       3 GLC5        0.0000 
     84 CA         -6.1320   -5.5910   20.1060 C.3       6 GLP5        0.0000 
@<TRIPOS>BOND
@<TRIPOS>SUBSTRUCTURE
     1 ALC1       20 GROUP        1 X    ALC  0     ROOT ALC X 1
     2 SEC2       49 GROUP        1 X    SEC  0     **** SEC X 2
     3 GLC5        1 GROUP        1 X    GLC  0     **** GLC X 6
     4 ALP1       22 GROUP        1 Y    ALP  0     ROOT ALP Y 8
     5 SEP2       51 GROUP        1 Y    SEP  0     **** SEP Y 9
     6 GLP5        3 GROUP        1 Y    GLP  0     **** GLP Y 13
     7 ALL1       21 GROUP        1 Z    ALL  0     ROOT ALL Z 15
     8 SEL2       50 GROUP        1 Z    SEL  0     **** SEL Z 16
     9 GLL5        2 GROUP        1 Z    GLL  0     **** GLL Z 20
@<TRIPOS>SET

