#    Name: 4dhy_S41_1_ligand
#    Modification time : Mon Apr  7 22:45:42 2014

@<TRIPOS>MOLECULE
4dhy_S41_1_ligand
   52    55     1     0     0
SMALL
NO_CHARGES


@<TRIPOS>ATOM
      1 C1        -11.2410    3.6010   20.9390 C.ar      1 S41502      0.0000 
      2 C2        -10.8290    4.2770   19.7580 C.ar      1 S41502      0.0000 
      3 C3         -9.8260    3.7390   18.9300 C.ar      1 S41502      0.0000 
      4 C4         -9.2860    2.5090   19.2460 C.ar      1 S41502      0.0000 
      5 C5         -9.6570    1.8620   20.4400 C.ar      1 S41502      0.0000 
      6 C6        -10.6490    2.3900   21.2780 C.ar      1 S41502      0.0000 
      7 O7        -12.1800    4.3590   21.5360 O.3       1 S41502      0.0000 
      8 C8        -12.4550    5.4430   20.7850 C.2       1 S41502      0.0000 
      9 C9        -11.6490    5.4830   19.7010 C.2       1 S41502      0.0000 
     10 C10       -13.4850    6.4870   21.1410 C.3       1 S41502      0.0000 
     11 C11        -9.0910    0.5430   20.7360 C.2       1 S41502      0.0000 
     12 O12        -9.5410    4.3580   17.7500 O.3       1 S41502      0.0000 
     13 O13        -8.5130   -0.0410   19.8450 O.2       1 S41502      0.0000 
     14 N14        -9.3050   -0.0050   21.9500 N.am      1 S41502      0.0000 
     15 C15        -8.2860    4.4330   17.2090 C.ar      1 S41502      0.0000 
     16 C16        -7.1140    4.3730   17.9870 C.ar      1 S41502      0.0000 
     17 N17        -5.9340    4.4380   17.4040 N.ar      1 S41502      0.0000 
     18 C18        -5.8440    4.6160   16.0900 C.ar      1 S41502      0.0000 
     19 N19        -6.9300    4.7120   15.3130 N.ar      1 S41502      0.0000 
     20 C20        -8.1420    4.6440   15.8300 C.ar      1 S41502      0.0000 
     21 C21        -4.4920    4.7290   15.4690 C.2       1 S41502      0.0000 
     22 N22        -3.7450    3.6050   15.2220 N.am      1 S41502      0.0000 
     23 O23        -4.0870    5.8530   15.1930 O.2       1 S41502      0.0000 
     24 C24        -4.2590    2.2660   15.5460 C.3       1 S41502      0.0000 
     25 C25        -2.4230    3.7080   14.5910 C.3       1 S41502      0.0000 
     26 C26        -8.8990   -1.2580   22.4000 C.ar      1 S41502      0.0000 
     27 N27        -9.3320   -1.5810   23.6160 N.ar      1 S41502      0.0000 
     28 C28        -9.0200   -2.7640   24.1440 C.ar      1 S41502      0.0000 
     29 C29        -8.2570   -3.6740   23.4170 C.ar      1 S41502      0.0000 
     30 N30        -7.8190   -3.3640   22.1830 N.ar      1 S41502      0.0000 
     31 C31        -8.1450   -2.1840   21.6470 C.ar      1 S41502      0.0000 
     32 C32        -7.9560   -5.0060   24.0580 C.3       1 S41502      0.0000 
     33 H          -8.6117    2.0548   18.6176 H         1 S41502      0.0000 
     34 H         -10.9278    1.8898   22.1209 H         1 S41502      0.0000 
     35 H         -11.5811    6.1171   19.0230 H         1 S41502      0.0000 
     36 H          -9.8588    0.5901   22.6741 H         1 S41502      0.0000 
     37 H          -7.2224    4.2776   19.0147 H         1 S41502      0.0000 
     38 H          -8.9975    4.7402   15.2589 H         1 S41502      0.0000 
     39 H          -9.3335   -3.0331   25.0970 H         1 S41502      0.0000 
     40 H          -7.8632   -1.9188   20.6900 H         1 S41502      0.0000 
     41 H         -13.2809    6.9270   22.0155 H         1 S41502      0.0000 
     42 H         -13.5333    7.2109   20.4528 H         1 S41502      0.0000 
     43 H         -14.4013    6.0938   21.2175 H         1 S41502      0.0000 
     44 H          -3.6021    1.5493   15.3118 H         1 S41502      0.0000 
     45 H          -4.4608    2.1715   16.5209 H         1 S41502      0.0000 
     46 H          -5.1036    2.0626   15.0508 H         1 S41502      0.0000 
     47 H          -1.7931    4.2607   15.1366 H         1 S41502      0.0000 
     48 H          -1.9976    2.8109   14.4715 H         1 S41502      0.0000 
     49 H          -2.4753    4.1305   13.6861 H         1 S41502      0.0000 
     50 H          -7.4064   -5.5899   23.4606 H         1 S41502      0.0000 
     51 H          -7.4480   -4.9004   24.9128 H         1 S41502      0.0000 
     52 H          -8.7914   -5.5114   24.2740 H         1 S41502      0.0000 
@<TRIPOS>BOND
     1    2    1 ar   
     2    6    1 ar   
     3    7    1 1    
     4    3    2 ar   
     5    9    2 1    
     6    4    3 ar   
     7   12    3 1    
     8    5    4 ar   
     9   33    4 1    
    10    6    5 ar   
    11   11    5 1    
    12   34    6 1    
    13    8    7 1    
    14    9    8 2    
    15   10    8 1    
    16   35    9 1    
    17   41   10 1    
    18   42   10 1    
    19   43   10 1    
    20   13   11 2    
    21   14   11 am   
    22   15   12 1    
    23   26   14 1    
    24   36   14 1    
    25   16   15 ar   
    26   20   15 ar   
    27   17   16 ar   
    28   37   16 1    
    29   18   17 ar   
    30   19   18 ar   
    31   21   18 1    
    32   20   19 ar   
    33   38   20 1    
    34   22   21 am   
    35   23   21 2    
    36   24   22 1    
    37   25   22 1    
    38   44   24 1    
    39   45   24 1    
    40   46   24 1    
    41   47   25 1    
    42   48   25 1    
    43   49   25 1    
    44   27   26 ar   
    45   31   26 ar   
    46   28   27 ar   
    47   29   28 ar   
    48   39   28 1    
    49   30   29 ar   
    50   32   29 1    
    51   31   30 ar   
    52   40   31 1    
    53   50   32 1    
    54   51   32 1    
    55   52   32 1    
@<TRIPOS>SUBSTRUCTURE
     1 S41502      1 GROUP   
@<TRIPOS>SET

