#    Name: 3lxg_Z73_1_INTS_M
#    Modification time : Mon Mar 24 22:25:00 2014

@<TRIPOS>MOLECULE
3lxg_Z73_1_INTS_M
   49     0     6     0     0
SMALL
NO_CHARGES


@<TRIPOS>ATOM
      1 N          13.4180   15.3120  -13.3655 N.am      1 SEC2        0.0000 
      2 N          13.6970   15.8320  -12.0020 N.am      5 SEL2        0.0000 
      3 N          13.1390   14.7920  -14.7290 N.am      3 SEP2        0.0000 
      4 CA         11.6305   15.5720   -9.8910 C.3       2 GLC5        0.0000 
      5 CA         12.8650   17.3780  -10.3370 C.3       6 GLL5        0.0000 
      6 CA         10.3960   13.7660   -9.4450 C.3       4 GLP5        0.0000 
      7 CA         15.9375   16.9695   -7.5870 C.3       2 GLC5        0.0000 
      8 CA         15.0050   15.3150   -8.4930 C.3       6 GLL5        0.0000 
      9 CA         16.8700   18.6240   -6.6810 C.3       4 GLP5        0.0000 
     10 CA         17.0485   14.2050  -11.1520 C.3       2 GLC5        0.0000 
     11 CA         15.3100   14.0200  -11.3770 C.3       6 GLL5        0.0000 
     12 CA         18.7870   14.3900  -10.9270 C.3       4 GLP5        0.0000 
     13 CA         14.1965   13.2280  -10.1630 C.3       2 GLC5        0.0000 
     14 CA         13.0830   12.4360   -8.9490 C.3       4 GLP5        0.0000 
     15 CA         16.0290   15.9835  -11.3105 C.3       2 GLC5        0.0000 
     16 CA         16.7480   17.9470  -11.2440 C.3       4 GLP5        0.0000 
     17 CA         14.7135   13.3885   -6.5845 C.3       2 GLC5        0.0000 
     18 CA         15.9790   14.1920   -8.2360 C.3       6 GLL5        0.0000 
     19 CA         13.4480   12.5850   -4.9330 C.3       4 GLP5        0.0000 
     20 CA         17.4065   15.2515   -7.1110 C.3       2 GLC5        0.0000 
     21 CA         18.8340   16.3110   -5.9860 C.3       4 GLP5        0.0000 
     22 CA         16.8275   12.6075   -7.8935 C.3       2 GLC5        0.0000 
     23 CA         17.6760   11.0230   -7.5510 C.3       4 GLP5        0.0000 
     24 CA         17.3830   14.2910   -9.5815 C.3       2 GLC5        0.0000 
     25 CA         14.5310   13.3140   -8.5925 C.3       2 GLC5        0.0000 
     26 CA         13.5875   20.0215   -7.2930 C.3       2 GLC5        0.0000 
     27 CA         13.0310   18.0920   -7.3100 C.3       6 GLL5        0.0000 
     28 CA         14.1440   21.9510   -7.2760 C.3       4 GLP5        0.0000 
     29 CA         14.9505   18.3580   -6.9955 C.3       2 GLC5        0.0000 
     30 CA         14.1045   18.8905   -9.0435 C.3       2 GLC5        0.0000 
     31 CA         15.1780   19.6890  -10.7770 C.3       4 GLP5        0.0000 
     32 CA         10.2560   17.1090   -8.3250 C.3       2 GLC5        0.0000 
     33 CA         11.6980   17.4430   -6.8970 C.3       6 GLL5        0.0000 
     34 CA          8.8140   16.7750   -9.7530 C.3       4 GLP5        0.0000 
     35 CA          9.2470   17.5975   -7.4845 C.3       2 GLC5        0.0000 
     36 CA         10.7420   18.3330   -6.0940 C.3       6 GLL5        0.0000 
     37 CA          7.7520   16.8620   -8.8750 C.3       4 GLP5        0.0000 
     38 CA         12.2435   21.2210   -8.2310 C.3       2 GLC5        0.0000 
     39 CA         10.3430   20.4910   -9.1860 C.3       6 GLL5        0.0000 
     40 CA          9.5785   18.6330   -9.4695 C.3       2 GLC5        0.0000 
     41 CA          8.4685   20.1635  -10.2820 C.3       2 GLC5        0.0000 
     42 CA          6.5940   19.8360  -11.3780 C.3       4 GLP5        0.0000 
     43 CA         13.8897   13.9712   -9.0210 C.3       2 GLC5        0.0000 
     44 CA         14.3880   15.6980   -9.6930 C.3       6 GLL5        0.0000 
     45 CA          9.5497   19.3008  -12.1750 C.3       2 GLC5        0.0000 
     46 CA         11.3520   18.6900  -12.2750 C.3       6 GLL5        0.0000 
     47 CA          7.7600   19.6870  -12.7340 C.3       4 GLP5        0.0000 
     48 CA         13.4944   18.4560  -13.3450 C.3       2 GLC5        0.0000 
     49 CA         15.0550   18.9370  -14.4820 C.3       4 GLP5        0.0000 
@<TRIPOS>BOND
@<TRIPOS>SUBSTRUCTURE
     1 SEC2        1 GROUP        1 X    SEC  0     ROOT SEC X 2
     2 GLC5        4 GROUP        1 X    GLC  0     **** GLC X 6
     3 SEP2        3 GROUP        1 Y    SEP  0     ROOT SEP Y 9
     4 GLP5        6 GROUP        1 Y    GLP  0     **** GLP Y 13
     5 SEL2        2 GROUP        1 Z    SEL  0     ROOT SEL Z 16
     6 GLL5        5 GROUP        1 Z    GLL  0     **** GLL Z 20
@<TRIPOS>SET

