#    Name: 3lxg_Z73_1_ligand
#    Modification time : Mon Mar 24 22:25:00 2014

@<TRIPOS>MOLECULE
3lxg_Z73_1_ligand
   38    40     1     0     0
SMALL
NO_CHARGES


@<TRIPOS>ATOM
      1 C1         14.4540   15.2040  -11.0020 C.2       1 Z731        0.0000 
      2 C2         14.3880   15.6980   -9.6930 C.2       1 Z731        0.0000 
      3 N3         13.6970   15.8320  -12.0020 N.2       1 Z731        0.0000 
      4 N4         13.6040   16.7480   -9.4040 N.pl3     1 Z731        0.0000 
      5 C5         12.8950   16.9260  -11.6630 C.ar      1 Z731        0.0000 
      6 C6         12.8650   17.3780  -10.3370 C.ar      1 Z731        0.0000 
      7 C7         11.3270   19.1390  -10.9570 C.ar      1 Z731        0.0000 
      8 N8         12.0860   18.4710  -10.0020 N.ar      1 Z731        0.0000 
      9 C9         11.3520   18.6900  -12.2750 C.ar      1 Z731        0.0000 
     10 C10        12.1360   17.5940  -12.6190 C.ar      1 Z731        0.0000 
     11 C11        13.7320   17.0210   -8.0890 C.2       1 Z731        0.0000 
     12 N12        14.5840   16.1380   -7.5120 N.2       1 Z731        0.0000 
     13 C13        15.0050   15.3150   -8.4930 C.2       1 Z731        0.0000 
     14 C14        15.3100   14.0200  -11.3770 C.3       1 Z731        0.0000 
     15 C15        15.9790   14.1920   -8.2360 C.3       1 Z731        0.0000 
     16 C16        13.0310   18.0920   -7.3100 C.3       1 Z731        0.0000 
     17 C17        11.6980   17.4430   -6.8970 C.3       1 Z731        0.0000 
     18 C18        10.7420   18.3330   -6.0940 C.3       1 Z731        0.0000 
     19 O19        10.5670   20.2170  -10.5740 O.3       1 Z731        0.0000 
     20 C20        10.3430   20.4910   -9.1860 C.3       1 Z731        0.0000 
     21 H          10.7921   19.1680  -12.9912 H         1 Z731        0.0000 
     22 H          12.1554   17.2696  -13.6022 H         1 Z731        0.0000 
     23 H          12.8304   18.9353   -7.9262 H         1 Z731        0.0000 
     24 H          13.5813   18.3421   -6.4349 H         1 Z731        0.0000 
     25 H          11.9185   16.5317   -6.3047 H         1 Z731        0.0000 
     26 H          11.1771   17.0953   -7.8122 H         1 Z731        0.0000 
     27 H          16.2768   14.1835  -11.1804 H         1 Z731        0.0000 
     28 H          15.0444   13.1962  -10.8762 H         1 Z731        0.0000 
     29 H          15.2412   13.8057  -12.3513 H         1 Z731        0.0000 
     30 H          16.8115   14.2904   -8.7811 H         1 Z731        0.0000 
     31 H          16.2593   14.1557   -7.2768 H         1 Z731        0.0000 
     32 H          15.5855   13.3005   -8.4603 H         1 Z731        0.0000 
     33 H          11.1540   18.6420   -5.2368 H         1 Z731        0.0000 
     34 H          10.4794   19.1516   -6.6048 H         1 Z731        0.0000 
     35 H           9.8979   17.8521   -5.8568 H         1 Z731        0.0000 
     36 H          11.1998   20.6531   -8.6965 H         1 Z731        0.0000 
     37 H           9.7726   21.3018   -9.0548 H         1 Z731        0.0000 
     38 H           9.8824   19.7312   -8.7271 H         1 Z731        0.0000 
@<TRIPOS>BOND
     1    2    1 1    
     2    3    1 2    
     3   14    1 1    
     4    4    2 1    
     5   13    2 2    
     6    5    3 1    
     7    6    4 1    
     8   11    4 1    
     9    6    5 ar   
    10   10    5 ar   
    11    8    6 ar   
    12    8    7 ar   
    13    9    7 ar   
    14   19    7 1    
    15   10    9 ar   
    16   21    9 1    
    17   22   10 1    
    18   12   11 2    
    19   16   11 1    
    20   13   12 1    
    21   15   13 1    
    22   27   14 1    
    23   28   14 1    
    24   29   14 1    
    25   30   15 1    
    26   31   15 1    
    27   32   15 1    
    28   17   16 1    
    29   23   16 1    
    30   24   16 1    
    31   18   17 1    
    32   25   17 1    
    33   26   17 1    
    34   33   18 1    
    35   34   18 1    
    36   35   18 1    
    37   20   19 1    
    38   36   20 1    
    39   37   20 1    
    40   38   20 1    
@<TRIPOS>SUBSTRUCTURE
     1 Z731        1 GROUP   
@<TRIPOS>SET

