#    Name: 2clp_NDP_3_INTS_M
#    Modification time : Tue Mar 25 01:02:04 2014

@<TRIPOS>MOLECULE
2clp_NDP_3_INTS_M
  115     0    12     0     0
SMALL
NO_CHARGES


@<TRIPOS>ATOM
      1 N         -94.5970  -24.6085   41.6215 N.am      2 SEC2        0.0000 
      2 N         -94.0820  -24.5670   42.9860 N.am     10 SEL2        0.0000 
      3 N         -95.1120  -24.6500   40.2570 N.am      6 SEP2        0.0000 
      4 N         -95.1395  -23.9865   43.7310 N.am      2 SEC2        0.0000 
      5 N         -96.1970  -23.4060   44.4760 N.am      6 SEP2        0.0000 
      6 N         -94.2840  -25.7230   41.2610 N.am      2 SEC2        0.0000 
      7 N         -93.4560  -26.7960   42.2650 N.am     10 SEL2        0.0000 
      8 CA        -92.1670  -28.3950   44.4250 C.3       4 GLC5        0.0000 
      9 CA        -93.7560  -27.7510   45.0320 C.3      12 GLL5        0.0000 
     10 CA        -90.5780  -29.0390   43.8180 C.3       8 GLP5        0.0000 
     11 CA        -96.6995  -27.4340   45.3525 C.3       4 GLC5        0.0000 
     12 CA        -94.7370  -28.1330   46.1150 C.3      12 GLL5        0.0000 
     13 CA        -98.6620  -26.7350   44.5900 C.3       8 GLP5        0.0000 
     14 CA        -97.5980  -28.1610   45.2775 C.3       4 GLC5        0.0000 
     15 CA        -96.5340  -29.5870   45.9650 C.3      12 GLL5        0.0000 
     16 N         -94.7830  -32.1930   42.1380 N.am      2 SEC2        0.0000 
     17 N         -95.7290  -31.9650   43.2340 N.am     10 SEL2        0.0000 
     18 N         -93.8370  -32.4210   41.0420 N.am      6 SEP2        0.0000 
     19 CA        -96.6075  -30.5680   42.0785 C.3       4 GLC5        0.0000 
     20 CA        -97.0440  -32.2060   43.3870 C.3      12 GLL5        0.0000 
     21 CA        -96.1710  -28.9300   40.7700 C.3       8 GLP5        0.0000 
     22 CA        -98.1945  -32.4250   40.7975 C.3       4 GLC5        0.0000 
     23 CA        -97.8930  -33.0810   42.7360 C.3      12 GLL5        0.0000 
     24 CA        -98.4960  -31.7690   38.8590 C.3       8 GLP5        0.0000 
     25 CA        -98.5290  -34.7420   41.5335 C.3       4 GLC5        0.0000 
     26 CA        -99.1650  -36.4030   40.3310 C.3       8 GLP5        0.0000 
     27 O         -96.4270  -33.2825   40.6275 O.2       1 ALC1        0.0000 
     28 O         -97.4250  -33.8730   41.7710 O.2       9 ALL1        0.0000 
     29 O         -95.4290  -32.6920   39.4840 O.2       5 ALP1        0.0000 
     30 CA        -99.7165  -30.9310   43.1040 C.3       4 GLC5        0.0000 
     31 CA        -99.6950  -32.3030   44.1150 C.3      12 GLL5        0.0000 
     32 CA        -99.7380  -29.5590   42.0930 C.3       8 GLP5        0.0000 
     33 CA       -101.0075  -31.5010   45.1600 C.3       4 GLC5        0.0000 
     34 CA       -102.3200  -30.6990   46.2050 C.3       8 GLP5        0.0000 
     35 N         -99.4980  -31.1375   46.0720 N.am      2 SEC2        0.0000 
     36 N         -98.8450  -31.4360   44.7520 N.am     10 SEL2        0.0000 
     37 N        -100.1510  -30.8390   47.3920 N.am      6 SEP2        0.0000 
     38 NZ        -91.6055  -26.2235   47.1480 N.4       3 LYC4        0.0000 
     39 NZ        -90.7640  -26.1780   45.8370 N.4      11 LYL4        0.0000 
     40 NZ        -93.1900  -25.2370   48.8250 N.4       7 LYP4        0.0000 
     41 N         -91.6055  -26.2235   47.1480 N.am      2 SEC2        0.0000 
     42 N         -90.7640  -26.1780   45.8370 N.am     10 SEL2        0.0000 
     43 N         -92.4470  -26.2690   48.4590 N.am      6 SEP2        0.0000 
     44 NZ        -92.4930  -23.9725   46.7815 N.4       3 LYC4        0.0000 
     45 NZ        -91.7910  -23.8010   45.4870 N.4      11 LYL4        0.0000 
     46 N         -91.9070  -22.5745   45.2260 N.am      2 SEC2        0.0000 
     47 N         -91.7910  -23.8010   45.4870 N.am     10 SEL2        0.0000 
     48 N         -92.0230  -21.3480   44.9650 N.am      6 SEP2        0.0000 
     49 N         -92.4930  -23.9725   46.7815 N.am      2 SEC2        0.0000 
     50 N         -93.1950  -24.1440   48.0760 N.am      6 SEP2        0.0000 
     51 N         -90.2880  -23.2955   43.2815 N.am      2 SEC2        0.0000 
     52 N         -89.6850  -24.5100   44.3810 N.am     10 SEL2        0.0000 
     53 N         -90.8910  -22.0810   42.1820 N.am      6 SEP2        0.0000 
     54 CA        -90.1630  -24.8625   42.1250 C.3       4 GLC5        0.0000 
     55 CA        -88.8530  -25.4570   43.7560 C.3      12 GLL5        0.0000 
     56 CA        -91.4730  -24.2680   40.4940 C.3       8 GLP5        0.0000 
     57 CA        -89.7155  -27.2480   43.7870 C.3       4 GLC5        0.0000 
     58 N         -86.2855  -27.6605   47.4255 N.am      2 SEC2        0.0000 
     59 N         -87.0980  -26.9230   46.1320 N.am     10 SEL2        0.0000 
     60 N         -85.4730  -28.3980   48.7190 N.am      6 SEP2        0.0000 
     61 CA        -84.6725  -24.5155   47.5350 C.3       4 GLC5        0.0000 
     62 CA        -86.0130  -24.7660   46.0230 C.3      12 GLL5        0.0000 
     63 CA        -83.3320  -24.2650   49.0470 C.3       8 GLP5        0.0000 
     64 O         -83.8235  -25.0825   45.4035 O.2       1 ALC1        0.0000 
     65 O         -84.9240  -25.6510   45.8310 O.2       9 ALL1        0.0000 
     66 O         -82.7230  -24.5140   44.9760 O.2       5 ALP1        0.0000 
     67 CA        -86.9890  -22.5290   43.6800 C.3       4 GLC5        0.0000 
     68 CA        -86.0330  -23.6150   45.0080 C.3      12 GLL5        0.0000 
     69 CA        -87.9450  -21.4430   42.3520 C.3       8 GLP5        0.0000 
     70 CA        -85.7390  -24.9005   43.3330 C.3       4 GLC5        0.0000 
     71 CA        -85.4450  -26.1860   41.6580 C.3       8 GLP5        0.0000 
     72 N         -84.4840  -18.2510   48.1365 N.am      2 SEC2        0.0000 
     73 N         -85.6090  -17.8690   47.0320 N.am     10 SEL2        0.0000 
     74 N         -83.3590  -18.6330   49.2410 N.am      6 SEP2        0.0000 
     75 N         -85.2615  -16.4765   46.5800 N.am      2 SEC2        0.0000 
     76 N         -84.9140  -15.0840   46.1280 N.am      6 SEP2        0.0000 
     77 O         -84.1710  -17.3910   44.4090 O.2       1 ALC1        0.0000 
     78 O         -84.9710  -18.3620   44.8070 O.2       9 ALL1        0.0000 
     79 O         -83.3710  -16.4200   44.0110 O.2       5 ALP1        0.0000 
     80 O         -84.2335  -19.8245   44.2210 O.2       1 ALC1        0.0000 
     81 O         -83.4960  -21.2870   43.6350 O.2       5 ALP1        0.0000 
     82 CA        -87.8030  -21.9265   44.3340 C.3       4 GLC5        0.0000 
     83 CA        -87.6610  -22.4100   46.3160 C.3      12 GLL5        0.0000 
     84 NZ        -98.8450  -31.1005   48.4010 N.4       3 LYC4        0.0000 
     85 NZ        -97.5390  -31.3620   49.4100 N.4      11 LYL4        0.0000 
     86 NZ       -100.1510  -30.8390   47.3920 N.4       7 LYP4        0.0000 
     87 N         -97.4630  -32.4035   48.0945 N.am      2 SEC2        0.0000 
     88 N         -97.5390  -31.3620   49.4100 N.am     10 SEL2        0.0000 
     89 N         -97.3870  -33.4450   46.7790 N.am      6 SEP2        0.0000 
     90 NZ        -99.3485  -29.9490   48.0900 N.4       3 LYC4        0.0000 
     91 NZ        -98.5460  -29.0590   48.7880 N.4      11 LYL4        0.0000 
     92 N         -99.3485  -29.9490   48.0900 N.am      2 SEC2        0.0000 
     93 N         -98.5460  -29.0590   48.7880 N.am     10 SEL2        0.0000 
     94 CA        -95.2318  -26.0160   45.6692 C.3       4 GLC5        0.0000 
     95 CA        -96.2170  -24.0900   45.7650 C.3       8 GLP5        0.0000 
     96 CA        -93.5103  -30.8758   46.3315 C.3       4 GLC5        0.0000 
     97 CA        -94.3330  -29.4230   46.8090 C.3      12 GLL5        0.0000 
     98 CA        -92.0190  -32.0240   45.6860 C.3       8 GLP5        0.0000 
     99 CA        -94.4888  -31.1002   48.4950 C.3       4 GLC5        0.0000 
    100 CA        -93.9760  -32.4730   50.0130 C.3       8 GLP5        0.0000 
    101 CA        -98.6201  -30.7859   42.9116 C.3       4 GLC5        0.0000 
    102 CA        -96.9186  -33.5409   44.5351 C.3       4 GLC5        0.0000 
    103 CA        -97.5360  -31.3820   44.3990 C.3      12 GLL5        0.0000 
    104 CA        -96.3350  -35.0690   45.3400 C.3       8 GLP5        0.0000 
    105 CA        -88.0447  -23.4230   43.1842 C.3       4 GLC5        0.0000 
    106 CA        -86.7947  -25.7945   42.8372 C.3       4 GLC5        0.0000 
    107 CA        -86.7477  -25.8263   47.6245 C.3       4 GLC5        0.0000 
    108 CA        -87.2680  -25.5710   45.7690 C.3      12 GLL5        0.0000 
    109 CA        -86.8550  -26.4840   49.3530 C.3       8 GLP5        0.0000 
    110 CA        -86.0748  -26.9005   44.8935 C.3       4 GLC5        0.0000 
    111 CA        -85.4670  -28.6880   44.2640 C.3       8 GLP5        0.0000 
    112 CA        -87.0282  -21.0090   44.0153 C.3       4 GLC5        0.0000 
    113 CA        -85.8410  -21.1700   45.4290 C.3      12 GLL5        0.0000 
    114 CA        -87.9808  -22.9363   48.1785 C.3       4 GLC5        0.0000 
    115 CA        -88.0520  -24.0120   49.7010 C.3       8 GLP5        0.0000 
@<TRIPOS>BOND
@<TRIPOS>SUBSTRUCTURE
     1 ALC1       27 GROUP        1 X    ALC  0     ROOT ALC X 1
     2 SEC2        1 GROUP        1 X    SEC  0     **** SEC X 2
     3 LYC4       38 GROUP        1 X    LYC  0     **** LYC X 4
     4 GLC5        8 GROUP        1 X    GLC  0     **** GLC X 6
     5 ALP1       29 GROUP        1 Y    ALP  0     ROOT ALP Y 8
     6 SEP2        3 GROUP        1 Y    SEP  0     **** SEP Y 9
     7 LYP4       40 GROUP        1 Y    LYP  0     **** LYP Y 11
     8 GLP5       10 GROUP        1 Y    GLP  0     **** GLP Y 13
     9 ALL1       28 GROUP        1 Z    ALL  0     ROOT ALL Z 15
    10 SEL2        2 GROUP        1 Z    SEL  0     **** SEL Z 16
    11 LYL4       39 GROUP        1 Z    LYL  0     **** LYL Z 18
    12 GLL5        9 GROUP        1 Z    GLL  0     **** GLL Z 20
@<TRIPOS>SET

