#    Name: 2clp_NDP_3_ligand
#    Modification time : Tue Mar 25 01:02:04 2014

@<TRIPOS>MOLECULE
2clp_NDP_3_ligand
   74    78     1     0     0
SMALL
NO_CHARGES


@<TRIPOS>ATOM
      1 PA        -93.3740  -25.8110   43.3580 P.3       1 NDP1361     0.0000 
      2 O1A       -94.0820  -24.5670   42.9860 O.co2     1 NDP1361     0.0000 
      3 O2A       -93.4560  -26.7960   42.2650 O.co2     1 NDP1361     0.0000 
      4 O5B       -94.0410  -26.4330   44.6680 O.3       1 NDP1361     0.0000 
      5 C5B       -93.7560  -27.7510   45.0320 C.3       1 NDP1361     0.0000 
      6 C4B       -94.7370  -28.1330   46.1150 C.3       1 NDP1361     0.0000 
      7 O4B       -96.0210  -28.3240   45.5560 O.3       1 NDP1361     0.0000 
      8 C3B       -94.3330  -29.4230   46.8090 C.3       1 NDP1361     0.0000 
      9 O3B       -93.5490  -29.2090   47.9550 O.3       1 NDP1361     0.0000 
     10 C2B       -95.6700  -30.0320   47.1450 C.3       1 NDP1361     0.0000 
     11 O2B       -96.0580  -29.4950   48.3970 O.3       1 NDP1361     0.0000 
     12 C1B       -96.5340  -29.5870   45.9650 C.3       1 NDP1361     0.0000 
     13 N9A       -96.4810  -30.6180   44.8680 N.pl3     1 NDP1361     0.0000 
     14 C8A       -95.3780  -31.0040   44.1220 C.2       1 NDP1361     0.0000 
     15 N7A       -95.7290  -31.9650   43.2340 N.2       1 NDP1361     0.0000 
     16 C5A       -97.0440  -32.2060   43.3870 C.ar      1 NDP1361     0.0000 
     17 C6A       -97.8930  -33.0810   42.7360 C.ar      1 NDP1361     0.0000 
     18 N6A       -97.4250  -33.8730   41.7710 N.pl3     1 NDP1361     0.0000 
     19 N1A       -99.2230  -33.1220   43.1070 N.ar      1 NDP1361     0.0000 
     20 C2A       -99.6950  -32.3030   44.1150 C.ar      1 NDP1361     0.0000 
     21 N3A       -98.8450  -31.4360   44.7520 N.ar      1 NDP1361     0.0000 
     22 C4A       -97.5360  -31.3820   44.3990 C.ar      1 NDP1361     0.0000 
     23 O3        -91.8090  -25.5380   43.6510 O.3       1 NDP1361     0.0000 
     24 PN        -91.0850  -25.0040   44.9870 P.3       1 NDP1361     0.0000 
     25 O1N       -90.7640  -26.1780   45.8370 O.co2     1 NDP1361     0.0000 
     26 O2N       -91.7910  -23.8010   45.4870 O.co2     1 NDP1361     0.0000 
     27 O5D       -89.6850  -24.5100   44.3810 O.3       1 NDP1361     0.0000 
     28 C5D       -88.8530  -25.4570   43.7560 C.3       1 NDP1361     0.0000 
     29 C4D       -87.4360  -25.3490   44.2770 C.3       1 NDP1361     0.0000 
     30 O4D       -86.9460  -24.0430   44.0180 O.3       1 NDP1361     0.0000 
     31 C3D       -87.2680  -25.5710   45.7690 C.3       1 NDP1361     0.0000 
     32 O3D       -87.0980  -26.9230   46.1320 O.3       1 NDP1361     0.0000 
     33 C2D       -86.0130  -24.7660   46.0230 C.3       1 NDP1361     0.0000 
     34 O2D       -84.9240  -25.6510   45.8310 O.3       1 NDP1361     0.0000 
     35 C1D       -86.0330  -23.6150   45.0080 C.3       1 NDP1361     0.0000 
     36 N1N       -86.5370  -22.3400   45.5490 N.pl3     1 NDP1361     0.0000 
     37 C2N       -85.8410  -21.1700   45.4290 C.2       1 NDP1361     0.0000 
     38 C3N       -86.3820  -19.9800   45.9280 C.2       1 NDP1361     0.0000 
     39 C7N       -85.6110  -18.7020   45.9090 C.2       1 NDP1361     0.0000 
     40 O7N       -85.6090  -17.8690   47.0320 O.2       1 NDP1361     0.0000 
     41 N7N       -84.9710  -18.3620   44.8070 N.am      1 NDP1361     0.0000 
     42 C4N       -87.4920  -19.9810   46.9340 C.3       1 NDP1361     0.0000 
     43 C5N       -88.1580  -21.3110   46.9960 C.2       1 NDP1361     0.0000 
     44 C6N       -87.6610  -22.4100   46.3160 C.2       1 NDP1361     0.0000 
     45 P2B       -97.3450  -29.8540   49.3140 P.3       1 NDP1361     0.0000 
     46 O1X       -97.5390  -31.3620   49.4100 O.co2     1 NDP1361     0.0000 
     47 O2X       -96.9860  -29.4230   50.7180 O.co2     1 NDP1361     0.0000 
     48 O3X       -98.5460  -29.0590   48.7880 O.co2     1 NDP1361     0.0000 
     49 H         -92.7488  -27.8655   45.4355 H         1 NDP1361     0.0000 
     50 H         -93.8807  -28.4504   44.2040 H         1 NDP1361     0.0000 
     51 H         -94.7554  -27.3464   46.8597 H         1 NDP1361     0.0000 
     52 H         -93.8692  -30.0510   46.0720 H         1 NDP1361     0.0000 
     53 H         -95.5654  -31.0775   47.1267 H         1 NDP1361     0.0000 
     54 H         -97.5455  -29.4975   46.3278 H         1 NDP1361     0.0000 
     55 H         -94.4915  -30.6297   44.2332 H         1 NDP1361     0.0000 
     56 H         -98.0925  -34.4762   41.3344 H         1 NDP1361     0.0000 
     57 H         -96.4486  -33.7926   41.5706 H         1 NDP1361     0.0000 
     58 H        -100.6917  -32.3477   44.3858 H         1 NDP1361     0.0000 
     59 H         -88.8188  -25.3176   42.6614 H         1 NDP1361     0.0000 
     60 H         -89.1975  -26.4905   43.9345 H         1 NDP1361     0.0000 
     61 H         -86.8127  -26.0765   43.7569 H         1 NDP1361     0.0000 
     62 H         -88.0702  -25.0725   46.2641 H         1 NDP1361     0.0000 
     63 H         -86.0660  -24.3686   47.0027 H         1 NDP1361     0.0000 
     64 H         -85.0577  -23.5070   44.5984 H         1 NDP1361     0.0000 
     65 H         -84.9165  -21.1489   44.9734 H         1 NDP1361     0.0000 
     66 H         -85.0329  -19.0071   44.0454 H         1 NDP1361     0.0000 
     67 H         -84.4821  -17.4901   44.8333 H         1 NDP1361     0.0000 
     68 H         -88.2269  -19.2117   46.6645 H         1 NDP1361     0.0000 
     69 H         -87.0874  -19.7237   47.9213 H         1 NDP1361     0.0000 
     70 H         -89.0074  -21.3699   47.5712 H         1 NDP1361     0.0000 
     71 H         -88.1730  -23.3214   46.4001 H         1 NDP1361     0.0000 
     72 H         -94.1758  -29.3336   48.7242 H         1 NDP1361     0.0000 
     73 H         -86.1383  -26.9994   46.4027 H         1 NDP1361     0.0000 
     74 H         -84.3885  -25.2454   45.0903 H         1 NDP1361     0.0000 
@<TRIPOS>BOND
     1    2    1 ar   
     2    3    1 ar   
     3    4    1 1    
     4   23    1 1    
     5    5    4 1    
     6    6    5 1    
     7   49    5 1    
     8   50    5 1    
     9    7    6 1    
    10    8    6 1    
    11   51    6 1    
    12   12    7 1    
    13    9    8 1    
    14   10    8 1    
    15   52    8 1    
    16   72    9 1    
    17   11   10 1    
    18   12   10 1    
    19   53   10 1    
    20   45   11 1    
    21   13   12 1    
    22   54   12 1    
    23   14   13 1    
    24   22   13 1    
    25   15   14 2    
    26   55   14 1    
    27   16   15 1    
    28   17   16 ar   
    29   22   16 ar   
    30   18   17 1    
    31   19   17 ar   
    32   56   18 1    
    33   57   18 1    
    34   20   19 ar   
    35   21   20 ar   
    36   58   20 1    
    37   22   21 ar   
    38   24   23 1    
    39   25   24 ar   
    40   26   24 ar   
    41   27   24 1    
    42   28   27 1    
    43   29   28 1    
    44   59   28 1    
    45   60   28 1    
    46   30   29 1    
    47   31   29 1    
    48   61   29 1    
    49   35   30 1    
    50   32   31 1    
    51   33   31 1    
    52   62   31 1    
    53   73   32 1    
    54   34   33 1    
    55   35   33 1    
    56   63   33 1    
    57   74   34 1    
    58   36   35 1    
    59   64   35 1    
    60   37   36 1    
    61   44   36 1    
    62   38   37 2    
    63   65   37 1    
    64   39   38 1    
    65   42   38 1    
    66   40   39 2    
    67   41   39 am   
    68   66   41 1    
    69   67   41 1    
    70   43   42 1    
    71   68   42 1    
    72   69   42 1    
    73   44   43 2    
    74   70   43 1    
    75   71   44 1    
    76   46   45 ar   
    77   47   45 ar   
    78   48   45 ar   
@<TRIPOS>SUBSTRUCTURE
     1 NDP1361     1 GROUP   
@<TRIPOS>SET

