#    Name: 1xjj_DGT_3_INTS_M
#    Modification time : Tue Mar 25 09:55:40 2014

@<TRIPOS>MOLECULE
1xjj_DGT_3_INTS_M
   65     0    15     0     0
SMALL
NO_CHARGES


@<TRIPOS>ATOM
      1 NZ        -73.4615  -68.3775  -14.1645 N.4       3 LYC4        0.0000 
      2 NZ        -72.4880  -68.2070  -13.0710 N.4      13 LYL4        0.0000 
      3 NZ        -74.1410  -68.0260  -16.4470 N.4       8 LYP4        0.0000 
      4 N         -73.4615  -68.3775  -14.1645 N.am      2 SEC2        0.0000 
      5 N         -72.4880  -68.2070  -13.0710 N.am     12 SEL2        0.0000 
      6 N         -74.4350  -68.5480  -15.2580 N.am      7 SEP2        0.0000 
      7 N         -73.4870  -68.8915  -11.8660 N.am      2 SEC2        0.0000 
      8 N         -74.4860  -69.5760  -10.6610 N.am      7 SEP2        0.0000 
      9 Zn        -71.5715  -64.8455  -13.6715 Zn        4 ZIC7        0.0000 
     10 Zn        -71.5960  -65.8840  -13.7390 Zn       14 ZIL7        0.0000 
     11 Zn        -71.5470  -63.8070  -13.6040 Zn        9 ZIP7        0.0000 
     12 NZ        -74.2915  -63.3335   -9.9510 N.4       3 LYC4        0.0000 
     13 NZ        -73.7950  -64.7040  -10.0400 N.4      13 LYL4        0.0000 
     14 NZ        -74.7880  -61.9630   -9.8620 N.4       8 LYP4        0.0000 
     15 N         -74.2915  -63.3335   -9.9510 N.am      2 SEC2        0.0000 
     16 N         -73.7950  -64.7040  -10.0400 N.am     12 SEL2        0.0000 
     17 N         -74.7880  -61.9630   -9.8620 N.am      7 SEP2        0.0000 
     18 NZ        -73.4810  -62.9850  -10.9110 N.4       3 LYC4        0.0000 
     19 NZ        -72.1740  -64.0070  -11.9600 N.4      13 LYL4        0.0000 
     20 Zn        -71.8605  -63.9070  -12.7820 Zn        4 ZIC7        0.0000 
     21 Zn        -72.1740  -64.0070  -11.9600 Zn       14 ZIL7        0.0000 
     22 Zn        -72.4205  -63.6105  -13.8145 Zn        4 ZIC7        0.0000 
     23 Zn        -73.2940  -63.4140  -14.0250 Zn       14 ZIL7        0.0000 
     24 NZ        -74.9600  -62.0085  -11.4675 N.4       3 LYC4        0.0000 
     25 NZ        -75.1320  -62.0540  -13.0730 N.4      13 LYL4        0.0000 
     26 N         -74.9600  -62.0085  -11.4675 N.am      2 SEC2        0.0000 
     27 N         -75.1320  -62.0540  -13.0730 N.am     12 SEL2        0.0000 
     28 N         -75.6345  -61.1400  -14.1740 N.am      2 SEC2        0.0000 
     29 N         -76.1370  -60.2260  -15.2750 N.am      7 SEP2        0.0000 
     30 CA        -74.8145  -63.0665  -16.0035 C.3       5 GLC5        0.0000 
     31 CA        -75.3240  -64.9310  -15.4610 C.3      15 GLL5        0.0000 
     32 CA        -74.3050  -61.2020  -16.5460 C.3      10 GLP5        0.0000 
     33 CA        -76.3915  -67.0510  -16.9070 C.3       5 GLC5        0.0000 
     34 CA        -76.5400  -65.2000  -16.3930 C.3      15 GLL5        0.0000 
     35 CA        -76.2430  -68.9020  -17.4210 C.3      10 GLP5        0.0000 
     36 CA        -75.7085  -62.5740  -16.7880 C.3       5 GLC5        0.0000 
     37 CA        -77.1120  -63.9460  -17.0300 C.3      15 GLL5        0.0000 
     38 O         -76.5255  -64.8280  -19.0165 O.2       1 ALC1        0.0000 
     39 O         -77.5600  -64.3030  -18.3520 O.2      11 ALL1        0.0000 
     40 O         -75.4910  -65.3530  -19.6810 O.2       6 ALP1        0.0000 
     41 CA        -79.0135  -62.1795  -15.1610 C.3       5 GLC5        0.0000 
     42 CA        -78.2940  -63.5870  -16.0930 C.3      15 GLL5        0.0000 
     43 CA        -79.7330  -60.7720  -14.2290 C.3      10 GLP5        0.0000 
     44 CA        -78.4990  -66.6245  -14.4425 C.3       5 GLC5        0.0000 
     45 CA        -78.8140  -64.9660  -15.6380 C.3      15 GLL5        0.0000 
     46 CA        -78.1840  -68.2830  -13.2470 C.3      10 GLP5        0.0000 
     47 CA        -79.3595  -66.7130  -16.1520 C.3       5 GLC5        0.0000 
     48 CA        -79.9050  -68.4600  -16.6660 C.3      10 GLP5        0.0000 
     49 O         -83.9650  -63.3855  -12.0065 O.2       1 ALC1        0.0000 
     50 O         -82.7300  -63.8490  -12.5450 O.2      11 ALL1        0.0000 
     51 O         -85.2000  -62.9220  -11.4680 O.2       6 ALP1        0.0000 
     52 O         -85.1225  -63.3730  -14.5460 O.2       1 ALC1        0.0000 
     53 O         -83.8030  -64.0060  -14.6070 O.2      11 ALL1        0.0000 
     54 O         -86.4420  -62.7400  -14.4850 O.2       6 ALP1        0.0000 
     55 O         -84.0520  -64.3110  -15.9245 O.2       1 ALC1        0.0000 
     56 O         -84.3010  -64.6160  -17.2420 O.2       6 ALP1        0.0000 
     57 CA        -79.3230  -66.3680  -13.5280 C.3       5 GLC5        0.0000 
     58 CA        -80.4620  -64.4530  -13.8090 C.3      15 GLL5        0.0000 
     59 CA        -80.7375  -66.3575  -14.7755 C.3       5 GLC5        0.0000 
     60 CA        -81.0130  -68.2620  -15.7420 C.3      10 GLP5        0.0000 
     61 CA        -78.1725  -62.1653  -17.6337 C.3       5 GLC5        0.0000 
     62 CA        -78.6420  -60.5640  -18.7060 C.3      10 GLP5        0.0000 
     63 CA        -80.2095  -63.2148  -16.5358 C.3       5 GLC5        0.0000 
     64 CA        -81.8650  -62.1530  -17.2060 C.3      10 GLP5        0.0000 
     65 CA        -80.0805  -62.5568  -13.6795 C.3       5 GLC5        0.0000 
@<TRIPOS>BOND
@<TRIPOS>SUBSTRUCTURE
     1 ALC1       38 GROUP        1 X    ALC  0     ROOT ALC X 1
     2 SEC2        4 GROUP        1 X    SEC  0     **** SEC X 2
     3 LYC4        1 GROUP        1 X    LYC  0     **** LYC X 4
     4 ZIC7        9 GROUP        1 X    ZIC  0     **** ZIC X 5
     5 GLC5       30 GROUP        1 X    GLC  0     **** GLC X 6
     6 ALP1       40 GROUP        1 Y    ALP  0     ROOT ALP Y 8
     7 SEP2        6 GROUP        1 Y    SEP  0     **** SEP Y 9
     8 LYP4        3 GROUP        1 Y    LYP  0     **** LYP Y 11
     9 ZIP7       11 GROUP        1 Y    ZIP  0     **** ZIP Y 12
    10 GLP5       32 GROUP        1 Y    GLP  0     **** GLP Y 13
    11 ALL1       39 GROUP        1 Z    ALL  0     ROOT ALL Z 15
    12 SEL2        5 GROUP        1 Z    SEL  0     **** SEL Z 16
    13 LYL4        2 GROUP        1 Z    LYL  0     **** LYL Z 18
    14 ZIL7       10 GROUP        1 Z    ZIL  0     **** ZIL Z 19
    15 GLL5       31 GROUP        1 Z    GLL  0     **** GLL Z 20
@<TRIPOS>SET

