#    Name: 1xjj_DGT_3_ligand
#    Modification time : Tue Mar 25 09:55:41 2014

@<TRIPOS>MOLECULE
1xjj_DGT_3_ligand
   43    45     1     0     0
SMALL
NO_CHARGES


@<TRIPOS>ATOM
      1 PG        -71.8760  -66.9100  -12.6980 P.3       1 DGT1002     0.0000 
      2 O1G       -72.4880  -68.2070  -13.0710 O.co2     1 DGT1002     0.0000 
      3 O2G       -71.5960  -65.8840  -13.7390 O.co2     1 DGT1002     0.0000 
      4 O3G       -70.4740  -67.0470  -11.8790 O.co2     1 DGT1002     0.0000 
      5 O3B       -73.0040  -66.3590  -11.6540 O.3       1 DGT1002     0.0000 
      6 PB        -73.3590  -64.7930  -11.4680 P.3       1 DGT1002     0.0000 
      7 O1B       -73.7950  -64.7040  -10.0400 O.co2     1 DGT1002     0.0000 
      8 O2B       -72.1740  -64.0070  -11.9600 O.co2     1 DGT1002     0.0000 
      9 O3A       -74.8020  -64.4920  -12.4750 O.3       1 DGT1002     0.0000 
     10 PA        -74.6870  -63.3560  -13.5760 P.3       1 DGT1002     0.0000 
     11 O1A       -73.2940  -63.4140  -14.0250 O.co2     1 DGT1002     0.0000 
     12 O2A       -75.1320  -62.0540  -13.0730 O.co2     1 DGT1002     0.0000 
     13 O5'       -75.7060  -63.8800  -14.6020 O.3       1 DGT1002     0.0000 
     14 C5'       -75.3240  -64.9310  -15.4610 C.3       1 DGT1002     0.0000 
     15 C4'       -76.5400  -65.2000  -16.3930 C.3       1 DGT1002     0.0000 
     16 O4'       -77.5780  -65.7300  -15.5920 O.3       1 DGT1002     0.0000 
     17 C3'       -77.1120  -63.9460  -17.0300 C.3       1 DGT1002     0.0000 
     18 O3'       -77.5600  -64.3030  -18.3520 O.3       1 DGT1002     0.0000 
     19 C2'       -78.2940  -63.5870  -16.0930 C.3       1 DGT1002     0.0000 
     20 C1'       -78.8140  -64.9660  -15.6380 C.3       1 DGT1002     0.0000 
     21 N9        -79.2420  -64.6880  -14.2230 N.pl3     1 DGT1002     0.0000 
     22 C8        -78.3890  -64.6540  -13.1540 C.2       1 DGT1002     0.0000 
     23 N7        -79.0820  -64.3460  -12.0630 N.2       1 DGT1002     0.0000 
     24 C5        -80.3940  -64.2300  -12.4510 C.2       1 DGT1002     0.0000 
     25 C6        -81.5720  -63.9140  -11.8030 C.2       1 DGT1002     0.0000 
     26 O6        -81.7010  -63.6830  -10.5900 O.2       1 DGT1002     0.0000 
     27 N1        -82.7300  -63.8490  -12.5450 N.am      1 DGT1002     0.0000 
     28 C2        -82.7090  -64.0810  -13.9120 C.2       1 DGT1002     0.0000 
     29 N2        -83.8030  -64.0060  -14.6070 N.pl3     1 DGT1002     0.0000 
     30 N3        -81.5940  -64.3860  -14.5050 N.2       1 DGT1002     0.0000 
     31 C4        -80.4620  -64.4530  -13.8090 C.2       1 DGT1002     0.0000 
     32 H         -75.1169  -65.8537  -14.9344 H         1 DGT1002     0.0000 
     33 H         -74.4866  -64.6744  -16.0971 H         1 DGT1002     0.0000 
     34 H         -76.2483  -65.8864  -17.1516 H         1 DGT1002     0.0000 
     35 H         -76.4023  -63.1904  -16.9992 H         1 DGT1002     0.0000 
     36 H         -79.0406  -63.0878  -16.6443 H         1 DGT1002     0.0000 
     37 H         -77.9329  -63.0493  -15.2617 H         1 DGT1002     0.0000 
     38 H         -79.5189  -65.2975  -16.2286 H         1 DGT1002     0.0000 
     39 H         -77.4378  -64.8294  -13.2074 H         1 DGT1002     0.0000 
     40 H         -83.6289  -63.6247  -12.0811 H         1 DGT1002     0.0000 
     41 H         -83.7101  -64.1560  -15.5913 H         1 DGT1002     0.0000 
     42 H         -84.6374  -63.8052  -14.0938 H         1 DGT1002     0.0000 
     43 H         -76.7619  -64.1714  -18.9399 H         1 DGT1002     0.0000 
@<TRIPOS>BOND
     1    2    1 ar   
     2    3    1 ar   
     3    4    1 ar   
     4    5    1 1    
     5    6    5 1    
     6    7    6 ar   
     7    8    6 ar   
     8    9    6 1    
     9   10    9 1    
    10   11   10 ar   
    11   12   10 ar   
    12   13   10 1    
    13   14   13 1    
    14   15   14 1    
    15   32   14 1    
    16   33   14 1    
    17   16   15 1    
    18   17   15 1    
    19   34   15 1    
    20   20   16 1    
    21   18   17 1    
    22   19   17 1    
    23   35   17 1    
    24   43   18 1    
    25   20   19 1    
    26   36   19 1    
    27   37   19 1    
    28   21   20 1    
    29   38   20 1    
    30   22   21 1    
    31   31   21 1    
    32   23   22 2    
    33   39   22 1    
    34   24   23 1    
    35   25   24 1    
    36   31   24 2    
    37   26   25 2    
    38   27   25 am   
    39   28   27 1    
    40   40   27 1    
    41   29   28 1    
    42   30   28 2    
    43   41   29 1    
    44   42   29 1    
    45   31   30 1    
@<TRIPOS>SUBSTRUCTURE
     1 DGT1002     1 GROUP   
@<TRIPOS>SET

