#    Name: 2i4t_UA2_1_INTS_M
#    Modification time : Tue Mar 25 17:25:50 2014

@<TRIPOS>MOLECULE
2i4t_UA2_1_INTS_M
   59     0     9     0     0
SMALL
NO_CHARGES


@<TRIPOS>ATOM
      1 CA        -67.0935   18.7715    5.3095 C.3       3 GLC5        0.0000 
      2 CA        -65.8720   20.6060    5.5770 C.3       9 GLL5        0.0000 
      3 CA        -68.3150   16.9370    5.0420 C.3       6 GLP5        0.0000 
      4 CA        -66.1400   19.7745    3.9620 C.3       3 GLC5        0.0000 
      5 CA        -66.4080   18.9430    2.3470 C.3       6 GLP5        0.0000 
      6 CA        -67.4040   21.4065    4.1660 C.3       3 GLC5        0.0000 
      7 CA        -68.9360   22.2070    2.7550 C.3       6 GLP5        0.0000 
      8 CA        -67.9200   20.3580    6.0395 C.3       3 GLC5        0.0000 
      9 CA        -69.9680   20.1100    6.5020 C.3       6 GLP5        0.0000 
     10 N         -66.1780   23.7860   10.7360 N.am      2 SEC2        0.0000 
     11 N         -66.3160   24.0050    9.2780 N.am      8 SEL2        0.0000 
     12 N         -66.0400   23.5670   12.1940 N.am      5 SEP2        0.0000 
     13 CA        -66.5605   22.0625    9.1635 C.3       3 GLC5        0.0000 
     14 CA        -67.6940   23.6570    9.3810 C.3       9 GLL5        0.0000 
     15 CA        -65.4270   20.4680    8.9460 C.3       6 GLP5        0.0000 
     16 CA        -67.0555   23.9840   11.3340 C.3       3 GLC5        0.0000 
     17 CA        -66.4170   24.3110   13.2870 C.3       6 GLP5        0.0000 
     18 CA        -68.2175   22.0070   10.6880 C.3       3 GLC5        0.0000 
     19 CA        -68.7410   20.3570   11.9950 C.3       6 GLP5        0.0000 
     20 N         -71.8770   24.4610    6.7975 N.am      2 SEC2        0.0000 
     21 N         -70.9130   24.6480    8.1700 N.am      8 SEL2        0.0000 
     22 N         -72.8410   24.2740    5.4250 N.am      5 SEP2        0.0000 
     23 O         -72.0515   24.0400    7.7930 O.2       1 ALC1        0.0000 
     24 O         -70.9130   24.6480    8.1700 O.2       7 ALL1        0.0000 
     25 O         -73.1900   23.4320    7.4160 O.2       4 ALP1        0.0000 
     26 O         -71.8770   24.4610    6.7975 O.2       1 ALC1        0.0000 
     27 O         -72.8410   24.2740    5.4250 O.2       4 ALP1        0.0000 
     28 CA        -69.0755   22.9610    4.6490 C.3       3 GLC5        0.0000 
     29 CA        -69.2150   23.7150    6.5430 C.3       9 GLL5        0.0000 
     30 CA        -69.5915   21.9125    6.5225 C.3       3 GLC5        0.0000 
     31 N         -70.6155   22.8785    4.8485 N.am      2 SEC2        0.0000 
     32 N         -70.2680   24.1160    5.6560 N.am      8 SEL2        0.0000 
     33 N         -70.9630   21.6410    4.0410 N.am      5 SEP2        0.0000 
     34 N         -71.5545   24.1950    5.5405 N.am      2 SEC2        0.0000 
     35 CA        -68.8040   24.1105    4.3430 C.3       3 GLC5        0.0000 
     36 CA        -68.0560   24.6720    6.2770 C.3       9 GLL5        0.0000 
     37 CA        -69.5520   23.5490    2.4090 C.3       6 GLP5        0.0000 
     38 CA        -65.8670   27.0890    5.3480 C.3       3 GLC5        0.0000 
     39 CA        -65.6300   25.1320    5.7340 C.3       9 GLL5        0.0000 
     40 CA        -66.1040   29.0460    4.9620 C.3       6 GLP5        0.0000 
     41 O         -62.8480   24.6415    5.4775 O.2       1 ALC1        0.0000 
     42 O         -64.4760   24.4240    5.4510 O.2       7 ALL1        0.0000 
     43 O         -61.2200   24.8590    5.5040 O.2       4 ALP1        0.0000 
     44 O         -61.2665   22.5855    4.9950 O.2       1 ALC1        0.0000 
     45 O         -62.6320   22.0240    4.9510 O.2       7 ALL1        0.0000 
     46 O         -59.9010   23.1470    5.0390 O.2       4 ALP1        0.0000 
     47 O         -61.9260   23.4415    5.2275 O.2       1 ALC1        0.0000 
     48 CA        -67.6715   22.8773    4.2862 C.3       3 GLC5        0.0000 
     49 CA        -66.6740   24.1920    5.9020 C.3       9 GLL5        0.0000 
     50 CA        -63.4043   22.9273    3.6875 C.3       3 GLC5        0.0000 
     51 CA        -64.7600   23.0650    5.4440 C.3       9 GLL5        0.0000 
     52 CA        -62.4460   23.3690    2.0370 C.3       6 GLP5        0.0000 
     53 CA        -69.4813   24.0817   10.2566 C.3       3 GLC5        0.0000 
     54 CA        -69.7080   23.8690    8.0050 C.3       9 GLL5        0.0000 
     55 CA        -70.0300   24.1550   11.9940 C.3       6 GLP5        0.0000 
     56 CA        -69.2398   22.1362    8.3966 C.3       3 GLC5        0.0000 
     57 CA        -69.5470   20.2640    8.2740 C.3       6 GLP5        0.0000 
     58 CA        -65.6950   24.6805    3.9631 C.3       3 GLC5        0.0000 
     59 CA        -65.5890   25.5380    2.2230 C.3       6 GLP5        0.0000 
@<TRIPOS>BOND
@<TRIPOS>SUBSTRUCTURE
     1 ALC1       23 GROUP        1 X    ALC  0     ROOT ALC X 1
     2 SEC2       10 GROUP        1 X    SEC  0     **** SEC X 2
     3 GLC5        1 GROUP        1 X    GLC  0     **** GLC X 6
     4 ALP1       25 GROUP        1 Y    ALP  0     ROOT ALP Y 8
     5 SEP2       12 GROUP        1 Y    SEP  0     **** SEP Y 9
     6 GLP5        3 GROUP        1 Y    GLP  0     **** GLP Y 13
     7 ALL1       24 GROUP        1 Z    ALL  0     ROOT ALL Z 15
     8 SEL2       11 GROUP        1 Z    SEL  0     **** SEL Z 16
     9 GLL5        2 GROUP        1 Z    GLL  0     **** GLL Z 20
@<TRIPOS>SET

