#    Name: 2i4t_UA2_1_ligand
#    Modification time : Tue Mar 25 17:25:50 2014

@<TRIPOS>MOLECULE
2i4t_UA2_1_ligand
   33    35     1     0     0
SMALL
NO_CHARGES


@<TRIPOS>ATOM
      1 C2        -65.8720   20.6060    5.5770 C.ar      1 UA2243      0.0000 
      2 C4        -66.1400   22.9030    5.7330 C.ar      1 UA2243      0.0000 
      3 C5        -64.7600   23.0650    5.4440 C.ar      1 UA2243      0.0000 
      4 C6        -63.9650   21.9060    5.2320 C.ar      1 UA2243      0.0000 
      5 O5'       -66.3160   24.0050    9.2780 O.3       1 UA2243      0.0000 
      6 C5'       -67.6940   23.6570    9.3810 C.3       1 UA2243      0.0000 
      7 C4'       -68.6200   24.6390    8.6860 C.3       1 UA2243      0.0000 
      8 N4'       -67.9400   25.3130    7.5890 N.4       1 UA2243      0.0000 
      9 C3'       -69.7080   23.8690    8.0050 C.3       1 UA2243      0.0000 
     10 O3'       -70.9130   24.6480    8.1700 O.3       1 UA2243      0.0000 
     11 C2'       -69.2150   23.7150    6.5430 C.3       1 UA2243      0.0000 
     12 O2'       -70.2680   24.1160    5.6560 O.3       1 UA2243      0.0000 
     13 C1'       -68.0560   24.6720    6.2770 C.3       1 UA2243      0.0000 
     14 C9        -66.6740   24.1920    5.9020 C.2       1 UA2243      0.0000 
     15 N3        -66.6980   21.6730    5.7940 N.ar      1 UA2243      0.0000 
     16 N1        -64.5470   20.6730    5.2970 N.ar      1 UA2243      0.0000 
     17 C8        -65.6300   25.1320    5.7340 C.2       1 UA2243      0.0000 
     18 N7        -64.4760   24.4240    5.4510 N.pl3     1 UA2243      0.0000 
     19 N6        -62.6320   22.0240    4.9510 N.pl3     1 UA2243      0.0000 
     20 H         -66.3175   19.6257    5.6345 H         1 UA2243      0.0000 
     21 H         -68.0142   23.5902   10.4452 H         1 UA2243      0.0000 
     22 H         -67.8885   22.6496    8.9487 H         1 UA2243      0.0000 
     23 H         -69.0340   25.3156    9.3648 H         1 UA2243      0.0000 
     24 H         -69.7665   22.9109    8.4517 H         1 UA2243      0.0000 
     25 H         -68.9041   22.7268    6.3764 H         1 UA2243      0.0000 
     26 H         -68.3967   25.4422    5.5920 H         1 UA2243      0.0000 
     27 H         -65.7227   26.0648    5.8055 H         1 UA2243      0.0000 
     28 H         -63.6146   24.8083    5.2854 H         1 UA2243      0.0000 
     29 H         -62.2294   21.2858    4.4097 H         1 UA2243      0.0000 
     30 H         -62.1767   22.8381    5.3115 H         1 UA2243      0.0000 
     31 H         -65.8903   23.2370    8.7994 H         1 UA2243      0.0000 
     32 H         -71.6494   24.0590    7.8371 H         1 UA2243      0.0000 
     33 H         -70.1372   25.0989    5.5268 H         1 UA2243      0.0000 
@<TRIPOS>BOND
     1   15    1 ar   
     2   16    1 ar   
     3   20    1 1    
     4    3    2 ar   
     5   14    2 1    
     6   15    2 ar   
     7    4    3 ar   
     8   18    3 1    
     9   16    4 ar   
    10   19    4 1    
    11    6    5 1    
    12   31    5 1    
    13    7    6 1    
    14   21    6 1    
    15   22    6 1    
    16    8    7 1    
    17    9    7 1    
    18   23    7 1    
    19   13    8 1    
    20   10    9 1    
    21   11    9 1    
    22   24    9 1    
    23   32   10 1    
    24   12   11 1    
    25   13   11 1    
    26   25   11 1    
    27   33   12 1    
    28   14   13 1    
    29   26   13 1    
    30   17   14 2    
    31   18   17 1    
    32   27   17 1    
    33   28   18 1    
    34   29   19 1    
    35   30   19 1    
@<TRIPOS>SUBSTRUCTURE
     1 UA2243      1 GROUP   
@<TRIPOS>SET

