#    Name: 4fta_H5K_1_INTS_M
#    Modification time : Mon Mar 24 20:44:25 2014

@<TRIPOS>MOLECULE
4fta_H5K_1_INTS_M
   51     0     9     0     0
SMALL
NO_CHARGES


@<TRIPOS>ATOM
      1 N           9.8805   -6.8490   13.9495 N.am      2 SEC2        0.0000 
      2 N          10.7980   -5.6580   13.6090 N.am      8 SEL2        0.0000 
      3 N           8.9630   -8.0400   14.2900 N.am      5 SEP2        0.0000 
      4 CA         10.1080   -6.5465   12.3940 C.3       3 GLC5        0.0000 
      5 CA         11.5360   -5.0930   12.9530 C.3       9 GLL5        0.0000 
      6 CA          8.6800   -8.0000   11.8350 C.3       6 GLP5        0.0000 
      7 CA         10.9710   -4.7325   14.8160 C.3       3 GLC5        0.0000 
      8 CA         10.4060   -4.3720   16.6790 C.3       6 GLP5        0.0000 
      9 CA         12.0265   -1.0775   11.2215 C.3       3 GLC5        0.0000 
     10 CA         12.8310   -2.5780   10.7660 C.3       9 GLL5        0.0000 
     11 CA         11.2220    0.4230   11.6770 C.3       6 GLP5        0.0000 
     12 CA         11.1705   -2.2745    9.8130 C.3       3 GLC5        0.0000 
     13 CA          9.5100   -1.9710    8.8600 C.3       6 GLP5        0.0000 
     14 CA         13.8615   -6.0670   10.0480 C.3       3 GLC5        0.0000 
     15 CA         13.6630   -4.9630   11.7120 C.3       9 GLL5        0.0000 
     16 CA         14.0600   -7.1710    8.3840 C.3       6 GLP5        0.0000 
     17 CA         14.9185   -3.3285   12.1165 C.3       3 GLC5        0.0000 
     18 CA         16.1740   -1.6940   12.5210 C.3       6 GLP5        0.0000 
     19 O          14.2545   -1.3320    8.9200 O.2       1 ALC1        0.0000 
     20 O          14.8980   -2.4430    9.4870 O.2       7 ALL1        0.0000 
     21 O          13.6110   -0.2210    8.3530 O.2       4 ALP1        0.0000 
     22 N          16.9590   -0.6600    7.9500 N.am      2 SEC2        0.0000 
     23 N          16.7030   -1.9900    8.1770 N.am      8 SEL2        0.0000 
     24 N          17.2150    0.6700    7.7230 N.am      5 SEP2        0.0000 
     25 CA         17.1610   -2.9170   11.0410 C.3       3 GLC5        0.0000 
     26 CA         18.1480   -4.1400    9.5610 C.3       9 GLL5        0.0000 
     27 CA         18.3560   -3.8490   12.1065 C.3       3 GLC5        0.0000 
     28 CA         18.5870   -5.1660   10.3950 C.3       9 GLL5        0.0000 
     29 CA         18.1250   -2.5320   13.8180 C.3       6 GLP5        0.0000 
     30 CA         20.3990   -5.2315   12.4670 C.3       3 GLC5        0.0000 
     31 CA         19.8970   -5.5450   10.4150 C.3       9 GLL5        0.0000 
     32 CA         20.9010   -4.9180   14.5190 C.3       6 GLP5        0.0000 
     33 CA         21.4470   -1.1075    7.2355 C.3       3 GLC5        0.0000 
     34 CA         21.3800   -3.1910    7.9400 C.3       9 GLL5        0.0000 
     35 CA         21.5140    0.9760    6.5310 C.3       6 GLP5        0.0000 
     36 CA         10.3825   -4.3965   11.2955 C.3       3 GLC5        0.0000 
     37 CA         12.4280   -4.3830   12.1110 C.3       9 GLL5        0.0000 
     38 CA          8.7830   -4.0550   10.0590 C.3       6 GLP5        0.0000 
     39 CA         13.4067   -3.1993    8.6270 C.3       3 GLC5        0.0000 
     40 CA         13.3660   -3.5440    6.6770 C.3       6 GLP5        0.0000 
     41 CA         14.8107   -2.2742   11.5490 C.3       3 GLC5        0.0000 
     42 CA         14.0640   -3.1310   10.3880 C.3       9 GLL5        0.0000 
     43 CA         21.0585   -2.7382    9.9300 C.3       3 GLC5        0.0000 
     44 CA         20.4230   -3.8380    8.7580 C.3       9 GLL5        0.0000 
     45 CA         22.3790   -1.8160   11.1040 C.3       6 GLP5        0.0000 
     46 CA         18.4661   -6.1750    8.7503 C.3       3 GLC5        0.0000 
     47 CA         17.8000   -7.2510    7.3040 C.3       6 GLP5        0.0000 
     48 CA         20.0455   -4.8369    7.1250 C.3       3 GLC5        0.0000 
     49 CA         19.2530   -5.9380    5.6930 C.3       6 GLP5        0.0000 
     50 CA         22.2803   -2.9696    9.8281 C.3       3 GLC5        0.0000 
     51 CA         23.1240   -4.6310    8.7520 C.3       9 GLL5        0.0000 
@<TRIPOS>BOND
@<TRIPOS>SUBSTRUCTURE
     1 ALC1       19 GROUP        1 X    ALC  0     ROOT ALC X 1
     2 SEC2        1 GROUP        1 X    SEC  0     **** SEC X 2
     3 GLC5        4 GROUP        1 X    GLC  0     **** GLC X 6
     4 ALP1       21 GROUP        1 Y    ALP  0     ROOT ALP Y 8
     5 SEP2        3 GROUP        1 Y    SEP  0     **** SEP Y 9
     6 GLP5        6 GROUP        1 Y    GLP  0     **** GLP Y 13
     7 ALL1       20 GROUP        1 Z    ALL  0     ROOT ALL Z 15
     8 SEL2        2 GROUP        1 Z    SEL  0     **** SEL Z 16
     9 GLL5        5 GROUP        1 Z    GLL  0     **** GLL Z 20
@<TRIPOS>SET

