#    Name: 4fta_H5K_1_ligand
#    Modification time : Mon Mar 24 20:44:25 2014

@<TRIPOS>MOLECULE
4fta_H5K_1_ligand
   35    37     1     0     0
SMALL
NO_CHARGES


@<TRIPOS>ATOM
      1 N5         10.7980   -5.6580   13.6090 N.1       1 H5K301      0.0000 
      2 C13        11.5360   -5.0930   12.9530 C.1       1 H5K301      0.0000 
      3 C11        12.4280   -4.3830   12.1110 C.ar      1 H5K301      0.0000 
      4 N3         12.0290   -3.1830   11.6490 N.ar      1 H5K301      0.0000 
      5 C10        12.8310   -2.5780   10.7660 C.ar      1 H5K301      0.0000 
      6 C12        13.6630   -4.9630   11.7120 C.ar      1 H5K301      0.0000 
      7 N4         14.4740   -4.3200   10.8600 N.ar      1 H5K301      0.0000 
      8 C9         14.0640   -3.1310   10.3880 C.ar      1 H5K301      0.0000 
      9 N2         14.8980   -2.4430    9.4870 N.am      1 H5K301      0.0000 
     10 C8         16.1590   -2.7070    9.0110 C.2       1 H5K301      0.0000 
     11 O3         16.7030   -1.9900    8.1770 O.2       1 H5K301      0.0000 
     12 N1         16.7640   -3.8090    9.5780 N.am      1 H5K301      0.0000 
     13 C7         18.1480   -4.1400    9.5610 C.ar      1 H5K301      0.0000 
     14 C6         19.0530   -3.4830    8.7540 C.ar      1 H5K301      0.0000 
     15 C14        18.5870   -5.1660   10.3950 C.ar      1 H5K301      0.0000 
     16 C15        19.8970   -5.5450   10.4150 C.ar      1 H5K301      0.0000 
     17 C16        20.8540   -4.9010    9.5920 C.ar      1 H5K301      0.0000 
     18 C5         20.4230   -3.8380    8.7580 C.ar      1 H5K301      0.0000 
     19 C4         21.3800   -3.1910    7.9400 C.ar      1 H5K301      0.0000 
     20 C3         22.6870   -3.5780    7.9430 C.ar      1 H5K301      0.0000 
     21 C17        22.2160   -5.2850    9.5560 C.ar      1 H5K301      0.0000 
     22 C2         23.1240   -4.6310    8.7520 C.ar      1 H5K301      0.0000 
     23 C1         24.5760   -4.9940    8.7760 C.2       1 H5K301      0.0000 
     24 O2         25.3920   -4.4220    8.0550 O.co2     1 H5K301      0.0000 
     25 O1         24.9140   -5.9400    9.6130 O.co2     1 H5K301      0.0000 
     26 H          12.5569   -1.6661   10.3290 H         1 H5K301      0.0000 
     27 H          13.9058   -5.8912   12.1027 H         1 H5K301      0.0000 
     28 H          14.4373   -1.5066    9.0901 H         1 H5K301      0.0000 
     29 H          16.1299   -4.5096   10.0972 H         1 H5K301      0.0000 
     30 H          18.7423   -2.7190    8.1324 H         1 H5K301      0.0000 
     31 H          17.8948   -5.6426   11.0073 H         1 H5K301      0.0000 
     32 H          20.2198   -6.3110   11.0318 H         1 H5K301      0.0000 
     33 H          21.0586   -2.4116    7.3361 H         1 H5K301      0.0000 
     34 H          23.3804   -3.0930    7.3407 H         1 H5K301      0.0000 
     35 H          22.5201   -6.0756   10.1521 H         1 H5K301      0.0000 
@<TRIPOS>BOND
     1    2    1 3    
     2    3    2 1    
     3    4    3 ar   
     4    6    3 ar   
     5    5    4 ar   
     6    8    5 ar   
     7   26    5 1    
     8    7    6 ar   
     9   27    6 1    
    10    8    7 ar   
    11    9    8 1    
    12   10    9 am   
    13   28    9 1    
    14   11   10 2    
    15   12   10 am   
    16   13   12 1    
    17   29   12 1    
    18   14   13 ar   
    19   15   13 ar   
    20   18   14 ar   
    21   30   14 1    
    22   16   15 ar   
    23   31   15 1    
    24   17   16 ar   
    25   32   16 1    
    26   18   17 ar   
    27   21   17 ar   
    28   19   18 ar   
    29   20   19 ar   
    30   33   19 1    
    31   22   20 ar   
    32   34   20 1    
    33   22   21 ar   
    34   35   21 1    
    35   23   22 1    
    36   24   23 ar   
    37   25   23 ar   
@<TRIPOS>SUBSTRUCTURE
     1 H5K301      1 GROUP   
@<TRIPOS>SET

