#    Name: 1up6_NAD_1_INTS_M
#    Modification time : Tue Mar 25 06:48:29 2014

@<TRIPOS>MOLECULE
1up6_NAD_1_INTS_M
   98     0    15     0     0
SMALL
NO_CHARGES


@<TRIPOS>ATOM
      1 NZ        151.1020   69.7070   95.1330 N.4       3 LYC4        0.0000 
      2 NZ        152.2670   70.0140   94.3720 N.4      13 LYL4        0.0000 
      3 NZ        149.6130   69.0400   97.1530 N.4       8 LYP4        0.0000 
      4 N         151.1020   69.7070   95.1330 N.am      2 SEC2        0.0000 
      5 N         152.2670   70.0140   94.3720 N.am     12 SEL2        0.0000 
      6 N         149.9370   69.4000   95.8940 N.am      7 SEP2        0.0000 
      7 NZ        155.9950   70.6050   93.3205 N.4       3 LYC4        0.0000 
      8 NZ        154.6830   70.3190   94.2950 N.4      13 LYL4        0.0000 
      9 NZ        157.3070   70.8910   92.3460 N.4       8 LYP4        0.0000 
     10 N         155.9950   70.6050   93.3205 N.am      2 SEC2        0.0000 
     11 N         154.6830   70.3190   94.2950 N.am     12 SEL2        0.0000 
     12 N         157.3070   70.8910   92.3460 N.am      7 SEP2        0.0000 
     13 N         155.1635   70.6910   95.7740 N.am      2 SEC2        0.0000 
     14 N         155.6440   71.0630   97.2530 N.am      7 SEP2        0.0000 
     15 CA        152.3945   67.3920   93.2170 C.3       5 GLC5        0.0000 
     16 CA        154.5620   67.1200   93.0690 C.3      15 GLL5        0.0000 
     17 CA        150.2270   67.6640   93.3650 C.3      10 GLP5        0.0000 
     18 CA        155.5535   65.2075   90.7445 C.3       5 GLC5        0.0000 
     19 CA        155.0460   67.1310   91.6070 C.3      15 GLL5        0.0000 
     20 CA        156.0610   63.2840   89.8820 C.3      10 GLP5        0.0000 
     21 N         156.9915   69.8230   91.5815 N.am      2 SEC2        0.0000 
     22 N         156.6760   68.7550   90.8170 N.am     12 SEL2        0.0000 
     23 O         156.1485   68.2620   87.9295 O.2       1 ALC1        0.0000 
     24 O         155.3540   68.9660   88.5610 O.2      11 ALL1        0.0000 
     25 O         156.9430   67.5580   87.2980 O.2       6 ALP1        0.0000 
     26 CA        155.1415   65.1570   89.6615 C.3       5 GLC5        0.0000 
     27 CA        154.2220   67.0300   89.4410 C.3      15 GLL5        0.0000 
     28 CA        153.9180   67.7200   87.3360 C.3       5 GLC5        0.0000 
     29 CA        153.6140   68.4100   85.2310 C.3      10 GLP5        0.0000 
     30 CA        153.0215   65.3535   89.6665 C.3       5 GLC5        0.0000 
     31 CA        151.8210   63.6770   89.8920 C.3      10 GLP5        0.0000 
     32 CA        151.8515   67.4870   86.3510 C.3       5 GLC5        0.0000 
     33 CA        151.4700   65.8490   87.3640 C.3      15 GLL5        0.0000 
     34 CA        152.2330   69.1250   85.3380 C.3      10 GLP5        0.0000 
     35 CA        152.0325   65.7575   84.9525 C.3       5 GLC5        0.0000 
     36 CA        151.0240   64.9460   86.4070 C.3      15 GLL5        0.0000 
     37 CA        153.0410   66.5690   83.4980 C.3      10 GLP5        0.0000 
     38 N         151.5120   63.1680   84.9180 N.am      2 SEC2        0.0000 
     39 N         151.8960   64.0020   85.9010 N.am     12 SEL2        0.0000 
     40 N         151.1280   62.3340   83.9350 N.am      7 SEP2        0.0000 
     41 CA        153.4260   62.0770   86.7775 C.3       5 GLC5        0.0000 
     42 CA        153.2040   63.9740   86.3460 C.3      15 GLL5        0.0000 
     43 CA        153.6480   60.1800   87.2090 C.3      10 GLP5        0.0000 
     44 CA        155.3405   64.4490   86.0425 C.3       5 GLC5        0.0000 
     45 CA        157.4770   64.9240   85.7390 C.3      10 GLP5        0.0000 
     46 CA        153.1225   65.2715   84.9220 C.3       5 GLC5        0.0000 
     47 CA        152.5125   63.8255   88.1190 C.3       5 GLC5        0.0000 
     48 CA        153.2075   67.1040   86.5105 C.3       5 GLC5        0.0000 
     49 CA        152.8010   65.7980   87.7900 C.3      15 GLL5        0.0000 
     50 N         154.6125   69.9250   96.6300 N.am      2 SEC2        0.0000 
     51 N         153.5810   68.7870   96.0070 N.am     12 SEL2        0.0000 
     52 NZ        151.3855   68.2915   97.6190 N.4       3 LYC4        0.0000 
     53 NZ        153.1580   67.5430   98.0850 N.4      13 LYL4        0.0000 
     54 N         156.0920   66.0320   96.2610 N.am      2 SEC2        0.0000 
     55 N         154.9280   66.7170   96.4630 N.am     12 SEL2        0.0000 
     56 N         157.2560   65.3470   96.0590 N.am      7 SEP2        0.0000 
     57 CA        151.6355   64.1430   93.5685 C.3       5 GLC5        0.0000 
     58 CA        151.2190   64.3970   95.7480 C.3      15 GLL5        0.0000 
     59 CA        152.0520   63.8890   91.3890 C.3      10 GLP5        0.0000 
     60 N         147.7955   63.7775   95.8370 N.am      2 SEC2        0.0000 
     61 N         148.8600   64.8540   95.5880 N.am     12 SEL2        0.0000 
     62 N         146.7310   62.7010   96.0860 N.am      7 SEP2        0.0000 
     63 O         149.4540   64.4420   94.1520 O.2       1 ALC1        0.0000 
     64 O         148.8600   64.8540   95.5880 O.2      11 ALL1        0.0000 
     65 O         150.0480   64.0300   92.7160 O.2       6 ALP1        0.0000 
     66 N         147.9140   64.4920   99.2340 N.am      2 SEC2        0.0000 
     67 N         148.8450   65.5550   98.2480 N.am     12 SEL2        0.0000 
     68 N         146.9830   63.4290  100.2200 N.am      7 SEP2        0.0000 
     69 CA        150.9195   61.5380   97.6345 C.3       5 GLC5        0.0000 
     70 CA        150.2750   63.6440   97.6970 C.3      15 GLL5        0.0000 
     71 CA        151.5640   59.4320   97.5720 C.3      10 GLP5        0.0000 
     72 CA        149.3320   62.4920   96.2955 C.3       5 GLC5        0.0000 
     73 CA        148.3890   61.3400   94.8940 C.3      10 GLP5        0.0000 
     74 Zn        148.9700   60.8665  103.3620 Zn        4 ZIC7        0.0000 
     75 Zn        149.8910   60.4550  102.8690 Zn       14 ZIL7        0.0000 
     76 Zn        148.0490   61.2780  103.8550 Zn        9 ZIP7        0.0000 
     77 N         150.0840   59.4800  103.8855 N.am      2 SEC2        0.0000 
     78 N         149.8910   60.4550  102.8690 N.am     12 SEL2        0.0000 
     79 N         150.2770   58.5050  104.9020 N.am      7 SEP2        0.0000 
     80 N         150.1955   60.8590  104.4160 N.am      2 SEC2        0.0000 
     81 N         150.5000   61.2630  105.9630 N.am      7 SEP2        0.0000 
     82 O         148.7620   60.4130   99.1790 O.2       1 ALC1        0.0000 
     83 O         148.6840   60.0460  100.7710 O.2      11 ALL1        0.0000 
     84 O         148.8400   60.7800   97.5870 O.2       6 ALP1        0.0000 
     85 O         148.3770   58.5110  100.6615 O.2       1 ALC1        0.0000 
     86 O         148.0700   56.9760  100.5520 O.2       6 ALP1        0.0000 
     87 CA        153.1020   60.9025  101.9560 C.3       5 GLC5        0.0000 
     88 CA        151.6130   62.2190  101.4410 C.3      15 GLL5        0.0000 
     89 CA        154.5910   59.5860  102.4710 C.3      10 GLP5        0.0000 
     90 CA        156.0480   66.3088   93.4990 C.3       5 GLC5        0.0000 
     91 CA        157.2920   65.4920   94.6600 C.3      10 GLP5        0.0000 
     92 CA        153.4280   65.5072   91.8635 C.3       5 GLC5        0.0000 
     93 CA        151.9225   64.6374   88.6149 C.3       5 GLC5        0.0000 
     94 CA        149.5163   63.0995   95.4195 C.3       5 GLC5        0.0000 
     95 CA        150.0680   65.3210   96.1420 C.3      15 GLL5        0.0000 
     96 CA        150.6059   66.3440   94.6737 C.3       5 GLC5        0.0000 
     97 CA        150.9055   60.7078   98.8978 C.3       5 GLC5        0.0000 
     98 CA        150.0400   62.2370   99.6110 C.3      15 GLL5        0.0000 
@<TRIPOS>BOND
@<TRIPOS>SUBSTRUCTURE
     1 ALC1       23 GROUP        1 X    ALC  0     ROOT ALC X 1
     2 SEC2        4 GROUP        1 X    SEC  0     **** SEC X 2
     3 LYC4        1 GROUP        1 X    LYC  0     **** LYC X 4
     4 ZIC7       74 GROUP        1 X    ZIC  0     **** ZIC X 5
     5 GLC5       15 GROUP        1 X    GLC  0     **** GLC X 6
     6 ALP1       25 GROUP        1 Y    ALP  0     ROOT ALP Y 8
     7 SEP2        6 GROUP        1 Y    SEP  0     **** SEP Y 9
     8 LYP4        3 GROUP        1 Y    LYP  0     **** LYP Y 11
     9 ZIP7       76 GROUP        1 Y    ZIP  0     **** ZIP Y 12
    10 GLP5       17 GROUP        1 Y    GLP  0     **** GLP Y 13
    11 ALL1       24 GROUP        1 Z    ALL  0     ROOT ALL Z 15
    12 SEL2        5 GROUP        1 Z    SEL  0     **** SEL Z 16
    13 LYL4        2 GROUP        1 Z    LYL  0     **** LYL Z 18
    14 ZIL7       75 GROUP        1 Z    ZIL  0     **** ZIL Z 19
    15 GLL5       16 GROUP        1 Z    GLL  0     **** GLL Z 20
@<TRIPOS>SET

