#    Name: 1up6_NAD_1_ligand
#    Modification time : Tue Mar 25 06:48:29 2014

@<TRIPOS>MOLECULE
1up6_NAD_1_ligand
   70    74     1     0     0
SMALL
NO_CHARGES


@<TRIPOS>ATOM
      1 PA        153.5580   69.2860   94.4690 P.3       1 NAD1416     0.0000 
      2 O1A       152.2670   70.0140   94.3720 O.co2     1 NAD1416     0.0000 
      3 O2A       154.6830   70.3190   94.2950 O.co2     1 NAD1416     0.0000 
      4 O5B       153.5770   68.0960   93.3380 O.3       1 NAD1416     0.0000 
      5 C5B       154.5620   67.1200   93.0690 C.3       1 NAD1416     0.0000 
      6 C4B       155.0460   67.1310   91.6070 C.3       1 NAD1416     0.0000 
      7 O4B       154.1200   66.4890   90.7460 O.3       1 NAD1416     0.0000 
      8 C3B       155.2940   68.5120   90.9860 C.3       1 NAD1416     0.0000 
      9 O3B       156.6760   68.7550   90.8170 O.3       1 NAD1416     0.0000 
     10 C2B       154.5710   68.4950   89.6360 C.3       1 NAD1416     0.0000 
     11 O2B       155.3540   68.9660   88.5610 O.3       1 NAD1416     0.0000 
     12 C1B       154.2220   67.0300   89.4410 C.3       1 NAD1416     0.0000 
     13 N9A       152.9600   66.7890   88.7320 N.pl3     1 NAD1416     0.0000 
     14 C8A       151.7580   67.4390   88.8720 C.2       1 NAD1416     0.0000 
     15 N7A       150.8600   66.8590   88.0300 N.2       1 NAD1416     0.0000 
     16 C5A       151.4700   65.8490   87.3640 C.ar      1 NAD1416     0.0000 
     17 C6A       151.0240   64.9460   86.4070 C.ar      1 NAD1416     0.0000 
     18 N6A       149.7630   65.0020   85.9840 N.pl3     1 NAD1416     0.0000 
     19 N1A       151.8960   64.0020   85.9010 N.ar      1 NAD1416     0.0000 
     20 C2A       153.2040   63.9740   86.3460 C.ar      1 NAD1416     0.0000 
     21 N3A       153.6610   64.8750   87.2860 N.ar      1 NAD1416     0.0000 
     22 C4A       152.8010   65.7980   87.7900 C.ar      1 NAD1416     0.0000 
     23 O3        153.5810   68.7870   96.0070 O.3       1 NAD1416     0.0000 
     24 PN        153.5970   67.3250   96.6790 P.3       1 NAD1416     0.0000 
     25 O1N       153.1580   67.5430   98.0850 O.co2     1 NAD1416     0.0000 
     26 O2N       154.9280   66.7170   96.4630 O.co2     1 NAD1416     0.0000 
     27 O5D       152.4600   66.4640   95.9300 O.3       1 NAD1416     0.0000 
     28 C5D       152.5840   65.0570   95.8980 C.3       1 NAD1416     0.0000 
     29 C4D       151.2190   64.3970   95.7480 C.3       1 NAD1416     0.0000 
     30 O4D       151.1890   63.3140   96.6560 O.3       1 NAD1416     0.0000 
     31 C3D       150.0680   65.3210   96.1420 C.3       1 NAD1416     0.0000 
     32 O3D       148.8600   64.8540   95.5880 O.3       1 NAD1416     0.0000 
     33 C2D       150.0490   65.1470   97.6400 C.3       1 NAD1416     0.0000 
     34 O2D       148.8450   65.5550   98.2480 O.3       1 NAD1416     0.0000 
     35 C1D       150.2750   63.6440   97.6970 C.3       1 NAD1416     0.0000 
     36 N1N       150.7720   63.1920   98.9940 N.pl3     1 NAD1416     0.0000 
     37 C2N       150.0400   62.2370   99.6110 C.ar      1 NAD1416     0.0000 
     38 C3N       150.4540   61.7300  100.8360 C.ar      1 NAD1416     0.0000 
     39 C7N       149.6240   60.6820  101.4930 C.2       1 NAD1416     0.0000 
     40 O7N       149.8910   60.4550  102.8690 O.2       1 NAD1416     0.0000 
     41 N7N       148.6840   60.0460  100.7710 N.am      1 NAD1416     0.0000 
     42 C4N       151.6130   62.2190  101.4410 C.ar      1 NAD1416     0.0000 
     43 C5N       152.3520   63.2080  100.8010 C.ar      1 NAD1416     0.0000 
     44 C6N       151.9160   63.6810   99.5640 C.ar      1 NAD1416     0.0000 
     45 H         154.1948   66.0917   93.2787 H         1 NAD1416     0.0000 
     46 H         155.4627   67.2531   93.7072 H         1 NAD1416     0.0000 
     47 H         156.0069   66.5889   91.5626 H         1 NAD1416     0.0000 
     48 H         154.8093   69.2396   91.6065 H         1 NAD1416     0.0000 
     49 H         153.6438   69.0263   89.7593 H         1 NAD1416     0.0000 
     50 H         155.0452   66.5589   88.9175 H         1 NAD1416     0.0000 
     51 H         151.5887   68.1733   89.4627 H         1 NAD1416     0.0000 
     52 H         149.1999   65.7304   86.3743 H         1 NAD1416     0.0000 
     53 H         149.4925   64.3106   85.3141 H         1 NAD1416     0.0000 
     54 H         153.8566   63.2590   85.9642 H         1 NAD1416     0.0000 
     55 H         153.0435   64.6626   96.8197 H         1 NAD1416     0.0000 
     56 H         153.2108   64.7174   95.0565 H         1 NAD1416     0.0000 
     57 H         151.0861   64.0719   94.7482 H         1 NAD1416     0.0000 
     58 H         150.3260   66.3001   95.9087 H         1 NAD1416     0.0000 
     59 H         150.9322   65.6080   98.0260 H         1 NAD1416     0.0000 
     60 H         149.3066   63.1711   97.4896 H         1 NAD1416     0.0000 
     61 H         149.1702   61.8736   99.1847 H         1 NAD1416     0.0000 
     62 H         148.1512   59.3524  101.2559 H         1 NAD1416     0.0000 
     63 H         148.6018   60.3235   99.8138 H         1 NAD1416     0.0000 
     64 H         151.9141   61.8516  102.3472 H         1 NAD1416     0.0000 
     65 H         153.1993   63.5823  101.2281 H         1 NAD1416     0.0000 
     66 H         152.4714   64.4098   99.0808 H         1 NAD1416     0.0000 
     67 H         156.7977   68.8825   89.8326 H         1 NAD1416     0.0000 
     68 H         155.5120   68.1639   87.9851 H         1 NAD1416     0.0000 
     69 H         149.1013   64.5382   94.6703 H         1 NAD1416     0.0000 
     70 H         149.1246   66.0319   99.0813 H         1 NAD1416     0.0000 
@<TRIPOS>BOND
     1    2    1 ar   
     2    3    1 ar   
     3    4    1 1    
     4   23    1 1    
     5    5    4 1    
     6    6    5 1    
     7   45    5 1    
     8   46    5 1    
     9    7    6 1    
    10    8    6 1    
    11   47    6 1    
    12   12    7 1    
    13    9    8 1    
    14   10    8 1    
    15   48    8 1    
    16   67    9 1    
    17   11   10 1    
    18   12   10 1    
    19   49   10 1    
    20   68   11 1    
    21   13   12 1    
    22   50   12 1    
    23   14   13 1    
    24   22   13 1    
    25   15   14 2    
    26   51   14 1    
    27   16   15 1    
    28   17   16 ar   
    29   22   16 ar   
    30   18   17 1    
    31   19   17 ar   
    32   52   18 1    
    33   53   18 1    
    34   20   19 ar   
    35   21   20 ar   
    36   54   20 1    
    37   22   21 ar   
    38   24   23 1    
    39   25   24 ar   
    40   26   24 ar   
    41   27   24 1    
    42   28   27 1    
    43   29   28 1    
    44   55   28 1    
    45   56   28 1    
    46   30   29 1    
    47   31   29 1    
    48   57   29 1    
    49   35   30 1    
    50   32   31 1    
    51   33   31 1    
    52   58   31 1    
    53   69   32 1    
    54   34   33 1    
    55   35   33 1    
    56   59   33 1    
    57   70   34 1    
    58   36   35 1    
    59   60   35 1    
    60   37   36 ar   
    61   44   36 ar   
    62   38   37 ar   
    63   61   37 1    
    64   39   38 1    
    65   42   38 ar   
    66   40   39 2    
    67   41   39 am   
    68   62   41 1    
    69   63   41 1    
    70   43   42 ar   
    71   64   42 1    
    72   44   43 ar   
    73   65   43 1    
    74   66   44 1    
@<TRIPOS>SUBSTRUCTURE
     1 NAD1416     1 GROUP   
@<TRIPOS>SET

