#    Name: 2o12_FMN_1_INTS_M
#    Modification time : Tue Mar 25 21:47:37 2014

@<TRIPOS>MOLECULE
2o12_FMN_1_INTS_M
   62     0    12     0     0
SMALL
NO_CHARGES


@<TRIPOS>ATOM
      1 N          78.5135   18.1990   25.1295 N.am      2 SEC2        0.0000 
      2 N          77.5410   18.2890   23.8120 N.am     10 SEL2        0.0000 
      3 N          79.4860   18.1090   26.4470 N.am      6 SEP2        0.0000 
      4 N          78.6600   19.0220   23.9780 N.am      2 SEC2        0.0000 
      5 N          79.7790   19.7550   24.1440 N.am      6 SEP2        0.0000 
      6 O          76.8290   21.1000   23.7780 O.2       1 ALC1        0.0000 
      7 O          75.9120   19.8520   23.6610 O.2       9 ALL1        0.0000 
      8 O          77.7460   22.3480   23.8950 O.2       5 ALP1        0.0000 
      9 CA         66.2730   18.8520   22.5095 C.3       4 GLC5        0.0000 
     10 CA         67.8860   18.0800   21.5990 C.3      12 GLL5        0.0000 
     11 CA         64.6600   19.6240   23.4200 C.3       8 GLP5        0.0000 
     12 CA         68.1690   13.7290   20.3085 C.3       4 GLC5        0.0000 
     13 CA         68.7900   15.3380   21.2870 C.3      12 GLL5        0.0000 
     14 CA         67.5480   12.1200   19.3300 C.3       8 GLP5        0.0000 
     15 CA         67.2940   14.8605   22.7350 C.3       4 GLC5        0.0000 
     16 CA         65.7980   14.3830   24.1830 C.3       8 GLP5        0.0000 
     17 CA         71.8340   14.2700   22.7220 C.3       4 GLC5        0.0000 
     18 CA         71.1400   16.0750   21.7920 C.3      12 GLL5        0.0000 
     19 CA         72.5280   12.4650   23.6520 C.3       8 GLP5        0.0000 
     20 CA         73.2780   13.9650   22.9425 C.3       4 GLC5        0.0000 
     21 CA         74.0280   15.4650   22.2330 C.3      12 GLL5        0.0000 
     22 CA         73.4575   16.1905   24.1405 C.3       4 GLC5        0.0000 
     23 CA         72.8870   16.9160   26.0480 C.3       8 GLP5        0.0000 
     24 CA         77.1795   15.9400   21.4345 C.3       4 GLC5        0.0000 
     25 CA         75.1100   15.3210   21.1420 C.3      12 GLL5        0.0000 
     26 CA         79.2490   16.5590   21.7270 C.3       8 GLP5        0.0000 
     27 CA         74.0225   13.1580   22.3415 C.3       4 GLC5        0.0000 
     28 CA         75.5170   13.8510   21.0310 C.3      12 GLL5        0.0000 
     29 CA         78.3425   14.7255   20.4710 C.3       4 GLC5        0.0000 
     30 CA         76.6660   13.6370   20.0440 C.3      12 GLL5        0.0000 
     31 CA         80.0190   15.8140   20.8980 C.3       8 GLP5        0.0000 
     32 CA         79.0915   12.8440   20.6205 C.3       4 GLC5        0.0000 
     33 CA         77.2840   12.2370   20.0690 C.3      12 GLL5        0.0000 
     34 CA         80.8990   13.4510   21.1720 C.3       8 GLP5        0.0000 
     35 N          73.5825   10.5095   20.8105 N.am      2 SEC2        0.0000 
     36 N          74.5640    9.6720   20.2080 N.am     10 SEL2        0.0000 
     37 N          72.6010   11.3470   21.4130 N.am      6 SEP2        0.0000 
     38 NZ         76.6580   10.5795   23.0885 N.4       3 LYC4        0.0000 
     39 NZ         75.7090   10.7920   22.1080 N.4      11 LYL4        0.0000 
     40 NZ         77.6070   10.3670   24.0690 N.4       7 LYP4        0.0000 
     41 N          76.6580   10.5795   23.0885 N.am      2 SEC2        0.0000 
     42 N          75.7090   10.7920   22.1080 N.am     10 SEL2        0.0000 
     43 N          77.6070   10.3670   24.0690 N.am      6 SEP2        0.0000 
     44 NZ         77.2940    9.7275   22.4105 N.4       3 LYC4        0.0000 
     45 NZ         76.9810    9.0880   20.7520 N.4      11 LYL4        0.0000 
     46 CA         71.1957   18.1713   20.5138 C.3       4 GLC5        0.0000 
     47 CA         71.5780   18.3980   22.3050 C.3      12 GLL5        0.0000 
     48 CA         71.4780   17.7850   18.8440 C.3       8 GLP5        0.0000 
     49 CA         72.3550   17.3268   24.1430 C.3       4 GLC5        0.0000 
     50 CA         69.9457   18.7018   23.9282 C.3       4 GLC5        0.0000 
     51 CA         68.9780   18.8460   25.6730 C.3       8 GLP5        0.0000 
     52 CA         68.7955   18.3785   23.6552 C.3       4 GLC5        0.0000 
     53 CA         69.3400   17.7420   21.6760 C.3      12 GLL5        0.0000 
     54 CA         70.3296   16.9979   20.1454 C.3       4 GLC5        0.0000 
     55 CA         69.4326   15.6619   23.1129 C.3       4 GLC5        0.0000 
     56 CA         69.8050   16.4250   21.5370 C.3      12 GLL5        0.0000 
     57 CA         69.6840   15.1130   24.7790 C.3       8 GLP5        0.0000 
     58 CA         71.5410   17.1805   20.4128 C.3       4 GLC5        0.0000 
     59 CA         71.1714   14.8096   20.2645 C.3       4 GLC5        0.0000 
     60 CA         72.1240   13.6410   18.9270 C.3       8 GLP5        0.0000 
     61 CA         70.6440   15.8445   23.3803 C.3       4 GLC5        0.0000 
     62 CA         73.5835   14.1315   20.1431 C.3       4 GLC5        0.0000 
@<TRIPOS>BOND
@<TRIPOS>SUBSTRUCTURE
     1 ALC1        6 GROUP        1 X    ALC  0     ROOT ALC X 1
     2 SEC2        1 GROUP        1 X    SEC  0     **** SEC X 2
     3 LYC4       38 GROUP        1 X    LYC  0     **** LYC X 4
     4 GLC5        9 GROUP        1 X    GLC  0     **** GLC X 6
     5 ALP1        8 GROUP        1 Y    ALP  0     ROOT ALP Y 8
     6 SEP2        3 GROUP        1 Y    SEP  0     **** SEP Y 9
     7 LYP4       40 GROUP        1 Y    LYP  0     **** LYP Y 11
     8 GLP5       11 GROUP        1 Y    GLP  0     **** GLP Y 13
     9 ALL1        7 GROUP        1 Z    ALL  0     ROOT ALL Z 15
    10 SEL2        2 GROUP        1 Z    SEL  0     **** SEL Z 16
    11 LYL4       39 GROUP        1 Z    LYL  0     **** LYL Z 18
    12 GLL5       10 GROUP        1 Z    GLL  0     **** GLL Z 20
@<TRIPOS>SET

