#    Name: 1qvu_ET_1_INTS_M
#    Modification time : Mon Mar 24 23:59:01 2014

@<TRIPOS>MOLECULE
1qvu_ET_1_INTS_M
   35     0     6     0     0
SMALL
NO_CHARGES


@<TRIPOS>ATOM
      1 CA        -74.9530  -51.5210   12.8355 C.3       2 GLC5        0.0000 
      2 CA        -74.7580  -50.9270   10.9160 C.3       6 GLL5        0.0000 
      3 CA        -75.1480  -52.1150   14.7550 C.3       4 GLP5        0.0000 
      4 CA        -74.3000  -51.9030    5.5010 C.3       2 GLC5        0.0000 
      5 CA        -72.4220  -51.0610    6.2320 C.3       6 GLL5        0.0000 
      6 CA        -76.1780  -52.7450    4.7700 C.3       4 GLP5        0.0000 
      7 CA        -74.5100  -45.3945    7.4975 C.3       2 GLC5        0.0000 
      8 CA        -72.6060  -45.2100    7.4210 C.3       6 GLL5        0.0000 
      9 CA        -76.4140  -45.5790    7.5740 C.3       4 GLP5        0.0000 
     10 CA        -69.3965  -41.8790    7.2625 C.3       2 GLC5        0.0000 
     11 CA        -70.7990  -43.5860    7.3930 C.3       6 GLL5        0.0000 
     12 CA        -67.9940  -40.1720    7.1320 C.3       4 GLP5        0.0000 
     13 CA        -71.6995  -47.8995   10.7585 C.3       2 GLC5        0.0000 
     14 CA        -73.1930  -46.9420   10.4260 C.3       6 GLL5        0.0000 
     15 CA        -70.2060  -48.8570   11.0910 C.3       4 GLP5        0.0000 
     16 CA        -75.9770  -46.2025    9.5950 C.3       2 GLC5        0.0000 
     17 CA        -74.5500  -46.3100   10.5760 C.3       6 GLL5        0.0000 
     18 CA        -77.4040  -46.0950    8.6140 C.3       4 GLP5        0.0000 
     19 O         -69.3600  -49.8460    3.1240 O.2       1 ALC1        0.0000 
     20 O         -70.5540  -49.1140    3.6510 O.2       5 ALL1        0.0000 
     21 O         -68.1660  -50.5780    2.5970 O.2       3 ALP1        0.0000 
     22 CA        -72.6153  -52.1412    9.9105 C.3       2 GLC5        0.0000 
     23 CA        -73.9150  -51.6640    8.7990 C.3       6 GLL5        0.0000 
     24 CA        -70.9810  -52.4960   10.4380 C.3       4 GLP5        0.0000 
     25 CA        -74.2117  -53.6753    8.9340 C.3       2 GLC5        0.0000 
     26 CA        -74.1740  -55.5640    8.4850 C.3       4 GLP5        0.0000 
     27 CA        -71.2908  -52.3193    4.6182 C.3       2 GLC5        0.0000 
     28 CA        -70.4990  -53.7380    3.5890 C.3       4 GLP5        0.0000 
     29 CA        -71.9900  -51.3558    9.1725 C.3       2 GLC5        0.0000 
     30 CA        -72.6440  -50.0720    7.2920 C.3       6 GLL5        0.0000 
     31 CA        -72.5052  -51.1677   10.3034 C.3       2 GLC5        0.0000 
     32 CA        -73.5490  -49.3680    9.5180 C.3       6 GLL5        0.0000 
     33 CA        -71.0936  -43.0593    9.0046 C.3       2 GLC5        0.0000 
     34 CA        -72.1540  -43.9120    7.2220 C.3       6 GLL5        0.0000 
     35 CA        -71.5110  -41.9510   10.4660 C.3       4 GLP5        0.0000 
@<TRIPOS>BOND
@<TRIPOS>SUBSTRUCTURE
     1 ALC1       19 GROUP        1 X    ALC  0     ROOT ALC X 1
     2 GLC5        1 GROUP        1 X    GLC  0     **** GLC X 6
     3 ALP1       21 GROUP        1 Y    ALP  0     ROOT ALP Y 8
     4 GLP5        3 GROUP        1 Y    GLP  0     **** GLP Y 13
     5 ALL1       20 GROUP        1 Z    ALL  0     ROOT ALL Z 15
     6 GLL5        2 GROUP        1 Z    GLL  0     **** GLL Z 20
@<TRIPOS>SET

