#    Name: 1qvu_ET_1_ligand
#    Modification time : Mon Mar 24 23:59:01 2014

@<TRIPOS>MOLECULE
1qvu_ET_1_ligand
   44    47     1     0     0
SMALL
NO_CHARGES


@<TRIPOS>ATOM
      1 C1        -73.9150  -51.6640    8.7990 C.ar      1 ET195       0.0000 
      2 C2        -74.5840  -51.9090    9.9670 C.ar      1 ET195       0.0000 
      3 C3        -74.7580  -50.9270   10.9160 C.ar      1 ET195       0.0000 
      4 C4        -74.2620  -49.6950   10.7230 C.ar      1 ET195       0.0000 
      5 N5        -73.0310  -48.0580    9.3480 N.ar      1 ET195       0.0000 
      6 C6        -72.2470  -47.7000    8.0150 C.ar      1 ET195       0.0000 
      7 C7        -71.4120  -48.4720    5.8310 C.ar      1 ET195       0.0000 
      8 C8        -71.2250  -49.4220    4.8440 C.ar      1 ET195       0.0000 
      9 C9        -71.7430  -50.7400    5.0630 C.ar      1 ET195       0.0000 
     10 C10       -72.4220  -51.0610    6.2320 C.ar      1 ET195       0.0000 
     11 C11       -72.1200  -48.7690    7.0820 C.ar      1 ET195       0.0000 
     12 C12       -72.6440  -50.0720    7.2920 C.ar      1 ET195       0.0000 
     13 C13       -73.3540  -50.3590    8.5220 C.ar      1 ET195       0.0000 
     14 C14       -73.5490  -49.3680    9.5180 C.ar      1 ET195       0.0000 
     15 C15       -71.7050  -46.2950    7.8190 C.ar      1 ET195       0.0000 
     16 C16       -72.6060  -45.2100    7.4210 C.ar      1 ET195       0.0000 
     17 C17       -72.1540  -43.9120    7.2220 C.ar      1 ET195       0.0000 
     18 C18       -70.7990  -43.5860    7.3930 C.ar      1 ET195       0.0000 
     19 C19       -69.8760  -44.5860    7.7790 C.ar      1 ET195       0.0000 
     20 C20       -70.3210  -45.8940    7.9840 C.ar      1 ET195       0.0000 
     21 C21       -73.1930  -46.9420   10.4260 C.3       1 ET195       0.0000 
     22 C22       -74.5500  -46.3100   10.5760 C.3       1 ET195       0.0000 
     23 N23       -75.4370  -51.2060   12.0680 N.pl3     1 ET195       0.0000 
     24 N24       -70.5540  -49.1140    3.6510 N.pl3     1 ET195       0.0000 
     25 H         -73.7905  -52.3958    8.0849 H         1 ET195       0.0000 
     26 H         -74.9731  -52.8619   10.1463 H         1 ET195       0.0000 
     27 H         -74.3718  -48.9419   11.4247 H         1 ET195       0.0000 
     28 H         -71.0541  -47.5084    5.7179 H         1 ET195       0.0000 
     29 H         -71.5997  -51.4488    4.3295 H         1 ET195       0.0000 
     30 H         -72.7915  -52.0084    6.3893 H         1 ET195       0.0000 
     31 H         -73.6009  -45.4506    7.2928 H         1 ET195       0.0000 
     32 H         -72.8183  -43.1716    6.9444 H         1 ET195       0.0000 
     33 H         -70.4756  -42.6293    7.2400 H         1 ET195       0.0000 
     34 H         -68.8923  -44.3451    7.9049 H         1 ET195       0.0000 
     35 H         -69.6450  -46.6313    8.2688 H         1 ET195       0.0000 
     36 H         -72.4354  -46.1505   10.2028 H         1 ET195       0.0000 
     37 H         -72.8732  -47.3759   11.4056 H         1 ET195       0.0000 
     38 H         -75.5458  -50.4467   12.7096 H         1 ET195       0.0000 
     39 H         -75.7657  -52.1451   12.1686 H         1 ET195       0.0000 
     40 H         -70.9799  -48.4171    3.0739 H         1 ET195       0.0000 
     41 H         -69.7072  -49.6177    3.4797 H         1 ET195       0.0000 
     42 H         -74.5566  -45.6094   11.2896 H         1 ET195       0.0000 
     43 H         -74.8501  -45.8694    9.7299 H         1 ET195       0.0000 
     44 H         -75.2483  -46.9831   10.8196 H         1 ET195       0.0000 
@<TRIPOS>BOND
     1    2    1 ar   
     2   13    1 ar   
     3   25    1 1    
     4    3    2 ar   
     5   26    2 1    
     6    4    3 ar   
     7   23    3 1    
     8   14    4 ar   
     9   27    4 1    
    10    6    5 ar   
    11   14    5 ar   
    12   21    5 1    
    13   11    6 ar   
    14   15    6 1    
    15    8    7 ar   
    16   11    7 ar   
    17   28    7 1    
    18    9    8 ar   
    19   24    8 1    
    20   10    9 ar   
    21   29    9 1    
    22   12   10 ar   
    23   30   10 1    
    24   12   11 ar   
    25   13   12 ar   
    26   14   13 ar   
    27   16   15 ar   
    28   20   15 ar   
    29   17   16 ar   
    30   31   16 1    
    31   18   17 ar   
    32   32   17 1    
    33   19   18 ar   
    34   33   18 1    
    35   20   19 ar   
    36   34   19 1    
    37   35   20 1    
    38   22   21 1    
    39   36   21 1    
    40   37   21 1    
    41   42   22 1    
    42   43   22 1    
    43   44   22 1    
    44   38   23 1    
    45   39   23 1    
    46   40   24 1    
    47   41   24 1    
@<TRIPOS>SUBSTRUCTURE
     1 ET195       1 GROUP   
@<TRIPOS>SET

