#    Name: 2x81_ZZL_1_INTS_M
#    Modification time : Tue Mar 25 05:20:21 2014

@<TRIPOS>MOLECULE
2x81_ZZL_1_INTS_M
   78     0    12     0     0
SMALL
NO_CHARGES


@<TRIPOS>ATOM
      1 CA          4.9900  -27.2430  -10.0920 C.3       4 GLC5        0.0000 
      2 CA          4.6920  -28.6780   -9.0680 C.3      12 GLL5        0.0000 
      3 CA          5.2880  -25.8080  -11.1160 C.3       8 GLP5        0.0000 
      4 CA          7.6795  -30.7970   -7.4210 C.3       4 GLC5        0.0000 
      5 CA          8.5990  -29.0370   -6.3780 C.3      12 GLL5        0.0000 
      6 CA          6.7600  -32.5570   -8.4640 C.3       8 GLP5        0.0000 
      7 CA          3.2375  -26.7160   -4.7125 C.3       4 GLC5        0.0000 
      8 CA          4.1490  -28.0390   -3.8920 C.3      12 GLL5        0.0000 
      9 CA          2.3260  -25.3930   -5.5330 C.3       8 GLP5        0.0000 
     10 NZ         -1.4285  -33.7905   -1.0080 N.4       3 LYC4        0.0000 
     11 NZ         -0.5150  -34.6770   -1.3120 N.4      11 LYL4        0.0000 
     12 NZ         -3.2830  -32.8940   -1.6360 N.4       7 LYP4        0.0000 
     13 N          -1.8250  -34.1675   -2.0125 N.am      2 SEC2        0.0000 
     14 N          -0.5150  -34.6770   -1.3120 N.am     10 SEL2        0.0000 
     15 N          -3.1350  -33.6580   -2.7130 N.am      6 SEP2        0.0000 
     16 N          -1.4285  -33.7905   -1.0080 N.am      2 SEC2        0.0000 
     17 N          -2.3420  -32.9040   -0.7040 N.am      6 SEP2        0.0000 
     18 CA          1.4290  -30.9700   -4.1425 C.3       4 GLC5        0.0000 
     19 CA          2.6530  -32.8120   -4.3280 C.3      12 GLL5        0.0000 
     20 CA          0.2050  -29.1280   -3.9570 C.3       8 GLP5        0.0000 
     21 O           2.3215  -34.4845   -7.1650 O.2       1 ALC1        0.0000 
     22 O           2.4290  -33.1690   -6.7010 O.2       9 ALL1        0.0000 
     23 O           2.2140  -35.8000   -7.6290 O.2       5 ALP1        0.0000 
     24 CA          1.2010  -30.9025   -6.7280 C.3       4 GLC5        0.0000 
     25 CA          2.9880  -32.0550   -7.1910 C.3      12 GLL5        0.0000 
     26 CA         -0.5860  -29.7500   -6.2650 C.3       8 GLP5        0.0000 
     27 CA          3.6240  -33.8170   -8.4020 C.3       4 GLC5        0.0000 
     28 CA          4.2600  -35.5790   -9.6130 C.3       8 GLP5        0.0000 
     29 CA          4.8740  -32.3060   -7.8275 C.3       4 GLC5        0.0000 
     30 N           2.6680  -33.1120   -9.4245 N.am      2 SEC2        0.0000 
     31 N           3.0360  -31.9220   -8.5340 N.am     10 SEL2        0.0000 
     32 N           2.3000  -34.3020  -10.3150 N.am      6 SEP2        0.0000 
     33 CA          2.3060  -31.7630  -10.3600 C.3       4 GLC5        0.0000 
     34 CA          3.5720  -30.8570   -9.1120 C.3      12 GLL5        0.0000 
     35 CA          1.0400  -32.6690  -11.6080 C.3       8 GLP5        0.0000 
     36 CA          7.5855  -31.7020   -5.9665 C.3       4 GLC5        0.0000 
     37 CA          7.9540  -30.0570   -5.7800 C.3      12 GLL5        0.0000 
     38 CA          7.2170  -33.3470   -6.1530 C.3       8 GLP5        0.0000 
     39 CA          9.1560  -30.1210   -7.5605 C.3       4 GLC5        0.0000 
     40 CA         10.3580  -30.1850   -9.3410 C.3       8 GLP5        0.0000 
     41 CA         11.3680  -30.2730   -5.8480 C.3       4 GLC5        0.0000 
     42 CA          9.9740  -28.8990   -6.1890 C.3      12 GLL5        0.0000 
     43 CA         12.7620  -31.6470   -5.5070 C.3       8 GLP5        0.0000 
     44 CA          7.0485  -24.5445   -8.4490 C.3       4 GLC5        0.0000 
     45 CA          7.9700  -26.1630   -8.5550 C.3      12 GLL5        0.0000 
     46 CA          6.1270  -22.9260   -8.3430 C.3       8 GLP5        0.0000 
     47 CA          6.6290  -25.9855   -9.8355 C.3       4 GLC5        0.0000 
     48 CA          4.1150  -26.1995   -1.9535 C.3       4 GLC5        0.0000 
     49 CA          5.7160  -26.0990   -2.8800 C.3      12 GLL5        0.0000 
     50 CA          2.5140  -26.3000   -1.0270 C.3       8 GLP5        0.0000 
     51 CA          4.6665  -25.3705   -4.3620 C.3       4 GLC5        0.0000 
     52 CA          3.6170  -24.6420   -5.8440 C.3       8 GLP5        0.0000 
     53 CA          0.4845  -35.8980   -6.6730 C.3       4 GLC5        0.0000 
     54 CA          1.0160  -34.3260   -5.2350 C.3      12 GLL5        0.0000 
     55 CA         -0.0470  -37.4700   -8.1110 C.3       8 GLP5        0.0000 
     56 CA          3.6117  -26.9695   -2.5095 C.3       4 GLC5        0.0000 
     57 CA          4.6348  -25.9653   -5.2583 C.3       4 GLC5        0.0000 
     58 CA          5.2700  -27.2390   -4.0920 C.3      12 GLL5        0.0000 
     59 CA          2.0835  -28.8128   -4.1683 C.3       4 GLC5        0.0000 
     60 CA          2.7403  -35.0795   -3.5310 C.3       4 GLC5        0.0000 
     61 CA          1.1870  -34.0380   -2.8490 C.3      12 GLL5        0.0000 
     62 CA          3.7770  -36.5800   -4.1180 C.3       8 GLP5        0.0000 
     63 CA          3.0635  -34.8455   -4.5003 C.3       4 GLC5        0.0000 
     64 CA          2.4551  -29.3364   -9.4262 C.3       4 GLC5        0.0000 
     65 CA          0.9280  -28.6100   -9.9540 C.3       8 GLP5        0.0000 
     66 CA          5.3576  -30.3704  -10.2607 C.3       4 GLC5        0.0000 
     67 CA          6.7330  -30.6780  -11.6230 C.3       8 GLP5        0.0000 
     68 CA          3.2104  -27.5906   -6.0794 C.3       4 GLC5        0.0000 
     69 CA          5.6650  -28.2580   -6.2310 C.3      12 GLL5        0.0000 
     70 CA          1.9810  -26.3720   -6.6610 C.3       8 GLP5        0.0000 
     71 CA          3.1021  -28.0046   -7.2337 C.3       4 GLC5        0.0000 
     72 CA          4.0540  -30.0060   -6.9280 C.3      12 GLL5        0.0000 
     73 CA          5.3891  -31.2957   -8.1886 C.3       4 GLC5        0.0000 
     74 CA          2.2888  -35.5312   -4.3553 C.3       4 GLC5        0.0000 
     75 CA          9.8219  -29.0856   -8.1625 C.3       4 GLC5        0.0000 
     76 CA         -0.0596  -32.5022   -4.3418 C.3       4 GLC5        0.0000 
     77 CA          2.0470  -33.4100   -5.4370 C.3      12 GLL5        0.0000 
     78 CA         -1.4570  -31.0160   -4.2920 C.3       8 GLP5        0.0000 
@<TRIPOS>BOND
@<TRIPOS>SUBSTRUCTURE
     1 ALC1       21 GROUP        1 X    ALC  0     ROOT ALC X 1
     2 SEC2       13 GROUP        1 X    SEC  0     **** SEC X 2
     3 LYC4       10 GROUP        1 X    LYC  0     **** LYC X 4
     4 GLC5        1 GROUP        1 X    GLC  0     **** GLC X 6
     5 ALP1       23 GROUP        1 Y    ALP  0     ROOT ALP Y 8
     6 SEP2       15 GROUP        1 Y    SEP  0     **** SEP Y 9
     7 LYP4       12 GROUP        1 Y    LYP  0     **** LYP Y 11
     8 GLP5        3 GROUP        1 Y    GLP  0     **** GLP Y 13
     9 ALL1       22 GROUP        1 Z    ALL  0     ROOT ALL Z 15
    10 SEL2       14 GROUP        1 Z    SEL  0     **** SEL Z 16
    11 LYL4       11 GROUP        1 Z    LYL  0     **** LYL Z 18
    12 GLL5        2 GROUP        1 Z    GLL  0     **** GLL Z 20
@<TRIPOS>SET

