#    Name: 2x81_ZZL_1_ligand
#    Modification time : Tue Mar 25 05:20:21 2014

@<TRIPOS>MOLECULE
2x81_ZZL_1_ligand
   48    52     1     0     0
SMALL
NO_CHARGES


@<TRIPOS>ATOM
      1 C13         4.6920  -28.6780   -9.0680 C.3       1 ZZL1389     0.0000 
      2 C15         6.5130  -28.2690   -7.3510 C.2       1 ZZL1389     0.0000 
      3 C17         8.5990  -29.0370   -6.3780 C.ar      1 ZZL1389     0.0000 
      4 C20        10.6650  -27.8530   -6.7940 C.ar      1 ZZL1389     0.0000 
      5 C21         9.9760  -26.9400   -7.5900 C.ar      1 ZZL1389     0.0000 
      6 C22         8.6010  -27.0700   -7.7800 C.ar      1 ZZL1389     0.0000 
      7 C24         5.6650  -28.2580   -6.2310 C.ar      1 ZZL1389     0.0000 
      8 C26         5.2700  -27.2390   -4.0920 C.ar      1 ZZL1389     0.0000 
      9 C28         4.1490  -28.0390   -3.8920 C.ar      1 ZZL1389     0.0000 
     10 O01        -0.5150  -34.6770   -1.3120 O.co2     1 ZZL1389     0.0000 
     11 C02         0.6910  -34.3820   -1.4410 C.2       1 ZZL1389     0.0000 
     12 O03         1.5030  -34.3410   -0.4950 O.co2     1 ZZL1389     0.0000 
     13 C04         1.1870  -34.0380   -2.8490 C.ar      1 ZZL1389     0.0000 
     14 C05         2.2200  -33.1200   -3.0390 C.ar      1 ZZL1389     0.0000 
     15 C06         2.6530  -32.8120   -4.3280 C.ar      1 ZZL1389     0.0000 
     16 C07         2.0470  -33.4100   -5.4370 C.ar      1 ZZL1389     0.0000 
     17 N08         2.4290  -33.1690   -6.7010 N.pl3     1 ZZL1389     0.0000 
     18 C09         2.9880  -32.0550   -7.1910 C.ar      1 ZZL1389     0.0000 
     19 N10         3.0360  -31.9220   -8.5340 N.ar      1 ZZL1389     0.0000 
     20 C11         3.5720  -30.8570   -9.1120 C.ar      1 ZZL1389     0.0000 
     21 C12         4.0930  -29.8590   -8.3020 C.ar      1 ZZL1389     0.0000 
     22 N14         6.0790  -28.4640   -8.6030 N.2       1 ZZL1389     0.0000 
     23 C16         7.8970  -28.1220   -7.1720 C.ar      1 ZZL1389     0.0000 
     24 F18         7.9540  -30.0570   -5.7800 F         1 ZZL1389     0.0000 
     25 C19         9.9740  -28.8990   -6.1890 C.ar      1 ZZL1389     0.0000 
     26 F23         7.9700  -26.1630   -8.5550 F         1 ZZL1389     0.0000 
     27 C25         6.0350  -27.3380   -5.2530 C.ar      1 ZZL1389     0.0000 
     28 CL1         5.7160  -26.0990   -2.8800 Cl        1 ZZL1389     0.0000 
     29 C29         3.7750  -28.9560   -4.8670 C.ar      1 ZZL1389     0.0000 
     30 C30         4.5440  -29.0670   -6.0260 C.ar      1 ZZL1389     0.0000 
     31 C31         4.0540  -30.0060   -6.9280 C.ar      1 ZZL1389     0.0000 
     32 N32         3.4990  -31.1010   -6.3880 N.ar      1 ZZL1389     0.0000 
     33 C33         1.0160  -34.3260   -5.2350 C.ar      1 ZZL1389     0.0000 
     34 C34         0.5850  -34.6390   -3.9500 C.ar      1 ZZL1389     0.0000 
     35 H           4.0842  -27.7985   -8.8795 H         1 ZZL1389     0.0000 
     36 H           4.6743  -28.9080  -10.1288 H         1 ZZL1389     0.0000 
     37 H          11.6760  -27.7542   -6.6550 H         1 ZZL1389     0.0000 
     38 H          10.4842  -26.1662   -8.0398 H         1 ZZL1389     0.0000 
     39 H           3.6017  -27.9516   -3.0285 H         1 ZZL1389     0.0000 
     40 H           2.6622  -32.6704   -2.2277 H         1 ZZL1389     0.0000 
     41 H           3.4213  -32.1423   -4.4655 H         1 ZZL1389     0.0000 
     42 H           2.2628  -33.9838   -7.4187 H         1 ZZL1389     0.0000 
     43 H           3.6147  -30.7457  -10.1344 H         1 ZZL1389     0.0000 
     44 H          10.4792  -29.5747   -5.5989 H         1 ZZL1389     0.0000 
     45 H           6.8550  -26.7442   -5.3841 H         1 ZZL1389     0.0000 
     46 H           2.9483  -29.5424   -4.7392 H         1 ZZL1389     0.0000 
     47 H           0.5679  -34.7766   -6.0491 H         1 ZZL1389     0.0000 
     48 H          -0.1781  -35.3142   -3.8138 H         1 ZZL1389     0.0000 
@<TRIPOS>BOND
     1   21    1 1    
     2   22    1 1    
     3   35    1 1    
     4   36    1 1    
     5    7    2 1    
     6   22    2 2    
     7   23    2 1    
     8   23    3 ar   
     9   24    3 1    
    10   25    3 ar   
    11    5    4 ar   
    12   25    4 ar   
    13   37    4 1    
    14    6    5 ar   
    15   38    5 1    
    16   23    6 ar   
    17   26    6 1    
    18   27    7 ar   
    19   30    7 ar   
    20    9    8 ar   
    21   27    8 ar   
    22   28    8 1    
    23   29    9 ar   
    24   39    9 1    
    25   11   10 ar   
    26   12   11 ar   
    27   13   11 1    
    28   14   13 ar   
    29   34   13 ar   
    30   15   14 ar   
    31   40   14 1    
    32   16   15 ar   
    33   41   15 1    
    34   17   16 1    
    35   33   16 ar   
    36   18   17 1    
    37   42   17 1    
    38   19   18 ar   
    39   32   18 ar   
    40   20   19 ar   
    41   21   20 ar   
    42   43   20 1    
    43   31   21 ar   
    44   44   25 1    
    45   45   27 1    
    46   30   29 ar   
    47   46   29 1    
    48   31   30 1    
    49   32   31 ar   
    50   34   33 ar   
    51   47   33 1    
    52   48   34 1    
@<TRIPOS>SUBSTRUCTURE
     1 ZZL1389     1 GROUP   
@<TRIPOS>SET

