#    Name: 3c4a_FAD_1_INTS_M
#    Modification time : Mon Mar 24 20:29:47 2014

@<TRIPOS>MOLECULE
3c4a_FAD_1_INTS_M
  106     0    12     0     0
SMALL
NO_CHARGES


@<TRIPOS>ATOM
      1 NZ         17.6340   45.2395   37.5600 N.4       3 LYC4        0.0000 
      2 NZ         18.1840   45.9100   36.1940 N.4      11 LYL4        0.0000 
      3 NZ         17.6140   43.3570   38.9480 N.4       7 LYP4        0.0000 
      4 N          17.6340   45.2395   37.5600 N.am      2 SEC2        0.0000 
      5 N          18.1840   45.9100   36.1940 N.am     10 SEL2        0.0000 
      6 N          17.0840   44.5690   38.9260 N.am      6 SEP2        0.0000 
      7 N          18.2475   44.4200   37.0475 N.am      2 SEC2        0.0000 
      8 N          18.3110   42.9300   37.9010 N.am      6 SEP2        0.0000 
      9 CA         17.5035   48.8310   33.0205 C.3       4 GLC5        0.0000 
     10 CA         18.4140   49.2990   34.6070 C.3      12 GLL5        0.0000 
     11 CA         16.5930   48.3630   31.4340 C.3       8 GLP5        0.0000 
     12 CA         20.5405   51.5495   34.8235 C.3       4 GLC5        0.0000 
     13 CA         18.9510   50.4090   35.4310 C.3      12 GLL5        0.0000 
     14 CA         22.1300   52.6900   34.2160 C.3       8 GLP5        0.0000 
     15 CA         20.5930   49.0290   36.0920 C.3       4 GLC5        0.0000 
     16 CA         22.2350   47.6490   36.7530 C.3       8 GLP5        0.0000 
     17 N          20.2540   51.6045   38.0470 N.am      2 SEC2        0.0000 
     18 N          19.4340   50.6940   37.7950 N.am     10 SEL2        0.0000 
     19 N          21.0740   52.5150   38.2990 N.am      6 SEP2        0.0000 
     20 O          19.3095   52.0325   38.4270 O.2       1 ALC1        0.0000 
     21 O          19.4340   50.6940   37.7950 O.2       9 ALL1        0.0000 
     22 O          19.1850   53.3710   39.0590 O.2       5 ALP1        0.0000 
     23 O          18.2850   52.7165   38.5900 O.2       1 ALC1        0.0000 
     24 O          17.3850   52.0620   38.1210 O.2       9 ALL1        0.0000 
     25 CA         20.1385   52.5985   35.0625 C.3       4 GLC5        0.0000 
     26 CA         18.1470   52.5070   35.9090 C.3      12 GLL5        0.0000 
     27 CA         17.6050   54.4365   36.7240 C.3       4 GLC5        0.0000 
     28 CA         17.0630   56.3660   37.5390 C.3       8 GLP5        0.0000 
     29 CA         15.1310   53.8300   32.9280 C.3       4 GLC5        0.0000 
     30 CA         16.7220   54.8720   33.7840 C.3      12 GLL5        0.0000 
     31 CA         13.5400   52.7880   32.0720 C.3       8 GLP5        0.0000 
     32 CA         15.3520   57.5265   32.5855 C.3       4 GLC5        0.0000 
     33 CA         16.8240   56.0390   33.0800 C.3      12 GLL5        0.0000 
     34 CA         13.8800   59.0140   32.0910 C.3       8 GLP5        0.0000 
     35 O          16.7200   57.7710   31.4835 O.2       1 ALC1        0.0000 
     36 O          16.0790   56.3260   32.1340 O.2       9 ALL1        0.0000 
     37 O          17.3610   59.2160   30.8330 O.2       5 ALP1        0.0000 
     38 O          15.0095   55.6940   31.7455 O.2       1 ALC1        0.0000 
     39 O          13.9400   55.0620   31.3570 O.2       5 ALP1        0.0000 
     40 N          18.0980   58.4675   33.3255 N.am      2 SEC2        0.0000 
     41 N          17.9310   56.7630   33.1650 N.am     10 SEL2        0.0000 
     42 N          18.2650   60.1720   33.4860 N.am      6 SEP2        0.0000 
     43 CA         19.9055   56.5615   32.7220 C.3       4 GLC5        0.0000 
     44 CA         18.7580   56.6580   34.0500 C.3      12 GLL5        0.0000 
     45 CA         21.0530   56.4650   31.3940 C.3       8 GLP5        0.0000 
     46 CA         17.9105   56.5120   35.7945 C.3       4 GLC5        0.0000 
     47 CA         18.4135   58.3115   34.9660 C.3       4 GLC5        0.0000 
     48 CA         18.0690   59.9650   35.8820 C.3       8 GLP5        0.0000 
     49 CA         17.4025   55.4965   36.0905 C.3       4 GLC5        0.0000 
     50 CA         17.7420   54.6270   34.6420 C.3      12 GLL5        0.0000 
     51 N          19.6250   37.2360   33.7695 N.am      2 SEC2        0.0000 
     52 N          19.0320   36.3330   34.7610 N.am     10 SEL2        0.0000 
     53 N          20.2180   38.1390   32.7780 N.am      6 SEP2        0.0000 
     54 N          19.7105   37.6050   35.1075 N.am      2 SEC2        0.0000 
     55 N          20.3890   38.8770   35.4540 N.am      6 SEP2        0.0000 
     56 O          18.5335   34.3270   36.4355 O.2       1 ALC1        0.0000 
     57 O          17.3330   35.3220   35.9660 O.2       9 ALL1        0.0000 
     58 O          19.7340   33.3320   36.9050 O.2       5 ALP1        0.0000 
     59 N          17.0535   34.0175   38.3455 N.am      2 SEC2        0.0000 
     60 N          15.8680   34.5080   37.5350 N.am     10 SEL2        0.0000 
     61 N          18.2390   33.5270   39.1560 N.am      6 SEP2        0.0000 
     62 CA          8.2035   39.0980   36.4855 C.3       4 GLC5        0.0000 
     63 CA          9.6270   38.3720   36.9430 C.3      12 GLL5        0.0000 
     64 CA          6.7800   39.8240   36.0280 C.3       8 GLP5        0.0000 
     65 CA         10.5515   39.3860   38.2050 C.3       4 GLC5        0.0000 
     66 CA         11.4760   40.4000   39.4670 C.3       8 GLP5        0.0000 
     67 CA          9.3995   37.5960   35.2965 C.3       4 GLC5        0.0000 
     68 CA          9.1720   36.8200   33.6500 C.3       8 GLP5        0.0000 
     69 CA          8.7405   40.6650   35.1255 C.3       4 GLC5        0.0000 
     70 CA         10.7770   40.7410   35.3770 C.3      12 GLL5        0.0000 
     71 CA          6.7040   40.5890   34.8740 C.3       8 GLP5        0.0000 
     72 CA         11.1265   40.5705   37.4220 C.3       4 GLC5        0.0000 
     73 CA         10.4825   40.3060   33.2570 C.3       4 GLC5        0.0000 
     74 CA         10.1880   39.8710   31.1370 C.3       8 GLP5        0.0000 
     75 O          17.0015   41.5025   31.2725 O.2       1 ALC1        0.0000 
     76 O          17.2390   40.7850   32.4240 O.2       9 ALL1        0.0000 
     77 O          16.7640   42.2200   30.1210 O.2       5 ALP1        0.0000 
     78 O          16.1810   41.9720   31.8410 O.2       1 ALC1        0.0000 
     79 O          15.1230   43.1590   31.2580 O.2       5 ALP1        0.0000 
     80 O          16.3235   40.4440   31.0470 O.2       1 ALC1        0.0000 
     81 O          15.4080   40.1030   29.6700 O.2       5 ALP1        0.0000 
     82 CA         17.6050   43.8860   31.4820 C.3       4 GLC5        0.0000 
     83 CA         18.6480   43.1660   32.9650 C.3      12 GLL5        0.0000 
     84 CA         16.5620   44.6060   29.9990 C.3       8 GLP5        0.0000 
     85 N          22.4430   45.4200   33.7520 N.am      2 SEC2        0.0000 
     86 N          21.0370   45.9390   34.0730 N.am     10 SEL2        0.0000 
     87 N          23.8490   44.9010   33.4310 N.am      6 SEP2        0.0000 
     88 N          19.4220   44.9930   30.3240 N.am      2 SEC2        0.0000 
     89 N          20.0840   45.4780   31.7470 N.am     10 SEL2        0.0000 
     90 N          18.7600   44.5080   28.9010 N.am      6 SEP2        0.0000 
     91 CA         18.6613   50.7015   33.2765 C.3       4 GLC5        0.0000 
     92 CA         18.6400   51.5490   31.5340 C.3       8 GLP5        0.0000 
     93 CA         15.5905   55.2972   35.0680 C.3       4 GLC5        0.0000 
     94 CA         14.4080   55.1390   36.7040 C.3       8 GLP5        0.0000 
     95 CA         17.7467   54.0191   32.6190 C.3       4 GLC5        0.0000 
     96 CA         18.2360   52.9970   31.2010 C.3       8 GLP5        0.0000 
     97 CA         12.0227   36.6365   35.2165 C.3       4 GLC5        0.0000 
     98 CA         13.2290   37.5340   36.4070 C.3      12 GLL5        0.0000 
     99 CA         11.4530   35.7600   33.7900 C.3       8 GLP5        0.0000 
    100 CA         11.3897   37.4257   35.0153 C.3       4 GLC5        0.0000 
    101 CA         11.0720   38.5280   36.5870 C.3      12 GLL5        0.0000 
    102 CA         10.4322   36.3570   37.5495 C.3       4 GLC5        0.0000 
    103 CA         11.9560   37.4920   36.8790 C.3      12 GLL5        0.0000 
    104 CA         10.2940   34.5230   38.2610 C.3       8 GLP5        0.0000 
    105 CA         12.3700   37.4580   34.6945 C.3       4 GLC5        0.0000 
    106 CA         13.7090   38.6570   35.7460 C.3      12 GLL5        0.0000 
@<TRIPOS>BOND
@<TRIPOS>SUBSTRUCTURE
     1 ALC1       20 GROUP        1 X    ALC  0     ROOT ALC X 1
     2 SEC2        4 GROUP        1 X    SEC  0     **** SEC X 2
     3 LYC4        1 GROUP        1 X    LYC  0     **** LYC X 4
     4 GLC5        9 GROUP        1 X    GLC  0     **** GLC X 6
     5 ALP1       22 GROUP        1 Y    ALP  0     ROOT ALP Y 8
     6 SEP2        6 GROUP        1 Y    SEP  0     **** SEP Y 9
     7 LYP4        3 GROUP        1 Y    LYP  0     **** LYP Y 11
     8 GLP5       11 GROUP        1 Y    GLP  0     **** GLP Y 13
     9 ALL1       21 GROUP        1 Z    ALL  0     ROOT ALL Z 15
    10 SEL2        5 GROUP        1 Z    SEL  0     **** SEL Z 16
    11 LYL4        2 GROUP        1 Z    LYL  0     **** LYL Z 18
    12 GLL5       10 GROUP        1 Z    GLL  0     **** GLL Z 20
@<TRIPOS>SET

