#    Name: 3c4a_FAD_1_ligand
#    Modification time : Mon Mar 24 20:29:47 2014

@<TRIPOS>MOLECULE
3c4a_FAD_1_ligand
   84    89     1     0     0
SMALL
NO_CHARGES


@<TRIPOS>ATOM
      1 PA         17.9910   46.7240   34.9680 P.3       1 FAD401      0.0000 
      2 O1A        18.1840   45.9100   36.1940 O.co2     1 FAD401      0.0000 
      3 O2A        16.5840   47.1150   34.6530 O.co2     1 FAD401      0.0000 
      4 O5B        18.8280   48.0700   35.2060 O.3       1 FAD401      0.0000 
      5 C5B        18.4140   49.2990   34.6070 C.3       1 FAD401      0.0000 
      6 C4B        18.9510   50.4090   35.4310 C.3       1 FAD401      0.0000 
      7 O4B        18.6710   51.6880   34.8690 O.3       1 FAD401      0.0000 
      8 C3B        18.4250   50.3920   36.8370 C.3       1 FAD401      0.0000 
      9 O3B        19.4340   50.6940   37.7950 O.3       1 FAD401      0.0000 
     10 C2B        17.4710   51.5400   36.8090 C.3       1 FAD401      0.0000 
     11 O2B        17.3850   52.0620   38.1210 O.3       1 FAD401      0.0000 
     12 C1B        18.1470   52.5070   35.9090 C.3       1 FAD401      0.0000 
     13 N9A        17.2610   53.4420   35.2040 N.pl3     1 FAD401      0.0000 
     14 C8A        16.2790   52.9680   34.4530 C.2       1 FAD401      0.0000 
     15 N7A        15.7950   54.0050   33.6240 N.2       1 FAD401      0.0000 
     16 C5A        16.7220   54.8720   33.7840 C.ar      1 FAD401      0.0000 
     17 C6A        16.8240   56.0390   33.0800 C.ar      1 FAD401      0.0000 
     18 N6A        16.0790   56.3260   32.1340 N.pl3     1 FAD401      0.0000 
     19 N1A        17.9310   56.7630   33.1650 N.ar      1 FAD401      0.0000 
     20 C2A        18.7580   56.6580   34.0500 C.ar      1 FAD401      0.0000 
     21 N3A        18.8290   55.5030   34.8680 N.ar      1 FAD401      0.0000 
     22 C4A        17.7420   54.6270   34.6420 C.ar      1 FAD401      0.0000 
     23 N1         17.0780   37.4200   35.0270 N.2       1 FAD401      0.0000 
     24 C2         17.8750   36.3150   35.1630 C.2       1 FAD401      0.0000 
     25 O2         19.0320   36.3330   34.7610 O.2       1 FAD401      0.0000 
     26 N3         17.3330   35.3220   35.9660 N.am      1 FAD401      0.0000 
     27 C4         16.1100   35.3760   36.6710 C.2       1 FAD401      0.0000 
     28 O4         15.8680   34.5080   37.5350 O.2       1 FAD401      0.0000 
     29 C4X        15.3160   36.5270   36.2970 C.2       1 FAD401      0.0000 
     30 N5         14.0570   36.5300   36.8090 N.2       1 FAD401      0.0000 
     31 C5X        13.2290   37.5340   36.4070 C.ar      1 FAD401      0.0000 
     32 C6         11.9560   37.4920   36.8790 C.ar      1 FAD401      0.0000 
     33 C7         11.0720   38.5280   36.5870 C.ar      1 FAD401      0.0000 
     34 C7M         9.6270   38.3720   36.9430 C.3       1 FAD401      0.0000 
     35 C8         11.5810   39.6550   35.8940 C.ar      1 FAD401      0.0000 
     36 C8M        10.7770   40.7410   35.3770 C.3       1 FAD401      0.0000 
     37 C9         12.8650   39.6550   35.4520 C.ar      1 FAD401      0.0000 
     38 C9A        13.7090   38.6570   35.7460 C.ar      1 FAD401      0.0000 
     39 N10        14.9880   38.6810   35.2440 N.pl3     1 FAD401      0.0000 
     40 C10        15.7780   37.5910   35.4970 C.2       1 FAD401      0.0000 
     41 C1'        15.3910   39.4840   34.4020 C.3       1 FAD401      0.0000 
     42 C2'        15.9220   40.8460   34.5690 C.3       1 FAD401      0.0000 
     43 O2'        16.4100   40.9040   35.8820 O.3       1 FAD401      0.0000 
     44 C3'        16.7570   41.5830   33.4970 C.3       1 FAD401      0.0000 
     45 O3'        17.2390   40.7850   32.4240 O.3       1 FAD401      0.0000 
     46 C4'        17.8180   42.5070   34.0440 C.3       1 FAD401      0.0000 
     47 O4'        18.6660   41.8680   34.9640 O.3       1 FAD401      0.0000 
     48 C5'        18.6480   43.1660   32.9650 C.3       1 FAD401      0.0000 
     49 O5'        19.7340   43.8960   33.5240 O.3       1 FAD401      0.0000 
     50 P          19.9540   45.4150   33.2220 P.3       1 FAD401      0.0000 
     51 O1P        21.0370   45.9390   34.0730 O.co2     1 FAD401      0.0000 
     52 O2P        20.0840   45.4780   31.7470 O.co2     1 FAD401      0.0000 
     53 O3P        18.6000   46.0510   33.6820 O.3       1 FAD401      0.0000 
     54 H          17.3245   49.3757   34.5719 H         1 FAD401      0.0000 
     55 H          18.7984   49.3928   33.5884 H         1 FAD401      0.0000 
     56 H          20.0509   50.2847   35.5040 H         1 FAD401      0.0000 
     57 H          17.8993   49.5122   37.0145 H         1 FAD401      0.0000 
     58 H          16.5643   51.2319   36.4029 H         1 FAD401      0.0000 
     59 H          18.9293   53.0067   36.4043 H         1 FAD401      0.0000 
     60 H          15.9180   52.0761   34.4361 H         1 FAD401      0.0000 
     61 H          15.4043   55.6332   31.8794 H         1 FAD401      0.0000 
     62 H          16.2241   57.2228   31.7161 H         1 FAD401      0.0000 
     63 H          19.4855   57.4031   34.2863 H         1 FAD401      0.0000 
     64 H          17.8954   34.4124   36.0686 H         1 FAD401      0.0000 
     65 H          11.6290   36.6995   37.4551 H         1 FAD401      0.0000 
     66 H          13.1979   40.4630   34.8641 H         1 FAD401      0.0000 
     67 H          14.5755   39.6274   33.5083 H         1 FAD401      0.0000 
     68 H          16.2134   38.9696   33.6649 H         1 FAD401      0.0000 
     69 H          14.9198   41.5100   34.6362 H         1 FAD401      0.0000 
     70 H          15.9788   42.3243   33.0167 H         1 FAD401      0.0000 
     71 H          17.2795   43.3403   34.5675 H         1 FAD401      0.0000 
     72 H          17.9811   43.8207   32.3764 H         1 FAD401      0.0000 
     73 H          19.0023   42.3758   32.2795 H         1 FAD401      0.0000 
     74 H           9.4988   38.2401   37.9259 H         1 FAD401      0.0000 
     75 H           9.0916   39.1755   36.6828 H         1 FAD401      0.0000 
     76 H           9.2147   37.5843   36.4853 H         1 FAD401      0.0000 
     77 H          11.3370   41.4349   34.9244 H         1 FAD401      0.0000 
     78 H          10.1079   40.4211   34.7062 H         1 FAD401      0.0000 
     79 H          10.2669   41.2034   36.1023 H         1 FAD401      0.0000 
     80 H          18.9866   51.2886   38.4631 H         1 FAD401      0.0000 
     81 H          17.9279   52.9016   38.1015 H         1 FAD401      0.0000 
     82 H          17.3235   41.3028   35.8011 H         1 FAD401      0.0000 
     83 H          16.6705   41.0349   31.6401 H         1 FAD401      0.0000 
     84 H          19.4891   42.4350   34.9942 H         1 FAD401      0.0000 
@<TRIPOS>BOND
     1    2    1 ar   
     2    3    1 ar   
     3    4    1 1    
     4   53    1 1    
     5    5    4 1    
     6    6    5 1    
     7   54    5 1    
     8   55    5 1    
     9    7    6 1    
    10    8    6 1    
    11   56    6 1    
    12   12    7 1    
    13    9    8 1    
    14   10    8 1    
    15   57    8 1    
    16   80    9 1    
    17   11   10 1    
    18   12   10 1    
    19   58   10 1    
    20   81   11 1    
    21   13   12 1    
    22   59   12 1    
    23   14   13 1    
    24   22   13 1    
    25   15   14 2    
    26   60   14 1    
    27   16   15 1    
    28   17   16 ar   
    29   22   16 ar   
    30   18   17 1    
    31   19   17 ar   
    32   61   18 1    
    33   62   18 1    
    34   20   19 ar   
    35   21   20 ar   
    36   63   20 1    
    37   22   21 ar   
    38   24   23 1    
    39   40   23 2    
    40   25   24 2    
    41   26   24 am   
    42   27   26 am   
    43   64   26 1    
    44   28   27 2    
    45   29   27 1    
    46   30   29 2    
    47   40   29 1    
    48   31   30 1    
    49   32   31 ar   
    50   38   31 ar   
    51   33   32 ar   
    52   65   32 1    
    53   34   33 1    
    54   35   33 ar   
    55   74   34 1    
    56   75   34 1    
    57   76   34 1    
    58   36   35 1    
    59   37   35 ar   
    60   77   36 1    
    61   78   36 1    
    62   79   36 1    
    63   38   37 ar   
    64   66   37 1    
    65   39   38 1    
    66   40   39 1    
    67   41   39 1    
    68   42   41 1    
    69   67   41 1    
    70   68   41 1    
    71   43   42 1    
    72   44   42 1    
    73   69   42 1    
    74   82   43 1    
    75   45   44 1    
    76   46   44 1    
    77   70   44 1    
    78   83   45 1    
    79   47   46 1    
    80   48   46 1    
    81   71   46 1    
    82   84   47 1    
    83   49   48 1    
    84   72   48 1    
    85   73   48 1    
    86   50   49 1    
    87   51   50 ar   
    88   52   50 ar   
    89   53   50 1    
@<TRIPOS>SUBSTRUCTURE
     1 FAD401      1 GROUP   
@<TRIPOS>SET

