#    Name: 2O2Z_4_CAVITY_N1_6.mol2
#    Modification time : Tue Mar 11 01:34:20 2014

@<TRIPOS>MOLECULE
2O2Z_4_CAVITY_N1_6.mol2
   87     0     6     0     0
SMALL
NO_CHARGES


@<TRIPOS>ATOM
      1 O          59.7088   71.2652  155.6550 O.2       2 ALA2        0.0000 
      2 O          58.6068   69.6275  156.4320 O.2       2 ALA2        0.0000 
      3 CA         57.6272   68.6435  155.8644 C.3       5 GLY6        0.0000 
      4 CA         56.6477   67.6594  155.2968 C.3       5 GLY6        0.0000 
      5 O          56.7701   68.3131  153.9523 O.2       2 ALA2        0.0000 
      6 OG         55.7905   67.3291  153.3847 O.2       1 SER1        0.0000 
      7 CZ         63.6687   63.4208  150.5282 C.ar      4 PHE5        0.0000 
      8 CA         63.7911   64.0745  149.1837 C.3       5 GLY6        0.0000 
      9 CZ         64.3761   65.6595  153.3545 C.ar      4 PHE5        0.0000 
     10 CZ         63.5189   65.3292  151.4424 C.ar      4 PHE5        0.0000 
     11 CZ         62.4170   63.6915  152.2193 C.ar      4 PHE5        0.0000 
     12 CZ         62.5393   64.3452  150.8748 C.ar      4 PHE5        0.0000 
     13 N          62.6617   64.9989  149.5303 N.2       2 ALA2        0.0000 
     14 DU         61.4374   62.7074  151.6517 H         6 CUB7        0.0000 
     15 NZ         61.5598   63.3611  150.3072 N.2       3 LYS4        0.0000 
     16 NZ         61.6822   64.0148  148.9627 N.2       3 LYS4        0.0000 
     17 N          64.1039   66.9142  155.6132 N.2       2 ALA2        0.0000 
     18 CA         64.2262   67.5679  154.2687 C.3       5 GLY6        0.0000 
     19 N          63.1243   65.9302  155.0456 N.2       2 ALA2        0.0000 
     20 CA         63.2467   66.5838  153.7011 C.3       5 GLY6        0.0000 
     21 CA         63.3691   67.2375  152.3566 C.3       5 GLY6        0.0000 
     22 O          62.1447   64.9461  154.4780 O.2       2 ALA2        0.0000 
     23 CZ         62.2671   65.5998  153.1335 C.ar      4 PHE5        0.0000 
     24 CA         62.3895   66.2535  151.7890 C.3       5 GLY6        0.0000 
     25 O          62.7023   69.0932  158.2185 O.2       2 ALA2        0.0000 
     26 CA         62.8247   69.7469  156.8740 C.3       5 GLY6        0.0000 
     27 O          61.6003   67.4555  158.9954 O.2       2 ALA2        0.0000 
     28 O          61.7227   68.1092  157.6509 O.2       2 ALA2        0.0000 
     29 DU         61.8451   68.7628  156.3064 H         6 CUB7        0.0000 
     30 O          61.9675   69.4165  154.9619 O.2       2 ALA2        0.0000 
     31 CA         62.0899   70.0702  153.6174 C.3       5 GLY6        0.0000 
     32 O          60.6208   66.4714  158.4278 O.2       2 ALA2        0.0000 
     33 O          60.7432   67.1251  157.0833 O.2       2 ALA2        0.0000 
     34 DU         60.8655   67.7788  155.7388 H         6 CUB7        0.0000 
     35 DU         60.9879   68.4325  154.3943 H         6 CUB7        0.0000 
     36 O          61.1103   69.0862  153.0498 O.2       2 ALA2        0.0000 
     37 O          59.7636   66.1411  156.5157 O.2       2 ALA2        0.0000 
     38 O          59.8860   66.7948  155.1712 O.2       2 ALA2        0.0000 
     39 DU         60.0084   67.4485  153.8267 H         6 CUB7        0.0000 
     40 O          60.1308   68.1022  152.4822 O.2       2 ALA2        0.0000 
     41 OG         58.9064   65.8108  154.6036 O.2       1 SER1        0.0000 
     42 DU         59.0288   66.4645  153.2591 H         6 CUB7        0.0000 
     43 N          59.1512   67.1182  151.9146 N.2       2 ALA2        0.0000 
     44 OG         57.9269   64.8268  154.0360 O.2       1 SER1        0.0000 
     45 N          58.0493   65.4804  152.6915 N.2       2 ALA2        0.0000 
     46 N          62.5119   66.9072  150.4445 N.2       2 ALA2        0.0000 
     47 O          61.1652   63.9621  153.9104 O.2       2 ALA2        0.0000 
     48 DU         61.2876   64.6158  152.5659 H         6 CUB7        0.0000 
     49 CA         61.4100   65.2695  151.2214 C.3       5 GLY6        0.0000 
     50 DU         60.3080   63.6318  151.9983 H         6 CUB7        0.0000 
     51 N          60.4304   64.2855  150.6538 N.2       2 ALA2        0.0000 
     52 CA         60.5528   64.9392  149.3093 C.3       5 GLY6        0.0000 
     53 O          61.6953   70.6712  157.2206 O.2       2 ALA2        0.0000 
     54 CA         61.8177   71.3249  155.8761 C.3       5 GLY6        0.0000 
     55 O          60.4709   68.3798  159.3420 O.2       2 ALA2        0.0000 
     56 O          60.5933   69.0335  157.9975 O.2       2 ALA2        0.0000 
     57 CA         60.7157   69.6872  156.6530 C.3       5 GLY6        0.0000 
     58 O          60.8381   70.3409  155.3085 O.2       2 ALA2        0.0000 
     59 CA         59.4914   67.3958  158.7744 C.3       5 GLY6        0.0000 
     60 CA         59.6138   68.0495  157.4299 C.3       5 GLY6        0.0000 
     61 DU         59.7362   68.7032  156.0854 H         6 CUB7        0.0000 
     62 O          59.8586   69.3568  154.7409 O.2       2 ALA2        0.0000 
     63 O          58.6342   67.0654  156.8623 O.2       2 ALA2        0.0000 
     64 DU         58.7566   67.7191  155.5178 H         6 CUB7        0.0000 
     65 CA         58.8790   68.3728  154.1733 C.3       5 GLY6        0.0000 
     66 OG         57.7771   66.7351  154.9502 O.2       1 SER1        0.0000 
     67 O          57.8995   67.3888  153.6057 O.2       2 ALA2        0.0000 
     68 OG         58.0218   68.0425  152.2612 O.2       1 SER1        0.0000 
     69 OG         56.7975   65.7511  154.3826 O.2       1 SER1        0.0000 
     70 OG         56.9199   66.4048  153.0381 O.2       1 SER1        0.0000 
     71 CA         63.9540   68.8225  156.5274 C.3       5 GLY6        0.0000 
     72 N          62.8521   67.1848  157.3043 N.2       2 ALA2        0.0000 
     73 N          62.9745   67.8385  155.9598 N.2       2 ALA2        0.0000 
     74 O          63.0969   68.4922  154.6153 O.2       2 ALA2        0.0000 
     75 O          63.2193   69.1459  153.2708 O.2       2 ALA2        0.0000 
     76 O          61.9949   66.8545  155.3922 O.2       2 ALA2        0.0000 
     77 DU         62.1173   67.5082  154.0477 H         6 CUB7        0.0000 
     78 N          62.2397   68.1619  152.7032 N.2       2 ALA2        0.0000 
     79 O          61.0154   65.8705  154.8246 O.2       2 ALA2        0.0000 
     80 DU         61.1378   66.5242  153.4801 H         6 CUB7        0.0000 
     81 CA         61.2602   67.1778  152.1356 C.3       5 GLY6        0.0000 
     82 O          60.0358   64.8864  154.2570 O.2       2 ALA2        0.0000 
     83 DU         60.1582   65.5401  152.9125 H         6 CUB7        0.0000 
     84 N          60.2806   66.1938  151.5680 N.2       2 ALA2        0.0000 
     85 O          59.0562   63.9024  153.6894 O.2       2 ALA2        0.0000 
     86 DU         59.1786   64.5561  152.3449 H         6 CUB7        0.0000 
     87 N          59.3010   65.2098  151.0004 N.2       2 ALA2        0.0000 
@<TRIPOS>BOND
@<TRIPOS>SUBSTRUCTURE
     1 SER1        6 GROUP   
     2 ALA2        1 GROUP   
     3 LYS4       15 GROUP   
     4 PHE5        7 GROUP   
     5 GLY6        3 GROUP   
     6 CUB7       14 GROUP   
@<TRIPOS>SET

