#    Name: 2o2z_NAD_4_INTS_M
#    Modification time : Tue Mar 25 21:57:22 2014

@<TRIPOS>MOLECULE
2o2z_NAD_4_INTS_M
   71     0    12     0     0
SMALL
NO_CHARGES


@<TRIPOS>ATOM
      1 NZ         62.0000   64.1005  155.6750 N.4       3 LYC4        0.0000 
      2 NZ         62.5790   64.2250  154.2620 N.4      11 LYL4        0.0000 
      3 NZ         60.6040   63.0320  157.5240 N.4       7 LYP4        0.0000 
      4 N          63.6675   63.4515  154.4890 N.am      2 SEC2        0.0000 
      5 N          62.5790   64.2250  154.2620 N.am     10 SEL2        0.0000 
      6 N          64.7560   62.6780  154.7160 N.am      6 SEP2        0.0000 
      7 N          62.0000   64.1005  155.6750 N.am      2 SEC2        0.0000 
      8 N          61.4210   63.9760  157.0880 N.am      6 SEP2        0.0000 
      9 CA         66.8730   57.5685  153.0425 C.3       4 GLC5        0.0000 
     10 CA         65.4440   58.7350  152.9210 C.3      12 GLL5        0.0000 
     11 CA         68.3020   56.4020  153.1640 C.3       8 GLP5        0.0000 
     12 CA         64.5700   58.4670  154.8995 C.3       4 GLC5        0.0000 
     13 CA         63.6960   58.1990  156.8780 C.3       8 GLP5        0.0000 
     14 N          66.0055   56.2445  154.0420 N.am      2 SEC2        0.0000 
     15 N          65.3790   57.6290  153.7610 N.am     10 SEL2        0.0000 
     16 N          66.6320   54.8600  154.3230 N.am      6 SEP2        0.0000 
     17 CA         65.7080   56.1485  153.5350 C.3       4 GLC5        0.0000 
     18 CA         64.1590   57.0450  154.0610 C.3      12 GLL5        0.0000 
     19 CA         67.2570   55.2520  153.0090 C.3       8 GLP5        0.0000 
     20 CA         63.9275   57.6220  155.4695 C.3       4 GLC5        0.0000 
     21 CA         63.3715   58.4360  154.7925 C.3       4 GLC5        0.0000 
     22 CA         63.0470   58.6730  152.7070 C.3      12 GLL5        0.0000 
     23 N          60.7260   64.1080  155.5190 N.am      2 SEC2        0.0000 
     24 N          60.0310   64.2400  153.9500 N.am     10 SEL2        0.0000 
     25 N          60.0625   63.1985  155.3020 N.am      2 SEC2        0.0000 
     26 N          60.0940   62.1570  156.6540 N.am      6 SEP2        0.0000 
     27 N          57.4155   64.3115  155.8775 N.am      2 SEC2        0.0000 
     28 N          57.5560   64.4010  154.3620 N.am     10 SEL2        0.0000 
     29 N          57.2750   64.2220  157.3930 N.am      6 SEP2        0.0000 
     30 CA         57.8090   69.7635  153.8675 C.3       4 GLC5        0.0000 
     31 CA         59.2850   68.6170  152.7170 C.3      12 GLL5        0.0000 
     32 CA         56.3330   70.9100  155.0180 C.3       8 GLP5        0.0000 
     33 N          59.6775   70.5480  153.4095 N.am      2 SEC2        0.0000 
     34 N          59.3160   69.0200  154.0780 N.am     10 SEL2        0.0000 
     35 N          60.0390   72.0760  152.7410 N.am      6 SEP2        0.0000 
     36 N          60.6155   70.7515  152.0905 N.am      2 SEC2        0.0000 
     37 N          61.1920   69.4270  151.4400 N.am     10 SEL2        0.0000 
     38 N          61.5865   70.7990  150.4820 N.am      2 SEC2        0.0000 
     39 N          61.9810   72.1710  149.5240 N.am      6 SEP2        0.0000 
     40 O          62.5710   69.8290  151.0930 O.2       1 ALC1        0.0000 
     41 O          61.1920   69.4270  151.4400 O.2       9 ALL1        0.0000 
     42 O          63.9500   70.2310  150.7460 O.2       5 ALP1        0.0000 
     43 N          64.2700   69.3540  153.2560 N.am      2 SEC2        0.0000 
     44 N          62.8790   68.7400  153.5620 N.am     10 SEL2        0.0000 
     45 N          65.6610   69.9680  152.9500 N.am      6 SEP2        0.0000 
     46 CA         61.4715   71.0660  153.6485 C.3       4 GLC5        0.0000 
     47 CA         60.6630   69.3020  154.3950 C.3      12 GLL5        0.0000 
     48 CA         62.2800   72.8300  152.9020 C.3       8 GLP5        0.0000 
     49 CA         58.8890   67.9390  158.5420 C.3       4 GLC5        0.0000 
     50 CA         60.9690   68.0200  157.8690 C.3      12 GLL5        0.0000 
     51 CA         56.8090   67.8580  159.2150 C.3       8 GLP5        0.0000 
     52 N          61.7135   67.5990  160.9400 N.am      2 SEC2        0.0000 
     53 N          60.2890   67.7540  160.2630 N.am     10 SEL2        0.0000 
     54 N          63.1380   67.4440  161.6170 N.am      6 SEP2        0.0000 
     55 CA         62.7675   67.0595  159.4455 C.3       4 GLC5        0.0000 
     56 CA         62.0090   68.8110  158.3120 C.3      12 GLL5        0.0000 
     57 CA         63.5260   65.3080  160.5790 C.3       8 GLP5        0.0000 
     58 CA         62.4230   71.4850  155.2580 C.3       4 GLC5        0.0000 
     59 CA         62.0900   69.8810  156.1940 C.3      12 GLL5        0.0000 
     60 CA         62.7560   73.0890  154.3220 C.3       8 GLP5        0.0000 
     61 CA         57.6688   69.4958  151.9290 C.3       4 GLC5        0.0000 
     62 CA         56.4900   70.9950  151.2040 C.3       8 GLP5        0.0000 
     63 CA         60.2862   68.1333  150.5115 C.3       4 GLC5        0.0000 
     64 CA         60.5620   67.7670  148.5300 C.3       8 GLP5        0.0000 
     65 CA         62.5507   69.9970  159.6540 C.3       4 GLC5        0.0000 
     66 CA         62.5760   69.7430  157.4660 C.3      12 GLL5        0.0000 
     67 CA         62.8090   70.7170  161.4190 C.3       8 GLP5        0.0000 
     68 CA         60.4433   70.4846  158.2191 C.3       4 GLC5        0.0000 
     69 CA         58.8540   71.8900  158.6600 C.3       8 GLP5        0.0000 
     70 CA         63.9911   70.2005  157.2428 C.3       4 GLC5        0.0000 
     71 CA         65.7910   70.8220  157.4440 C.3       8 GLP5        0.0000 
@<TRIPOS>BOND
@<TRIPOS>SUBSTRUCTURE
     1 ALC1       40 GROUP        1 X    ALC  0     ROOT ALC X 1
     2 SEC2        4 GROUP        1 X    SEC  0     **** SEC X 2
     3 LYC4        1 GROUP        1 X    LYC  0     **** LYC X 4
     4 GLC5        9 GROUP        1 X    GLC  0     **** GLC X 6
     5 ALP1       42 GROUP        1 Y    ALP  0     ROOT ALP Y 8
     6 SEP2        6 GROUP        1 Y    SEP  0     **** SEP Y 9
     7 LYP4        3 GROUP        1 Y    LYP  0     **** LYP Y 11
     8 GLP5       11 GROUP        1 Y    GLP  0     **** GLP Y 13
     9 ALL1       41 GROUP        1 Z    ALL  0     ROOT ALL Z 15
    10 SEL2        5 GROUP        1 Z    SEL  0     **** SEL Z 16
    11 LYL4        2 GROUP        1 Z    LYL  0     **** LYL Z 18
    12 GLL5       10 GROUP        1 Z    GLL  0     **** GLL Z 20
@<TRIPOS>SET

