#    Name: 2o2z_NAD_4_ligand
#    Modification time : Tue Mar 25 21:57:22 2014

@<TRIPOS>MOLECULE
2o2z_NAD_4_ligand
   70    74     1     0     0
SMALL
NO_CHARGES


@<TRIPOS>ATOM
      1 PA         61.5000   64.0600  153.2530 P.3       1 NAD400      0.0000 
      2 O1A        62.5790   64.2250  154.2620 O.co2     1 NAD400      0.0000 
      3 O2A        61.7250   65.0270  152.1440 O.co2     1 NAD400      0.0000 
      4 O5B        61.4210   62.5280  152.7200 O.3       1 NAD400      0.0000 
      5 C5B        60.4780   62.2890  151.6800 C.3       1 NAD400      0.0000 
      6 C4B        59.4840   61.1510  151.9380 C.3       1 NAD400      0.0000 
      7 O4B        59.9230   60.0250  151.2070 O.3       1 NAD400      0.0000 
      8 C3B        59.3650   60.7420  153.4030 C.3       1 NAD400      0.0000 
      9 O3B        58.0230   60.7080  153.8430 O.3       1 NAD400      0.0000 
     10 C2B        60.0030   59.3710  153.4490 C.3       1 NAD400      0.0000 
     11 O2B        59.0280   58.3830  153.7030 O.3       1 NAD400      0.0000 
     12 C1B        60.6170   59.1470  152.0710 C.3       1 NAD400      0.0000 
     13 N9A        62.0800   59.4060  152.0540 N.pl3     1 NAD400      0.0000 
     14 C8A        62.7270   60.3910  151.3570 C.2       1 NAD400      0.0000 
     15 N7A        64.0520   60.3040  151.5810 N.2       1 NAD400      0.0000 
     16 C5A        64.2710   59.2600  152.3990 C.ar      1 NAD400      0.0000 
     17 C6A        65.4440   58.7350  152.9210 C.ar      1 NAD400      0.0000 
     18 N6A        66.5690   59.0040  152.2620 N.pl3     1 NAD400      0.0000 
     19 N1A        65.3790   57.6290  153.7610 N.ar      1 NAD400      0.0000 
     20 C2A        64.1590   57.0450  154.0610 C.ar      1 NAD400      0.0000 
     21 N3A        62.9960   57.5820  153.5290 N.ar      1 NAD400      0.0000 
     22 C4A        63.0470   58.6730  152.7070 C.ar      1 NAD400      0.0000 
     23 O3         60.0310   64.2400  153.9500 O.3       1 NAD400      0.0000 
     24 PN         58.5990   64.8140  153.3870 P.3       1 NAD400      0.0000 
     25 O1N        58.3410   64.5110  151.9560 O.co2     1 NAD400      0.0000 
     26 O2N        57.5560   64.4010  154.3620 O.co2     1 NAD400      0.0000 
     27 O5D        58.7790   66.4200  153.5670 O.3       1 NAD400      0.0000 
     28 C5D        58.4100   67.3760  152.5910 C.3       1 NAD400      0.0000 
     29 C4D        59.2850   68.6170  152.7170 C.3       1 NAD400      0.0000 
     30 O4D        59.3160   69.0200  154.0780 O.3       1 NAD400      0.0000 
     31 C3D        60.7360   68.3820  152.2690 C.3       1 NAD400      0.0000 
     32 O3D        61.1920   69.4270  151.4400 O.3       1 NAD400      0.0000 
     33 C2D        61.5110   68.3470  153.5760 C.3       1 NAD400      0.0000 
     34 O2D        62.8790   68.7400  153.5620 O.3       1 NAD400      0.0000 
     35 C1D        60.6630   69.3020  154.3950 C.3       1 NAD400      0.0000 
     36 N1N        61.0660   69.0910  155.7790 N.pl3     1 NAD400      0.0000 
     37 C2N        60.4840   68.1500  156.5750 C.ar      1 NAD400      0.0000 
     38 C3N        60.9690   68.0200  157.8690 C.ar      1 NAD400      0.0000 
     39 C7N        60.1890   67.3130  158.9170 C.2       1 NAD400      0.0000 
     40 O7N        60.2890   67.7540  160.2630 O.2       1 NAD400      0.0000 
     41 N7N        59.4280   66.2880  158.5280 N.am      1 NAD400      0.0000 
     42 C4N        62.0090   68.8110  158.3120 C.ar      1 NAD400      0.0000 
     43 C5N        62.5760   69.7430  157.4660 C.ar      1 NAD400      0.0000 
     44 C6N        62.0900   69.8810  156.1940 C.ar      1 NAD400      0.0000 
     45 H          60.9931   62.0585  150.7115 H         1 NAD400      0.0000 
     46 H          59.8729   63.2074  151.4632 H         1 NAD400      0.0000 
     47 H          58.5087   61.4678  151.5891 H         1 NAD400      0.0000 
     48 H          59.9851   61.4089  153.9742 H         1 NAD400      0.0000 
     49 H          60.7889   59.3826  154.1658 H         1 NAD400      0.0000 
     50 H          60.4201   58.1165  151.7983 H         1 NAD400      0.0000 
     51 H          62.2871   61.0447  150.7923 H         1 NAD400      0.0000 
     52 H          66.4804   59.6038  151.4667 H         1 NAD400      0.0000 
     53 H          67.4012   58.5821  152.6216 H         1 NAD400      0.0000 
     54 H          64.1153   56.2217  154.6718 H         1 NAD400      0.0000 
     55 H          57.3633   67.6943  152.7017 H         1 NAD400      0.0000 
     56 H          58.5286   66.9877  151.5691 H         1 NAD400      0.0000 
     57 H          58.8676   69.4002  152.0997 H         1 NAD400      0.0000 
     58 H          60.7871   67.4180  151.8263 H         1 NAD400      0.0000 
     59 H          61.3441   67.3652  154.0153 H         1 NAD400      0.0000 
     60 H          60.9523   70.2989  154.0733 H         1 NAD400      0.0000 
     61 H          59.7250   67.5615  156.2456 H         1 NAD400      0.0000 
     62 H          58.9183   65.8196  159.2497 H         1 NAD400      0.0000 
     63 H          59.4359   66.0805  157.5498 H         1 NAD400      0.0000 
     64 H          62.3632   68.7063  159.2753 H         1 NAD400      0.0000 
     65 H          63.3581   70.3271  157.7944 H         1 NAD400      0.0000 
     66 H          62.5028   70.5833  155.5569 H         1 NAD400      0.0000 
     67 H          57.5224   61.2773  153.1908 H         1 NAD400      0.0000 
     68 H          58.1764   58.8890  153.8397 H         1 NAD400      0.0000 
     69 H          62.0802   69.6881  151.8179 H         1 NAD400      0.0000 
     70 H          63.1151   68.8895  154.5222 H         1 NAD400      0.0000 
@<TRIPOS>BOND
     1    2    1 ar   
     2    3    1 ar   
     3    4    1 1    
     4   23    1 1    
     5    5    4 1    
     6    6    5 1    
     7   45    5 1    
     8   46    5 1    
     9    7    6 1    
    10    8    6 1    
    11   47    6 1    
    12   12    7 1    
    13    9    8 1    
    14   10    8 1    
    15   48    8 1    
    16   67    9 1    
    17   11   10 1    
    18   12   10 1    
    19   49   10 1    
    20   68   11 1    
    21   13   12 1    
    22   50   12 1    
    23   14   13 1    
    24   22   13 1    
    25   15   14 2    
    26   51   14 1    
    27   16   15 1    
    28   17   16 ar   
    29   22   16 ar   
    30   18   17 1    
    31   19   17 ar   
    32   52   18 1    
    33   53   18 1    
    34   20   19 ar   
    35   21   20 ar   
    36   54   20 1    
    37   22   21 ar   
    38   24   23 1    
    39   25   24 ar   
    40   26   24 ar   
    41   27   24 1    
    42   28   27 1    
    43   29   28 1    
    44   55   28 1    
    45   56   28 1    
    46   30   29 1    
    47   31   29 1    
    48   57   29 1    
    49   35   30 1    
    50   32   31 1    
    51   33   31 1    
    52   58   31 1    
    53   69   32 1    
    54   34   33 1    
    55   35   33 1    
    56   59   33 1    
    57   70   34 1    
    58   36   35 1    
    59   60   35 1    
    60   37   36 ar   
    61   44   36 ar   
    62   38   37 ar   
    63   61   37 1    
    64   39   38 1    
    65   42   38 ar   
    66   40   39 2    
    67   41   39 am   
    68   62   41 1    
    69   63   41 1    
    70   43   42 ar   
    71   64   42 1    
    72   44   43 ar   
    73   65   43 1    
    74   66   44 1    
@<TRIPOS>SUBSTRUCTURE
     1 NAD400      1 GROUP   
@<TRIPOS>SET

