#    Name: 3hu2_AGS_1_INTS_M
#    Modification time : Tue Mar 25 15:01:19 2014

@<TRIPOS>MOLECULE
3hu2_AGS_1_INTS_M
   88     0    15     0     0
SMALL
NO_CHARGES


@<TRIPOS>ATOM
      1 CA         -4.4900   42.2965   -4.3905 C.3       5 GLC5        0.0000 
      2 CA         -3.5070   42.9940   -5.5860 C.3      15 GLL5        0.0000 
      3 CA         -5.4730   41.5990   -3.1950 C.3      10 GLP5        0.0000 
      4 CA         -5.3370   43.9435   -4.9385 C.3       5 GLC5        0.0000 
      5 CA         -7.1670   44.8930   -4.2910 C.3      10 GLP5        0.0000 
      6 CA         -3.7790   42.1015   -6.9635 C.3       5 GLC5        0.0000 
      7 CA         -4.0510   41.2090   -8.3410 C.3      10 GLP5        0.0000 
      8 Zn         -1.4630   46.0365   -5.2375 Zn        4 ZIC7        0.0000 
      9 Zn         -1.6770   45.1580   -5.3090 Zn       14 ZIL7        0.0000 
     10 Zn         -1.2490   46.9150   -5.1660 Zn        9 ZIP7        0.0000 
     11 NZ         -2.8065   44.1570   -2.1480 N.4       3 LYC4        0.0000 
     12 NZ         -2.0500   43.6630   -3.2180 N.4      13 LYL4        0.0000 
     13 NZ         -3.5630   44.6510   -1.0780 N.4       8 LYP4        0.0000 
     14 N          -2.8065   44.1570   -2.1480 N.am      2 SEC2        0.0000 
     15 N          -2.0500   43.6630   -3.2180 N.am     12 SEL2        0.0000 
     16 N          -3.5630   44.6510   -1.0780 N.am      7 SEP2        0.0000 
     17 N          -1.4635   42.5010   -3.5175 N.am      2 SEC2        0.0000 
     18 N          -0.8770   41.3390   -3.8170 N.am      7 SEP2        0.0000 
     19 Zn         -1.9635   47.1905   -4.6415 Zn        4 ZIC7        0.0000 
     20 Zn         -2.6780   47.4660   -4.1170 Zn       14 ZIL7        0.0000 
     21 N          -2.3120   48.8345   -3.5350 N.am      2 SEC2        0.0000 
     22 N          -2.6780   47.4660   -4.1170 N.am     12 SEL2        0.0000 
     23 N          -1.9460   50.2030   -2.9530 N.am      7 SEP2        0.0000 
     24 NZ         -4.0130   45.7490   -1.7030 N.4       3 LYC4        0.0000 
     25 NZ         -4.4630   46.8470   -2.3280 N.4      13 LYL4        0.0000 
     26 N          -5.8490   46.3400   -2.1905 N.am      2 SEC2        0.0000 
     27 N          -4.4630   46.8470   -2.3280 N.am     12 SEL2        0.0000 
     28 N          -7.2350   45.8330   -2.0530 N.am      7 SEP2        0.0000 
     29 N          -5.5330   47.6240   -1.8605 N.am      2 SEC2        0.0000 
     30 N          -6.6030   48.4010   -1.3930 N.am      7 SEP2        0.0000 
     31 N          -4.2245   48.0830   -1.7445 N.am      2 SEC2        0.0000 
     32 N          -3.9860   49.3190   -1.1610 N.am      7 SEP2        0.0000 
     33 N          -4.0130   45.7490   -1.7030 N.am      2 SEC2        0.0000 
     34 N          -5.0550   44.5305   -3.9130 N.am      2 SEC2        0.0000 
     35 N          -3.8670   45.2260   -3.9890 N.am     12 SEL2        0.0000 
     36 N          -6.2430   43.8350   -3.8370 N.am      7 SEP2        0.0000 
     37 N          -4.1125   51.0180   -4.1240 N.am      2 SEC2        0.0000 
     38 N          -4.7920   49.7050   -4.3340 N.am     12 SEL2        0.0000 
     39 N          -3.4330   52.3310   -3.9140 N.am      7 SEP2        0.0000 
     40 CA         -8.5025   47.0935   -6.8590 C.3       5 GLC5        0.0000 
     41 CA         -7.1800   48.6220   -6.9980 C.3      15 GLL5        0.0000 
     42 CA         -9.8250   45.5650   -6.7200 C.3      10 GLP5        0.0000 
     43 CA         -9.6910   47.9950   -6.9620 C.3       5 GLC5        0.0000 
     44 CA         -8.2890   49.6050   -7.3230 C.3      15 GLL5        0.0000 
     45 CA        -11.0930   46.3850   -6.6010 C.3      10 GLP5        0.0000 
     46 CA         -8.2270   50.0380   -8.9840 C.3       5 GLC5        0.0000 
     47 CA         -7.9490   51.0430   -7.0060 C.3      15 GLL5        0.0000 
     48 CA         -8.5050   49.0330  -10.9620 C.3      10 GLP5        0.0000 
     49 N         -11.3805   52.5160   -7.9465 N.am      2 SEC2        0.0000 
     50 N          -9.9410   52.2190   -7.6740 N.am     12 SEL2        0.0000 
     51 N         -12.8200   52.8130   -8.2190 N.am      7 SEP2        0.0000 
     52 CA        -11.3015   49.1730   -4.7210 C.3       5 GLC5        0.0000 
     53 CA        -10.0550   50.4520   -6.0720 C.3      15 GLL5        0.0000 
     54 CA        -12.5480   47.8940   -3.3700 C.3      10 GLP5        0.0000 
     55 CA        -10.5740   48.4185   -6.3365 C.3       5 GLC5        0.0000 
     56 CA        -11.5675   49.9965   -7.5015 C.3       5 GLC5        0.0000 
     57 CA        -13.0800   49.5410   -8.9310 C.3      10 GLP5        0.0000 
     58 CA         -8.2915   50.2405   -1.9405 C.3       5 GLC5        0.0000 
     59 CA        -10.2380   50.6580   -2.3940 C.3      15 GLL5        0.0000 
     60 CA         -6.3450   49.8230   -1.4870 C.3      10 GLP5        0.0000 
     61 CA         -9.5080   52.4500   -0.2610 C.3       5 GLC5        0.0000 
     62 CA        -10.6910   51.4280   -1.2100 C.3      15 GLL5        0.0000 
     63 CA         -8.3250   53.4720    0.6880 C.3      10 GLP5        0.0000 
     64 CA        -12.5640   51.3850   -0.9420 C.3       5 GLC5        0.0000 
     65 CA        -14.4370   51.3420   -0.6740 C.3      10 GLP5        0.0000 
     66 O         -11.2175   51.6860    0.9035 O.2       1 ALC1        0.0000 
     67 O         -10.5060   50.9470    0.0370 O.2      11 ALL1        0.0000 
     68 O         -11.9290   52.4250    1.7700 O.2       6 ALP1        0.0000 
     69 O          -9.4595   49.7725   -0.0115 O.2       1 ALC1        0.0000 
     70 O          -8.4130   48.5980   -0.0600 O.2       6 ALP1        0.0000 
     71 N         -11.4490   53.7585   -0.4570 N.am      2 SEC2        0.0000 
     72 N         -11.2900   52.6240   -1.4070 N.am     12 SEL2        0.0000 
     73 N         -11.6080   54.8930    0.4930 N.am      7 SEP2        0.0000 
     74 CA        -10.6620   54.6000   -1.6215 C.3       5 GLC5        0.0000 
     75 CA        -11.5000   53.1060   -2.6540 C.3      15 GLL5        0.0000 
     76 CA         -9.8240   56.0940   -0.5890 C.3      10 GLP5        0.0000 
     77 CA         -9.7355   53.4830   -2.9680 C.3       5 GLC5        0.0000 
     78 CA         -7.9710   53.8600   -3.2820 C.3      10 GLP5        0.0000 
     79 CA        -13.0810   52.0855   -2.9020 C.3       5 GLC5        0.0000 
     80 CA        -14.6620   51.0650   -3.1500 C.3      10 GLP5        0.0000 
     81 CA        -12.5805   51.1470   -3.4280 C.3       5 GLC5        0.0000 
     82 CA        -10.4990   51.2290   -3.7060 C.3      15 GLL5        0.0000 
     83 CA         -7.7163   48.5152   -8.8332 C.3       5 GLC5        0.0000 
     84 CA         -7.6980   47.9170  -10.5060 C.3      10 GLP5        0.0000 
     85 CA         -7.7863   52.9415   -6.1220 C.3       5 GLC5        0.0000 
     86 CA         -6.9740   54.5410   -5.4610 C.3      10 GLP5        0.0000 
     87 CA        -11.4582   49.4187   -3.2100 C.3       5 GLC5        0.0000 
     88 CA         -9.2264   52.4980   -3.0180 C.3       5 GLC5        0.0000 
@<TRIPOS>BOND
@<TRIPOS>SUBSTRUCTURE
     1 ALC1       66 GROUP        1 X    ALC  0     ROOT ALC X 1
     2 SEC2       14 GROUP        1 X    SEC  0     **** SEC X 2
     3 LYC4       11 GROUP        1 X    LYC  0     **** LYC X 4
     4 ZIC7        8 GROUP        1 X    ZIC  0     **** ZIC X 5
     5 GLC5        1 GROUP        1 X    GLC  0     **** GLC X 6
     6 ALP1       68 GROUP        1 Y    ALP  0     ROOT ALP Y 8
     7 SEP2       16 GROUP        1 Y    SEP  0     **** SEP Y 9
     8 LYP4       13 GROUP        1 Y    LYP  0     **** LYP Y 11
     9 ZIP7       10 GROUP        1 Y    ZIP  0     **** ZIP Y 12
    10 GLP5        3 GROUP        1 Y    GLP  0     **** GLP Y 13
    11 ALL1       67 GROUP        1 Z    ALL  0     ROOT ALL Z 15
    12 SEL2       15 GROUP        1 Z    SEL  0     **** SEL Z 16
    13 LYL4       12 GROUP        1 Z    LYL  0     **** LYL Z 18
    14 ZIL7        9 GROUP        1 Z    ZIL  0     **** ZIL Z 19
    15 GLL5        2 GROUP        1 Z    GLL  0     **** GLL Z 20
@<TRIPOS>SET

