#    Name: 3hu2_AGS_1_ligand
#    Modification time : Tue Mar 25 15:01:19 2014

@<TRIPOS>MOLECULE
3hu2_AGS_1_ligand
   43    45     1     0     0
SMALL
NO_CHARGES


@<TRIPOS>ATOM
      1 PG         -2.5980   44.3660   -4.4330 P.3       1 AGS800      0.0000 
      2 S1G        -3.5070   42.9940   -5.5860 S.3       1 AGS800      0.0000 
      3 O2G        -1.6770   45.1580   -5.3090 O.co2     1 AGS800      0.0000 
      4 O3G        -2.0500   43.6630   -3.2180 O.co2     1 AGS800      0.0000 
      5 PB         -3.9400   46.7810   -3.7260 P.3       1 AGS800      0.0000 
      6 O1B        -2.6780   47.4660   -4.1170 O.co2     1 AGS800      0.0000 
      7 O2B        -4.4630   46.8470   -2.3280 O.co2     1 AGS800      0.0000 
      8 O3B        -3.8670   45.2260   -3.9890 O.3       1 AGS800      0.0000 
      9 PA         -5.1360   48.7150   -5.3970 P.3       1 AGS800      0.0000 
     10 O1A        -4.4450   48.7580   -6.6880 O.co2     1 AGS800      0.0000 
     11 O2A        -4.7920   49.7050   -4.3340 O.co2     1 AGS800      0.0000 
     12 O3A        -5.0490   47.2510   -4.7810 O.3       1 AGS800      0.0000 
     13 O5'        -6.6920   48.7770   -5.6740 O.3       1 AGS800      0.0000 
     14 C5'        -7.1800   48.6220   -6.9980 C.3       1 AGS800      0.0000 
     15 C4'        -8.2890   49.6050   -7.3230 C.3       1 AGS800      0.0000 
     16 O4'        -9.4480   49.2760   -6.5890 O.3       1 AGS800      0.0000 
     17 C3'        -7.9490   51.0430   -7.0060 C.3       1 AGS800      0.0000 
     18 O3'        -7.4430   51.6900   -8.1670 O.3       1 AGS800      0.0000 
     19 C2'        -9.2480   51.6410   -6.5600 C.3       1 AGS800      0.0000 
     20 O2'        -9.9410   52.2190   -7.6740 O.3       1 AGS800      0.0000 
     21 C1'       -10.0550   50.4520   -6.0720 C.3       1 AGS800      0.0000 
     22 N9        -10.0250   50.3460   -4.5990 N.pl3     1 AGS800      0.0000 
     23 C8         -9.4860   49.3230   -3.9280 C.2       1 AGS800      0.0000 
     24 N7         -9.6460   49.4910   -2.5970 N.2       1 AGS800      0.0000 
     25 C5        -10.2380   50.6580   -2.3940 C.ar      1 AGS800      0.0000 
     26 C6        -10.6910   51.4280   -1.2100 C.ar      1 AGS800      0.0000 
     27 N6        -10.5060   50.9470    0.0370 N.pl3     1 AGS800      0.0000 
     28 N1        -11.2900   52.6240   -1.4070 N.ar      1 AGS800      0.0000 
     29 C2        -11.5000   53.1060   -2.6540 C.ar      1 AGS800      0.0000 
     30 N3        -11.1160   52.4460   -3.7710 N.ar      1 AGS800      0.0000 
     31 C4        -10.4990   51.2290   -3.7060 C.ar      1 AGS800      0.0000 
     32 H          -7.5774   47.6004   -7.1675 H         1 AGS800      0.0000 
     33 H          -6.3747   48.7656   -7.7471 H         1 AGS800      0.0000 
     34 H          -8.4998   49.5404   -8.3941 H         1 AGS800      0.0000 
     35 H          -7.2657   51.0497   -6.1894 H         1 AGS800      0.0000 
     36 H          -9.0942   52.3004   -5.7671 H         1 AGS800      0.0000 
     37 H         -11.0600   50.5481   -6.4153 H         1 AGS800      0.0000 
     38 H          -9.0351   48.5534   -4.3379 H         1 AGS800      0.0000 
     39 H          -9.6860   50.3920    0.1774 H         1 AGS800      0.0000 
     40 H         -11.2053   51.1883    0.7099 H         1 AGS800      0.0000 
     41 H         -11.9869   54.0421   -2.7603 H         1 AGS800      0.0000 
     42 H          -8.2250   52.1807   -8.5512 H         1 AGS800      0.0000 
     43 H          -9.8545   53.2073   -7.5479 H         1 AGS800      0.0000 
@<TRIPOS>BOND
     1    2    1 1    
     2    3    1 ar   
     3    4    1 ar   
     4    8    1 1    
     5    6    5 ar   
     6    7    5 ar   
     7    8    5 1    
     8   12    5 1    
     9   10    9 ar   
    10   11    9 ar   
    11   12    9 1    
    12   13    9 1    
    13   14   13 1    
    14   15   14 1    
    15   32   14 1    
    16   33   14 1    
    17   16   15 1    
    18   17   15 1    
    19   34   15 1    
    20   21   16 1    
    21   18   17 1    
    22   19   17 1    
    23   35   17 1    
    24   42   18 1    
    25   20   19 1    
    26   21   19 1    
    27   36   19 1    
    28   43   20 1    
    29   22   21 1    
    30   37   21 1    
    31   23   22 1    
    32   31   22 1    
    33   24   23 2    
    34   38   23 1    
    35   25   24 1    
    36   26   25 ar   
    37   31   25 ar   
    38   27   26 1    
    39   28   26 ar   
    40   39   27 1    
    41   40   27 1    
    42   29   28 ar   
    43   30   29 ar   
    44   41   29 1    
    45   31   30 ar   
@<TRIPOS>SUBSTRUCTURE
     1 AGS800      1 GROUP   
@<TRIPOS>SET

