#    Name: 3vye_VYE_1_INTS_M
#    Modification time : Tue Mar 25 01:50:33 2014

@<TRIPOS>MOLECULE
3vye_VYE_1_INTS_M
   59     0     9     0     0
SMALL
NO_CHARGES


@<TRIPOS>ATOM
      1 CA        181.1105  204.6420  100.4085 C.3       3 GLC5        0.0000 
      2 CA        179.4240  203.6160  100.5170 C.3       9 GLL5        0.0000 
      3 CA        182.7970  205.6680  100.3000 C.3       6 GLP5        0.0000 
      4 CA        179.2345  204.0835   96.5595 C.3       3 GLC5        0.0000 
      5 CA        178.6230  203.2160   98.2830 C.3       9 GLL5        0.0000 
      6 CA        179.8460  204.9510   94.8360 C.3       6 GLP5        0.0000 
      7 CA        177.5015  204.6500   97.1115 C.3       3 GLC5        0.0000 
      8 CA        176.3800  206.0840   95.9400 C.3       6 GLP5        0.0000 
      9 CA        178.0275  198.4890   93.9080 C.3       3 GLC5        0.0000 
     10 CA        177.8600  199.7850   95.3910 C.3       9 GLL5        0.0000 
     11 CA        178.1950  197.1930   92.4250 C.3       6 GLP5        0.0000 
     12 N         174.2895  199.1825   98.1445 N.am      2 SEC2        0.0000 
     13 N         174.6600  199.8850   97.1190 N.am      8 SEL2        0.0000 
     14 N         173.9190  198.4800   99.1700 N.am      5 SEP2        0.0000 
     15 CA        180.6820  201.2645   94.1680 C.3       3 GLC5        0.0000 
     16 CA        180.1180  200.5000   96.1500 C.3       9 GLL5        0.0000 
     17 CA        181.2460  202.0290   92.1860 C.3       6 GLP5        0.0000 
     18 CA        181.6095  201.7500   96.2085 C.3       3 GLC5        0.0000 
     19 CA        183.1010  203.0000   96.2670 C.3       6 GLP5        0.0000 
     20 CA        181.1880  199.0235   95.5785 C.3       3 GLC5        0.0000 
     21 CA        182.2580  197.5470   95.0070 C.3       6 GLP5        0.0000 
     22 CA        179.4125  197.6150   98.8100 C.3       3 GLC5        0.0000 
     23 CA        178.9310  198.6410   97.3400 C.3       9 GLL5        0.0000 
     24 CA        179.8940  196.5890  100.2800 C.3       6 GLP5        0.0000 
     25 CA        180.5945  198.0940   96.1735 C.3       3 GLC5        0.0000 
     26 CA        173.2480  196.0010   94.9290 C.3       3 GLC5        0.0000 
     27 CA        174.4870  197.2520   93.5920 C.3       9 GLL5        0.0000 
     28 CA        172.0090  194.7500   96.2660 C.3       6 GLP5        0.0000 
     29 CA        175.3355  195.9515   92.1835 C.3       3 GLC5        0.0000 
     30 CA        176.1840  194.6510   90.7750 C.3       6 GLP5        0.0000 
     31 CA        174.5235  196.5715   91.2245 C.3       3 GLC5        0.0000 
     32 CA        173.9500  198.1350   92.6610 C.3       9 GLL5        0.0000 
     33 CA        175.0970  195.0080   89.7880 C.3       6 GLP5        0.0000 
     34 CA        174.6110  195.6325   96.4260 C.3       3 GLC5        0.0000 
     35 CA        175.9620  196.6730   95.7350 C.3       9 GLL5        0.0000 
     36 CA        173.2600  194.5920   97.1170 C.3       6 GLP5        0.0000 
     37 CA        176.8880  195.2230   95.9955 C.3       3 GLC5        0.0000 
     38 CA        177.8140  193.7730   96.2560 C.3       6 GLP5        0.0000 
     39 CA        177.0785  196.9330   94.0800 C.3       3 GLC5        0.0000 
     40 N         177.5920  200.3095  103.0005 N.am      2 SEC2        0.0000 
     41 N         178.7060  201.0650  102.5920 N.am      8 SEL2        0.0000 
     42 N         176.4780  199.5540  103.4090 N.am      5 SEP2        0.0000 
     43 O         181.7530  203.1880  102.5550 O.2       1 ALC1        0.0000 
     44 O         180.6350  202.2230  102.9770 O.2       7 ALL1        0.0000 
     45 O         182.8710  204.1530  102.1330 O.2       4 ALP1        0.0000 
     46 CA        184.1505  197.7080  105.3635 C.3       3 GLC5        0.0000 
     47 CA        183.0970  198.9570  104.5150 C.3       9 GLL5        0.0000 
     48 CA        185.2040  196.4590  106.2120 C.3       6 GLP5        0.0000 
     49 CA        184.1850  202.0690  102.8210 C.3       3 GLC5        0.0000 
     50 CA        183.3890  201.4870  104.5340 C.3       9 GLL5        0.0000 
     51 CA        184.9810  202.6510  101.1080 C.3       6 GLP5        0.0000 
     52 CA        180.0630  200.1442  100.7580 C.3       3 GLC5        0.0000 
     53 CA        179.7930  202.1500  100.7210 C.3       9 GLL5        0.0000 
     54 CA        180.7340  198.6090  101.2550 C.3       6 GLP5        0.0000 
     55 CA        174.5870  199.7260   90.9857 C.3       3 GLC5        0.0000 
     56 CA        174.2380  199.4970   92.7400 C.3       9 GLL5        0.0000 
     57 CA        175.0800  200.6360   89.2710 C.3       6 GLP5        0.0000 
     58 CA        181.5859  199.1378  102.9522 C.3       3 GLC5        0.0000 
     59 CA        181.0380  200.4520  104.6060 C.3       9 GLL5        0.0000 
@<TRIPOS>BOND
@<TRIPOS>SUBSTRUCTURE
     1 ALC1       43 GROUP        1 X    ALC  0     ROOT ALC X 1
     2 SEC2       12 GROUP        1 X    SEC  0     **** SEC X 2
     3 GLC5        1 GROUP        1 X    GLC  0     **** GLC X 6
     4 ALP1       45 GROUP        1 Y    ALP  0     ROOT ALP Y 8
     5 SEP2       14 GROUP        1 Y    SEP  0     **** SEP Y 9
     6 GLP5        3 GROUP        1 Y    GLP  0     **** GLP Y 13
     7 ALL1       44 GROUP        1 Z    ALL  0     ROOT ALL Z 15
     8 SEL2       13 GROUP        1 Z    SEL  0     **** SEL Z 16
     9 GLL5        2 GROUP        1 Z    GLL  0     **** GLL Z 20
@<TRIPOS>SET

