#    Name: 3vye_VYE_1_ligand
#    Modification time : Tue Mar 25 01:50:33 2014

@<TRIPOS>MOLECULE
3vye_VYE_1_ligand
   65    67     1     0     0
SMALL
NO_CHARGES


@<TRIPOS>ATOM
      1 C1        179.7930  202.1500  100.7210 C.3       1 VYE402      0.0000 
      2 C2        179.4240  203.6160  100.5170 C.3       1 VYE402      0.0000 
      3 N3        179.5100  204.0200   99.1220 N.3       1 VYE402      0.0000 
      4 C4        178.6230  203.2160   98.2830 C.3       1 VYE402      0.0000 
      5 C5        178.9560  201.7290   98.3620 C.3       1 VYE402      0.0000 
      6 C6        178.9910  201.2090   99.8010 C.3       1 VYE402      0.0000 
      7 N7        178.1080  200.9350   97.4740 N.4       1 VYE402      0.0000 
      8 C8        176.7920  200.5940   97.9520 C.3       1 VYE402      0.0000 
      9 C9        175.8500  200.0060   96.8830 C.2       1 VYE402      0.0000 
     10 N10       176.4170  199.6350   95.6740 N.am      1 VYE402      0.0000 
     11 C11       177.8600  199.7850   95.3910 C.3       1 VYE402      0.0000 
     12 C12       178.7460  199.9750   96.6020 C.3       1 VYE402      0.0000 
     13 O13       174.6600  199.8850   97.1190 O.2       1 VYE402      0.0000 
     14 C14       180.1180  200.5000   96.1500 C.3       1 VYE402      0.0000 
     15 C15       178.9310  198.6410   97.3400 C.3       1 VYE402      0.0000 
     16 C16       175.6030  199.1090   94.6860 C.ar      1 VYE402      0.0000 
     17 C17       175.3040  197.7630   94.5850 C.ar      1 VYE402      0.0000 
     18 C18       174.4870  197.2520   93.5920 C.ar      1 VYE402      0.0000 
     19 C19       173.9500  198.1350   92.6610 C.ar      1 VYE402      0.0000 
     20 C20       174.2380  199.4970   92.7400 C.ar      1 VYE402      0.0000 
     21 C21       175.0670  199.9860   93.7540 C.ar      1 VYE402      0.0000 
     22 CL1       175.9620  196.6730   95.7350 Cl        1 VYE402      0.0000 
     23 C23       179.6450  201.7510  102.1970 C.2       1 VYE402      0.0000 
     24 O24       178.7060  201.0650  102.5920 O.2       1 VYE402      0.0000 
     25 N25       180.6350  202.2230  102.9770 N.am      1 VYE402      0.0000 
     26 C26       180.6000  201.9030  104.3970 C.3       1 VYE402      0.0000 
     27 C27       181.0380  200.4520  104.6060 C.3       1 VYE402      0.0000 
     28 C28       182.5190  200.3000  104.9620 C.3       1 VYE402      0.0000 
     29 C29       183.0970  198.9570  104.5150 C.3       1 VYE402      0.0000 
     30 C30       183.3890  201.4870  104.5340 C.3       1 VYE402      0.0000 
     31 H         180.8592  202.0345  100.4602 H         1 VYE402      0.0000 
     32 H         180.0968  204.2270  101.1440 H         1 VYE402      0.0000 
     33 H         178.4020  203.7674  100.9064 H         1 VYE402      0.0000 
     34 H         178.6961  203.5279   97.2293 H         1 VYE402      0.0000 
     35 H         177.5731  203.3486   98.5882 H         1 VYE402      0.0000 
     36 H         180.0203  201.6404   97.9800 H         1 VYE402      0.0000 
     37 H         177.9727  201.1273  100.1802 H         1 VYE402      0.0000 
     38 H         179.4519  200.2217   99.8170 H         1 VYE402      0.0000 
     39 H         177.8022  201.8230   96.6274 H         1 VYE402      0.0000 
     40 H         176.2805  201.4843   98.3853 H         1 VYE402      0.0000 
     41 H         176.8475  199.8532   98.7828 H         1 VYE402      0.0000 
     42 H         178.0189  200.6493   94.7023 H         1 VYE402      0.0000 
     43 H         178.2257  198.8938   94.8264 H         1 VYE402      0.0000 
     44 H         174.2823  196.2567   93.5412 H         1 VYE402      0.0000 
     45 H         173.3387  197.7839   91.9118 H         1 VYE402      0.0000 
     46 H         173.8392  200.1469   92.0493 H         1 VYE402      0.0000 
     47 H         175.2750  200.9887   93.8046 H         1 VYE402      0.0000 
     48 H         181.4033  202.7875  102.6363 H         1 VYE402      0.0000 
     49 H         179.5925  202.0162  104.8017 H         1 VYE402      0.0000 
     50 H         181.2753  202.5474  104.9629 H         1 VYE402      0.0000 
     51 H         180.8313  199.8806  103.6880 H         1 VYE402      0.0000 
     52 H         180.4305  200.0076  105.4094 H         1 VYE402      0.0000 
     53 H         182.5619  200.2831  106.0997 H         1 VYE402      0.0000 
     54 H         180.7286  200.6594   96.9257 H         1 VYE402      0.0000 
     55 H         180.5801  199.8554   95.5409 H         1 VYE402      0.0000 
     56 H         180.0399  201.3658   95.6557 H         1 VYE402      0.0000 
     57 H         179.3683  197.9534   96.7604 H         1 VYE402      0.0000 
     58 H         179.5016  198.7434   98.1548 H         1 VYE402      0.0000 
     59 H         178.0572  198.2584   97.6403 H         1 VYE402      0.0000 
     60 H         184.0637  198.8701  104.7558 H         1 VYE402      0.0000 
     61 H         182.6191  198.1875  104.9387 H         1 VYE402      0.0000 
     62 H         183.0294  198.8347  103.5248 H         1 VYE402      0.0000 
     63 H         184.3489  201.3516  104.7797 H         1 VYE402      0.0000 
     64 H         183.3573  201.6332  103.5453 H         1 VYE402      0.0000 
     65 H         183.0933  202.3390  104.9659 H         1 VYE402      0.0000 
@<TRIPOS>BOND
     1    2    1 1    
     2    6    1 1    
     3   23    1 1    
     4   31    1 1    
     5    3    2 1    
     6   32    2 1    
     7   33    2 1    
     8    4    3 1    
     9    5    4 1    
    10   34    4 1    
    11   35    4 1    
    12    6    5 1    
    13    7    5 1    
    14   36    5 1    
    15   37    6 1    
    16   38    6 1    
    17    8    7 1    
    18   12    7 1    
    19   39    7 1    
    20    9    8 1    
    21   40    8 1    
    22   41    8 1    
    23   10    9 am   
    24   13    9 2    
    25   11   10 1    
    26   16   10 1    
    27   12   11 1    
    28   42   11 1    
    29   43   11 1    
    30   14   12 1    
    31   15   12 1    
    32   54   14 1    
    33   55   14 1    
    34   56   14 1    
    35   57   15 1    
    36   58   15 1    
    37   59   15 1    
    38   17   16 ar   
    39   21   16 ar   
    40   18   17 ar   
    41   22   17 1    
    42   19   18 ar   
    43   44   18 1    
    44   20   19 ar   
    45   45   19 1    
    46   21   20 ar   
    47   46   20 1    
    48   47   21 1    
    49   24   23 2    
    50   25   23 am   
    51   26   25 1    
    52   48   25 1    
    53   27   26 1    
    54   49   26 1    
    55   50   26 1    
    56   28   27 1    
    57   51   27 1    
    58   52   27 1    
    59   29   28 1    
    60   30   28 1    
    61   53   28 1    
    62   60   29 1    
    63   61   29 1    
    64   62   29 1    
    65   63   30 1    
    66   64   30 1    
    67   65   30 1    
@<TRIPOS>SUBSTRUCTURE
     1 VYE402      1 GROUP   
@<TRIPOS>SET

