#    Name: 4DXA_1_CAVITY_N1_6.mol2
#    Modification time : Mon Mar 10 15:28:40 2014

@<TRIPOS>MOLECULE
4DXA_1_CAVITY_N1_6.mol2
   31     0     5     0     0
SMALL
NO_CHARGES


@<TRIPOS>ATOM
      1 N          32.5748   -1.0110   25.6154 N.2       2 ALA2        0.0000 
      2 N          33.1956   -0.4969   24.3504 N.2       2 ALA2        0.0000 
      3 N          32.3235   -1.4169   23.5485 N.2       2 ALA2        0.0000 
      4 CA         35.1308    3.4387   23.3423 C.3       5 GLY6        0.0000 
      5 CA         33.0170    1.4905   25.0704 C.3       5 GLY6        0.0000 
      6 CA         33.6378    2.0046   23.8054 C.3       5 GLY6        0.0000 
      7 N          34.2587    2.5187   22.5404 N.2       2 ALA2        0.0000 
      8 CA         31.5240    0.0564   25.5335 C.3       5 GLY6        0.0000 
      9 CA         32.1449    0.5705   24.2685 C.3       5 GLY6        0.0000 
     10 N          32.7657    1.0846   23.0035 N.2       2 ALA2        0.0000 
     11 N          33.3865    1.5987   21.7385 N.2       2 ALA2        0.0000 
     12 CA         34.0074    2.1129   20.4735 C.3       5 GLY6        0.0000 
     13 CZ         31.2728   -0.3495   23.4666 C.ar      4 PHE5        0.0000 
     14 N          31.8936    0.1646   22.2016 N.2       2 ALA2        0.0000 
     15 N          32.5144    0.6787   20.9366 N.2       2 ALA2        0.0000 
     16 O          33.1353    1.1929   19.6716 O.2       2 ALA2        0.0000 
     17 N          34.9522    5.4261   24.0623 N.2       2 ALA2        0.0000 
     18 NZ         35.5730    5.9402   22.7973 N.2       3 LYS4        0.0000 
     19 CA         33.4592    3.9920   24.5254 C.3       5 GLY6        0.0000 
     20 CA         34.0801    4.5061   23.2604 C.3       5 GLY6        0.0000 
     21 CA         34.7009    5.0202   21.9954 C.3       5 GLY6        0.0000 
     22 O          32.5871    3.0720   23.7235 O.2       2 ALA2        0.0000 
     23 O          33.2079    3.5861   22.4585 O.2       2 ALA2        0.0000 
     24 CA         33.8288    4.1002   21.1935 C.3       5 GLY6        0.0000 
     25 CA         31.7150    2.1520   22.9216 C.3       5 GLY6        0.0000 
     26 CA         32.3358    2.6661   21.6566 C.3       5 GLY6        0.0000 
     27 CA         32.9567    3.1802   20.3916 C.3       5 GLY6        0.0000 
     28 CA         31.4637    1.7461   20.8547 C.3       5 GLY6        0.0000 
     29 OG         34.7736    7.4135   24.7824 O.2       1 SER1        0.0000 
     30 CA         33.6502    6.0876   21.9136 C.3       5 GLY6        0.0000 
     31 O          32.1572    4.6535   22.3767 O.2       2 ALA2        0.0000 
@<TRIPOS>BOND
@<TRIPOS>SUBSTRUCTURE
     1 SER1       29 GROUP   
     2 ALA2        1 GROUP   
     3 LYS4       18 GROUP   
     4 PHE5       13 GROUP   
     5 GLY6        4 GROUP   
@<TRIPOS>SET

