#    Name: 4DXA_1_CAVITY_N1_ALL.mol2
#    Modification time : Mon Mar 10 15:28:40 2014

@<TRIPOS>MOLECULE
4DXA_1_CAVITY_N1_ALL.mol2
   66     0     6     0     0
SMALL
NO_CHARGES


@<TRIPOS>ATOM
      1 N          36.8023    2.8854   22.1591 N.2       2 ALA2        0.0000 
      2 NZ         37.4231    3.3996   20.8941 N.2       3 LYS4        0.0000 
      3 CA         36.5510    2.4796   20.0922 C.3       5 GLY6        0.0000 
      4 CA         37.1719    2.9937   18.8272 C.3       5 GLY6        0.0000 
      5 N          32.5748   -1.0110   25.6154 N.2       2 ALA2        0.0000 
      6 N          33.1956   -0.4969   24.3504 N.2       2 ALA2        0.0000 
      7 N          32.3235   -1.4169   23.5485 N.2       2 ALA2        0.0000 
      8 NZ         36.6237    4.8728   22.8792 N.2       3 LYS4        0.0000 
      9 NZ         37.2445    5.3869   21.6142 N.2       3 LYS4        0.0000 
     10 NZ         37.8654    5.9010   20.3492 N.2       3 LYS4        0.0000 
     11 CA         35.1308    3.4387   23.3423 C.3       5 GLY6        0.0000 
     12 NZ         35.7516    3.9528   22.0773 N.2       3 LYS4        0.0000 
     13 NZ         36.3724    4.4669   20.8123 N.2       3 LYS4        0.0000 
     14 DU         36.9933    4.9811   19.5473 H         6 CUB7        0.0000 
     15 CA         33.0170    1.4905   25.0704 C.3       5 GLY6        0.0000 
     16 CA         33.6378    2.0046   23.8054 C.3       5 GLY6        0.0000 
     17 N          34.2587    2.5187   22.5404 N.2       2 ALA2        0.0000 
     18 N          34.8795    3.0328   21.2754 N.2       2 ALA2        0.0000 
     19 CA         35.5003    3.5470   20.0104 C.3       5 GLY6        0.0000 
     20 DU         36.1212    4.0611   18.7454 H         6 CUB7        0.0000 
     21 CA         31.5240    0.0564   25.5335 C.3       5 GLY6        0.0000 
     22 CA         32.1449    0.5705   24.2685 C.3       5 GLY6        0.0000 
     23 N          32.7657    1.0846   23.0035 N.2       2 ALA2        0.0000 
     24 N          33.3865    1.5987   21.7385 N.2       2 ALA2        0.0000 
     25 CA         34.0074    2.1129   20.4735 C.3       5 GLY6        0.0000 
     26 CA         34.6282    2.6270   19.2085 C.3       5 GLY6        0.0000 
     27 CA         35.2490    3.1411   17.9435 C.3       5 GLY6        0.0000 
     28 CZ         31.2728   -0.3495   23.4666 C.ar      4 PHE5        0.0000 
     29 N          31.8936    0.1646   22.2016 N.2       2 ALA2        0.0000 
     30 N          32.5144    0.6787   20.9366 N.2       2 ALA2        0.0000 
     31 O          33.1353    1.1929   19.6716 O.2       2 ALA2        0.0000 
     32 CA         37.3172    7.7802   24.4011 C.3       5 GLY6        0.0000 
     33 CA         37.9381    8.2943   23.1361 C.3       5 GLY6        0.0000 
     34 CA         36.4451    6.8602   23.5992 C.3       5 GLY6        0.0000 
     35 NZ         37.0659    7.3743   22.3342 N.2       3 LYS4        0.0000 
     36 DU         37.6868    7.8884   21.0692 H         6 CUB7        0.0000 
     37 N          34.9522    5.4261   24.0623 N.2       2 ALA2        0.0000 
     38 NZ         35.5730    5.9402   22.7973 N.2       3 LYS4        0.0000 
     39 NZ         36.1938    6.4543   21.5323 N.2       3 LYS4        0.0000 
     40 DU         36.8147    6.9684   20.2673 H         6 CUB7        0.0000 
     41 CA         33.4592    3.9920   24.5254 C.3       5 GLY6        0.0000 
     42 CA         34.0801    4.5061   23.2604 C.3       5 GLY6        0.0000 
     43 CA         34.7009    5.0202   21.9954 C.3       5 GLY6        0.0000 
     44 CA         35.3217    5.5343   20.7304 C.3       5 GLY6        0.0000 
     45 CA         35.9426    6.0484   19.4654 C.3       5 GLY6        0.0000 
     46 O          32.5871    3.0720   23.7235 O.2       2 ALA2        0.0000 
     47 O          33.2079    3.5861   22.4585 O.2       2 ALA2        0.0000 
     48 CA         33.8288    4.1002   21.1935 C.3       5 GLY6        0.0000 
     49 CA         34.4496    4.6143   19.9285 C.3       5 GLY6        0.0000 
     50 CA         35.0704    5.1285   18.6635 C.3       5 GLY6        0.0000 
     51 CA         31.7150    2.1520   22.9216 C.3       5 GLY6        0.0000 
     52 CA         32.3358    2.6661   21.6566 C.3       5 GLY6        0.0000 
     53 CA         32.9567    3.1802   20.3916 C.3       5 GLY6        0.0000 
     54 CA         33.5775    3.6944   19.1266 C.3       5 GLY6        0.0000 
     55 CA         31.4637    1.7461   20.8547 C.3       5 GLY6        0.0000 
     56 N          32.0846    2.2602   19.5897 N.2       2 ALA2        0.0000 
     57 NZ         36.2665    8.8476   24.3193 N.2       3 LYS4        0.0000 
     58 OG         34.7736    7.4135   24.7824 O.2       1 SER1        0.0000 
     59 NZ         35.3944    7.9276   23.5174 N.2       3 LYS4        0.0000 
     60 OG         36.0152    8.4417   22.2523 O.2       1 SER1        0.0000 
     61 OG         36.6361    8.9558   20.9873 O.2       1 SER1        0.0000 
     62 CA         34.5223    7.0076   22.7155 C.3       5 GLY6        0.0000 
     63 OG         35.1431    7.5217   21.4504 O.2       1 SER1        0.0000 
     64 OG         35.7640    8.0358   20.1854 O.2       1 SER1        0.0000 
     65 CA         33.6502    6.0876   21.9136 C.3       5 GLY6        0.0000 
     66 O          32.1572    4.6535   22.3767 O.2       2 ALA2        0.0000 
@<TRIPOS>BOND
@<TRIPOS>SUBSTRUCTURE
     1 SER1       58 GROUP   
     2 ALA2        1 GROUP   
     3 LYS4        2 GROUP   
     4 PHE5       28 GROUP   
     5 GLY6        3 GROUP   
     6 CUB7       14 GROUP   
@<TRIPOS>SET

