#    Name: 4dxa_GSP_1_INTS_M
#    Modification time : Mon Apr  7 23:12:37 2014

@<TRIPOS>MOLECULE
4dxa_GSP_1_INTS_M
   77     0    15     0     0
SMALL
NO_CHARGES


@<TRIPOS>ATOM
      1 N          30.6160    4.0820   31.0700 N.am      2 SEC2        0.0000 
      2 N          31.2490    4.9060   30.0160 N.am     12 SEL2        0.0000 
      3 N          29.9830    3.2580   32.1240 N.am      7 SEP2        0.0000 
      4 CA         32.0500    5.0535   33.5310 C.3       5 GLC5        0.0000 
      5 CA         33.0090    5.3360   32.1870 C.3      15 GLL5        0.0000 
      6 CA         31.0910    4.7710   34.8750 C.3      10 GLP5        0.0000 
      7 N          29.4235    7.1060   31.2470 N.am      2 SEC2        0.0000 
      8 N          30.5830    6.9380   31.6770 N.am     12 SEL2        0.0000 
      9 N          28.2640    7.2740   30.8170 N.am      7 SEP2        0.0000 
     10 Zn         32.4060    7.2040   29.0150 Zn        4 ZIC7        0.0000 
     11 Zn         32.7110    7.2040   30.2040 Zn       14 ZIL7        0.0000 
     12 Zn         32.1010    7.2040   27.8260 Zn        9 ZIP7        0.0000 
     13 N          34.2500    7.8845   29.7680 N.am      2 SEC2        0.0000 
     14 N          32.7110    7.2040   30.2040 N.am     12 SEL2        0.0000 
     15 N          35.7890    8.5650   29.3320 N.am      7 SEP2        0.0000 
     16 NZ         28.5185    6.1295   30.0725 N.4       3 LYC4        0.0000 
     17 NZ         28.7730    4.9850   29.3280 N.4      13 LYL4        0.0000 
     18 NZ         28.2640    7.2740   30.8170 N.4       8 LYP4        0.0000 
     19 N          28.0510    3.8255   28.7175 N.am      2 SEC2        0.0000 
     20 N          28.7730    4.9850   29.3280 N.am     12 SEL2        0.0000 
     21 N          27.3290    2.6660   28.1070 N.am      7 SEP2        0.0000 
     22 N          28.0315    5.0630   28.0420 N.am      2 SEC2        0.0000 
     23 N          27.2900    5.1410   26.7560 N.am      7 SEP2        0.0000 
     24 N          28.5185    6.1295   30.0725 N.am      2 SEC2        0.0000 
     25 Zn         31.2745    6.3655   27.6740 Zn        4 ZIC7        0.0000 
     26 Zn         30.4480    5.5270   27.5220 Zn       14 ZIL7        0.0000 
     27 N          29.8195    6.0025   26.3695 N.am      2 SEC2        0.0000 
     28 N          30.4480    5.5270   27.5220 N.am     12 SEL2        0.0000 
     29 N          29.1910    6.4780   25.2170 N.am      7 SEP2        0.0000 
     30 N          30.0660    3.8855   24.4945 N.am      2 SEC2        0.0000 
     31 N          30.4780    3.3420   25.6950 N.am     12 SEL2        0.0000 
     32 N          29.6540    4.4290   23.2940 N.am      7 SEP2        0.0000 
     33 N          28.8660    2.9815   28.2050 N.am      2 SEC2        0.0000 
     34 N          30.4030    3.2970   28.3030 N.am     12 SEL2        0.0000 
     35 CA         30.7065    1.2130   29.7820 C.3       5 GLC5        0.0000 
     36 CA         31.4440    0.4740   28.0700 C.3      15 GLL5        0.0000 
     37 CA         29.9690    1.9520   31.4940 C.3      10 GLP5        0.0000 
     38 CA         33.5580    0.6805   27.8165 C.3       5 GLC5        0.0000 
     39 CA         35.6720    0.8870   27.5630 C.3      10 GLP5        0.0000 
     40 CA         33.7755   -0.6885   27.7550 C.3       5 GLC5        0.0000 
     41 CA         31.6000   -0.9610   27.5890 C.3      15 GLL5        0.0000 
     42 CA         35.9510   -0.4160   27.9210 C.3      10 GLP5        0.0000 
     43 CA         33.8395    0.1055   26.2215 C.3       5 GLC5        0.0000 
     44 CA         32.4010   -1.0300   26.3040 C.3      15 GLL5        0.0000 
     45 CA         35.2780    1.2410   26.1390 C.3      10 GLP5        0.0000 
     46 O          34.1260   -2.4420   25.4355 O.2       1 ALC1        0.0000 
     47 O          33.1940   -2.2140   26.3880 O.2      11 ALL1        0.0000 
     48 O          35.0580   -2.6700   24.4830 O.2       6 ALP1        0.0000 
     49 CA         30.4595   -1.5005   23.2700 C.3       5 GLC5        0.0000 
     50 CA         31.3710   -1.2280   25.2170 C.3      15 GLL5        0.0000 
     51 CA         29.5480   -1.7730   21.3230 C.3      10 GLP5        0.0000 
     52 O          32.8315   -1.7175   22.7815 O.2       1 ALC1        0.0000 
     53 O          31.8940   -1.9650   24.1060 O.2      11 ALL1        0.0000 
     54 O          33.7690   -1.4700   21.4570 O.2       6 ALP1        0.0000 
     55 CA         28.5580   -1.8565   27.3215 C.3       5 GLC5        0.0000 
     56 CA         30.2690   -1.9770   25.9450 C.3      15 GLL5        0.0000 
     57 CA         26.8470   -1.7360   28.6980 C.3      10 GLP5        0.0000 
     58 N          25.8500    0.1360   25.1615 N.am      2 SEC2        0.0000 
     59 N          27.1910   -0.5140   24.6600 N.am     12 SEL2        0.0000 
     60 N          24.5090    0.7860   25.6630 N.am      7 SEP2        0.0000 
     61 CA         25.8585   -2.0645   25.8790 C.3       5 GLC5        0.0000 
     62 CA         26.9300   -1.8030   24.3930 C.3      15 GLL5        0.0000 
     63 CA         24.7870   -2.3260   27.3650 C.3      10 GLP5        0.0000 
     64 CA         26.5685   -0.5160   22.7710 C.3       5 GLC5        0.0000 
     65 CA         26.2070    0.7710   21.1490 C.3      10 GLP5        0.0000 
     66 N          24.4630   -1.2880   22.2235 N.am      2 SEC2        0.0000 
     67 N          24.7790   -2.0120   23.3670 N.am     12 SEL2        0.0000 
     68 N          24.1470   -0.5640   21.0800 N.am      7 SEP2        0.0000 
     69 O          24.8440   -4.5575   23.2790 O.2       1 ALC1        0.0000 
     70 O          25.9660   -3.9010   23.7040 O.2      11 ALL1        0.0000 
     71 O          23.7220   -5.2140   22.8540 O.2       6 ALP1        0.0000 
     72 O          25.9385   -6.5280   23.4455 O.2       1 ALC1        0.0000 
     73 O          27.1240   -5.9120   24.0140 O.2      11 ALL1        0.0000 
     74 O          24.7530   -7.1440   22.8770 O.2       6 ALP1        0.0000 
     75 CA         26.9850   -2.6995   26.5855 C.3       5 GLC5        0.0000 
     76 CA         28.0970   -2.5610   24.8610 C.3      15 GLL5        0.0000 
     77 CA         25.8730   -2.8380   28.3100 C.3      10 GLP5        0.0000 
@<TRIPOS>BOND
@<TRIPOS>SUBSTRUCTURE
     1 ALC1       46 GROUP        1 X    ALC  0     ROOT ALC X 1
     2 SEC2        1 GROUP        1 X    SEC  0     **** SEC X 2
     3 LYC4       16 GROUP        1 X    LYC  0     **** LYC X 4
     4 ZIC7       10 GROUP        1 X    ZIC  0     **** ZIC X 5
     5 GLC5        4 GROUP        1 X    GLC  0     **** GLC X 6
     6 ALP1       48 GROUP        1 Y    ALP  0     ROOT ALP Y 8
     7 SEP2        3 GROUP        1 Y    SEP  0     **** SEP Y 9
     8 LYP4       18 GROUP        1 Y    LYP  0     **** LYP Y 11
     9 ZIP7       12 GROUP        1 Y    ZIP  0     **** ZIP Y 12
    10 GLP5        6 GROUP        1 Y    GLP  0     **** GLP Y 13
    11 ALL1       47 GROUP        1 Z    ALL  0     ROOT ALL Z 15
    12 SEL2        2 GROUP        1 Z    SEL  0     **** SEL Z 16
    13 LYL4       17 GROUP        1 Z    LYL  0     **** LYL Z 18
    14 ZIL7       11 GROUP        1 Z    ZIL  0     **** ZIL Z 19
    15 GLL5        5 GROUP        1 Z    GLL  0     **** GLL Z 20
@<TRIPOS>SET

