#    Name: 4dxa_GSP_1_ligand
#    Modification time : Mon Apr  7 23:12:37 2014

@<TRIPOS>MOLECULE
4dxa_GSP_1_ligand
   46    48     1     0     0
SMALL
NO_CHARGES


@<TRIPOS>ATOM
      1 PG         31.7670    6.1430   30.9300 P.3       1 GSP201      0.0000 
      2 O3B        31.2490    4.9060   30.0160 O.3       1 GSP201      0.0000 
      3 S1G        33.0090    5.3360   32.1870 S.2       1 GSP201      0.0000 
      4 O2G        30.5830    6.9380   31.6770 O.3       1 GSP201      0.0000 
      5 O3G        32.7110    7.2040   30.2040 O.3       1 GSP201      0.0000 
      6 PB         30.1900    4.8130   28.8040 P.3       1 GSP201      0.0000 
      7 O1B        28.7730    4.9850   29.3280 O.co2     1 GSP201      0.0000 
      8 O2B        30.4480    5.5270   27.5220 O.co2     1 GSP201      0.0000 
      9 PA         31.1770    2.8650   26.9400 P.3       1 GSP201      0.0000 
     10 O1A        32.6490    3.1330   27.1500 O.co2     1 GSP201      0.0000 
     11 O2A        30.4780    3.3420   25.6950 O.co2     1 GSP201      0.0000 
     12 O3A        30.4030    3.2970   28.3030 O.3       1 GSP201      0.0000 
     13 O5'        30.9170    1.2750   27.0070 O.3       1 GSP201      0.0000 
     14 C5'        31.4440    0.4740   28.0700 C.3       1 GSP201      0.0000 
     15 C4'        31.6000   -0.9610   27.5890 C.3       1 GSP201      0.0000 
     16 O4'        30.3230   -1.5150   27.2840 O.3       1 GSP201      0.0000 
     17 C3'        32.4010   -1.0300   26.3040 C.3       1 GSP201      0.0000 
     18 O3'        33.1940   -2.2140   26.3880 O.3       1 GSP201      0.0000 
     19 C2'        31.3710   -1.2280   25.2170 C.3       1 GSP201      0.0000 
     20 O2'        31.8940   -1.9650   24.1060 O.3       1 GSP201      0.0000 
     21 C1'        30.2690   -1.9770   25.9450 C.3       1 GSP201      0.0000 
     22 N9         28.9420   -1.6650   25.3700 N.pl3     1 GSP201      0.0000 
     23 C8         28.4040   -0.4390   25.2550 C.2       1 GSP201      0.0000 
     24 N7         27.1910   -0.5140   24.6600 N.2       1 GSP201      0.0000 
     25 C5         26.9300   -1.8030   24.3930 C.2       1 GSP201      0.0000 
     26 C6         25.8170   -2.5730   23.7910 C.2       1 GSP201      0.0000 
     27 O6         24.7790   -2.0120   23.3670 O.2       1 GSP201      0.0000 
     28 N1         25.9660   -3.9010   23.7040 N.am      1 GSP201      0.0000 
     29 C2         27.0670   -4.5530   24.1400 C.2       1 GSP201      0.0000 
     30 N2         27.1240   -5.9120   24.0140 N.pl3     1 GSP201      0.0000 
     31 N3         28.1130   -3.9060   24.7120 N.2       1 GSP201      0.0000 
     32 C4         28.0970   -2.5610   24.8610 C.2       1 GSP201      0.0000 
     33 H          30.7792    0.4691   28.9395 H         1 GSP201      0.0000 
     34 H          32.4264    0.8305   28.3953 H         1 GSP201      0.0000 
     35 H          32.1026   -1.5363   28.3364 H         1 GSP201      0.0000 
     36 H          32.9310   -0.1650   26.1622 H         1 GSP201      0.0000 
     37 H          30.9885   -0.2660   24.9479 H         1 GSP201      0.0000 
     38 H          30.4730   -3.0198   25.8861 H         1 GSP201      0.0000 
     39 H          28.8242    0.3909   25.5562 H         1 GSP201      0.0000 
     40 H          25.1812   -4.4767   23.2707 H         1 GSP201      0.0000 
     41 H          27.9582   -6.3503   24.3487 H         1 GSP201      0.0000 
     42 H          26.3265   -6.3492   23.5982 H         1 GSP201      0.0000 
     43 H          29.8870    6.2458   31.8679 H         1 GSP201      0.0000 
     44 H          33.6143    7.0674   30.6106 H         1 GSP201      0.0000 
     45 H          33.7912   -2.1827   25.5865 H         1 GSP201      0.0000 
     46 H          32.3387   -1.2808   23.5280 H         1 GSP201      0.0000 
@<TRIPOS>BOND
     1    2    1 1    
     2    3    1 2    
     3    4    1 1    
     4    5    1 1    
     5    6    2 1    
     6   43    4 1    
     7   44    5 1    
     8    7    6 ar   
     9    8    6 ar   
    10   12    6 1    
    11   10    9 ar   
    12   11    9 ar   
    13   12    9 1    
    14   13    9 1    
    15   14   13 1    
    16   15   14 1    
    17   33   14 1    
    18   34   14 1    
    19   16   15 1    
    20   17   15 1    
    21   35   15 1    
    22   21   16 1    
    23   18   17 1    
    24   19   17 1    
    25   36   17 1    
    26   45   18 1    
    27   20   19 1    
    28   21   19 1    
    29   37   19 1    
    30   46   20 1    
    31   22   21 1    
    32   38   21 1    
    33   23   22 1    
    34   32   22 1    
    35   24   23 2    
    36   39   23 1    
    37   25   24 1    
    38   26   25 1    
    39   32   25 2    
    40   27   26 2    
    41   28   26 am   
    42   29   28 1    
    43   40   28 1    
    44   30   29 1    
    45   31   29 2    
    46   41   30 1    
    47   42   30 1    
    48   32   31 1    
@<TRIPOS>SUBSTRUCTURE
     1 GSP201      1 GROUP   
@<TRIPOS>SET

