#    Name: 4bjb_P34_1_INTS_M
#    Modification time : Tue Mar 25 07:48:08 2014

@<TRIPOS>MOLECULE
4bjb_P34_1_INTS_M
   38     0     9     0     0
SMALL
NO_CHARGES


@<TRIPOS>ATOM
      1 CA         14.6255    8.8285   22.5980 C.3       3 GLC5        0.0000 
      2 CA         12.9940    9.8840   22.2250 C.3       9 GLL5        0.0000 
      3 CA         16.2570    7.7730   22.9710 C.3       6 GLP5        0.0000 
      4 CA         12.5550    7.1605   22.2065 C.3       3 GLC5        0.0000 
      5 CA         11.2170    8.5020   21.6640 C.3       9 GLL5        0.0000 
      6 CA         13.8930    5.8190   22.7490 C.3       6 GLP5        0.0000 
      7 CA         10.7130    3.5460   12.7370 C.3       3 GLC5        0.0000 
      8 CA         12.6610    4.1890   13.5360 C.3       9 GLL5        0.0000 
      9 CA          8.7650    2.9030   11.9380 C.3       6 GLP5        0.0000 
     10 CA         14.1340    2.5875   13.4485 C.3       3 GLC5        0.0000 
     11 CA         15.6070    0.9860   13.3610 C.3       6 GLP5        0.0000 
     12 N          12.6050    0.2470   15.0455 N.am      2 SEC2        0.0000 
     13 N          12.5850    1.6620   14.6260 N.am      8 SEL2        0.0000 
     14 N          12.6250   -1.1680   15.4650 N.am      5 SEP2        0.0000 
     15 N          13.0775    1.1205   13.3700 N.am      2 SEC2        0.0000 
     16 N          13.5700    0.5790   12.1140 N.am      5 SEP2        0.0000 
     17 O          12.5585    1.1820   17.3805 O.2       1 ALC1        0.0000 
     18 O          12.1560    2.3850   16.7130 O.2       7 ALL1        0.0000 
     19 O          12.9610   -0.0210   18.0480 O.2       4 ALP1        0.0000 
     20 CA         12.6835    5.3390   21.1970 C.3       3 GLC5        0.0000 
     21 CA         11.4630    4.1920   19.8490 C.3       9 GLL5        0.0000 
     22 CA         10.6170    5.6288   15.5723 C.3       3 GLC5        0.0000 
     23 CA         12.2030    5.0240   15.7750 C.3       9 GLL5        0.0000 
     24 CA          9.0170    5.5820   15.6300 C.3       6 GLP5        0.0000 
     25 CA         10.7982    5.8042   14.5530 C.3       3 GLC5        0.0000 
     26 CA         12.4730    6.5600   13.9060 C.3       9 GLL5        0.0000 
     27 CA         12.5777    6.9232   11.6455 C.3       3 GLC5        0.0000 
     28 CA         12.6860    5.4930   13.0460 C.3       9 GLL5        0.0000 
     29 CA         12.5760    7.8200    9.8150 C.3       6 GLP5        0.0000 
     30 CA         12.7933    4.0820   11.6285 C.3       3 GLC5        0.0000 
     31 CA         12.9130    3.3230    9.9660 C.3       6 GLP5        0.0000 
     32 CA         10.7792    4.8243   14.9217 C.3       3 GLC5        0.0000 
     33 CA         14.1676    5.2169   12.5170 C.3       3 GLC5        0.0000 
     34 CA         15.7150    5.3260   11.5280 C.3       6 GLP5        0.0000 
     35 CA         10.4504    4.9783   16.6179 C.3       3 GLC5        0.0000 
     36 CA         11.9320    3.4530   17.5970 C.3       9 GLL5        0.0000 
     37 CA         13.6280    2.6905   18.3135 C.3       3 GLC5        0.0000 
     38 CA         15.4450    2.0720   18.3590 C.3       6 GLP5        0.0000 
@<TRIPOS>BOND
@<TRIPOS>SUBSTRUCTURE
     1 ALC1       17 GROUP        1 X    ALC  0     ROOT ALC X 1
     2 SEC2       12 GROUP        1 X    SEC  0     **** SEC X 2
     3 GLC5        1 GROUP        1 X    GLC  0     **** GLC X 6
     4 ALP1       19 GROUP        1 Y    ALP  0     ROOT ALP Y 8
     5 SEP2       14 GROUP        1 Y    SEP  0     **** SEP Y 9
     6 GLP5        3 GROUP        1 Y    GLP  0     **** GLP Y 13
     7 ALL1       18 GROUP        1 Z    ALL  0     ROOT ALL Z 15
     8 SEL2       13 GROUP        1 Z    SEL  0     **** SEL Z 16
     9 GLL5        2 GROUP        1 Z    GLL  0     **** GLL Z 20
@<TRIPOS>SET

