#    Name: 4bjb_P34_1_ligand
#    Modification time : Tue Mar 25 07:48:08 2014

@<TRIPOS>MOLECULE
4bjb_P34_1_ligand
   40    42     1     0     0
SMALL
NO_CHARGES


@<TRIPOS>ATOM
      1 CAA        10.5980   10.5460   22.3960 C.3       1 P342166     0.0000 
      2 N          11.6630    9.9240   21.6110 N.4       1 P342166     0.0000 
      3 CAB        12.9940    9.8840   22.2250 C.3       1 P342166     0.0000 
      4 CA         11.2170    8.5020   21.6640 C.3       1 P342166     0.0000 
      5 C          11.7380    7.6880   20.4560 C.2       1 P342166     0.0000 
      6 O          12.5470    8.1790   19.6690 O.2       1 P342166     0.0000 
      7 NAM        11.2160    6.4410   20.4010 N.am      1 P342166     0.0000 
      8 CAP        11.4850    5.5260   19.4410 C.ar      1 P342166     0.0000 
      9 CAK        11.7160    5.8110   18.0830 C.ar      1 P342166     0.0000 
     10 CAU        11.9550    4.7810   17.1460 C.ar      1 P342166     0.0000 
     11 CAT        12.2030    5.0240   15.7750 C.ar      1 P342166     0.0000 
     12 CAI        12.2310    6.3270   15.2540 C.ar      1 P342166     0.0000 
     13 CAF        12.4730    6.5600   13.9060 C.ar      1 P342166     0.0000 
     14 CAE        12.6860    5.4930   13.0460 C.ar      1 P342166     0.0000 
     15 CAH        12.6610    4.1890   13.5360 C.ar      1 P342166     0.0000 
     16 CAS        12.4220    3.9440   14.8910 C.ar      1 P342166     0.0000 
     17 CAQ        12.4000    2.6260   15.3630 C.2       1 P342166     0.0000 
     18 OAD        12.5850    1.6620   14.6260 O.2       1 P342166     0.0000 
     19 NAN        12.1560    2.3850   16.7130 N.am      1 P342166     0.0000 
     20 CAR        11.9320    3.4530   17.5970 C.ar      1 P342166     0.0000 
     21 CAJ        11.6900    3.1650   18.9390 C.ar      1 P342166     0.0000 
     22 CAG        11.4630    4.1920   19.8490 C.ar      1 P342166     0.0000 
     23 H          11.6658   10.2275   20.6227 H         1 P342166     0.0000 
     24 H          10.1229    8.4462   21.6657 H         1 P342166     0.0000 
     25 H          11.5808    8.0229   22.5797 H         1 P342166     0.0000 
     26 H          10.5333    6.1542   21.1819 H         1 P342166     0.0000 
     27 H          11.7113    6.7913   17.7621 H         1 P342166     0.0000 
     28 H          12.0674    7.1261   15.8919 H         1 P342166     0.0000 
     29 H          12.4940    7.5239   13.5469 H         1 P342166     0.0000 
     30 H          12.8624    5.6611   12.0472 H         1 P342166     0.0000 
     31 H          12.8198    3.3974   12.8957 H         1 P342166     0.0000 
     32 H          12.1387    1.4204   17.0698 H         1 P342166     0.0000 
     33 H          11.6795    2.1851   19.2576 H         1 P342166     0.0000 
     34 H          11.2756    3.9662   20.8396 H         1 P342166     0.0000 
     35 H          10.4538   10.0742   23.2659 H         1 P342166     0.0000 
     36 H          10.8041   11.5006   22.6109 H         1 P342166     0.0000 
     37 H           9.7244   10.5372   21.9095 H         1 P342166     0.0000 
     38 H          13.6651    9.4439   21.6285 H         1 P342166     0.0000 
     39 H          13.3378   10.8012   22.4264 H         1 P342166     0.0000 
     40 H          12.9904    9.3766   23.0867 H         1 P342166     0.0000 
@<TRIPOS>BOND
     1    2    1 1    
     2   35    1 1    
     3   36    1 1    
     4   37    1 1    
     5    3    2 1    
     6    4    2 1    
     7   23    2 1    
     8   38    3 1    
     9   39    3 1    
    10   40    3 1    
    11    5    4 1    
    12   24    4 1    
    13   25    4 1    
    14    6    5 2    
    15    7    5 am   
    16    8    7 1    
    17   26    7 1    
    18    9    8 ar   
    19   22    8 ar   
    20   10    9 ar   
    21   27    9 1    
    22   11   10 1    
    23   20   10 ar   
    24   12   11 ar   
    25   16   11 ar   
    26   13   12 ar   
    27   28   12 1    
    28   14   13 ar   
    29   29   13 1    
    30   15   14 ar   
    31   30   14 1    
    32   16   15 ar   
    33   31   15 1    
    34   17   16 1    
    35   18   17 2    
    36   19   17 am   
    37   20   19 1    
    38   32   19 1    
    39   21   20 ar   
    40   22   21 ar   
    41   33   21 1    
    42   34   22 1    
@<TRIPOS>SUBSTRUCTURE
     1 P342166     1 GROUP   
@<TRIPOS>SET

