#    Name: 4hni_16W_1_INTS_M
#    Modification time : Tue Mar 25 01:29:22 2014

@<TRIPOS>MOLECULE
4hni_16W_1_INTS_M
   66     0     9     0     0
SMALL
NO_CHARGES


@<TRIPOS>ATOM
      1 CA        -20.7090  -13.1745  -28.6205 C.3       3 GLC5        0.0000 
      2 CA        -22.5180  -12.0460  -29.1520 C.3       9 GLL5        0.0000 
      3 CA        -18.9000  -14.3030  -28.0890 C.3       6 GLP5        0.0000 
      4 CA        -26.1720  -16.6895  -24.2695 C.3       3 GLC5        0.0000 
      5 CA        -27.3490  -16.5450  -25.4750 C.3       9 GLL5        0.0000 
      6 CA        -24.9950  -16.8340  -23.0640 C.3       6 GLP5        0.0000 
      7 CA        -28.3690  -15.2955  -24.2565 C.3       3 GLC5        0.0000 
      8 CA        -29.3890  -14.0460  -23.0380 C.3       6 GLP5        0.0000 
      9 CA        -26.1300  -14.2070  -24.3765 C.3       3 GLC5        0.0000 
     10 CA        -26.5700  -14.4970  -26.5430 C.3       9 GLL5        0.0000 
     11 CA        -25.6900  -13.9170  -22.2100 C.3       6 GLP5        0.0000 
     12 CA        -28.1975  -13.8785  -25.4115 C.3       3 GLC5        0.0000 
     13 CA        -29.8250  -13.2600  -24.2800 C.3       6 GLP5        0.0000 
     14 CA        -24.6055  -15.0355  -29.7980 C.3       3 GLC5        0.0000 
     15 CA        -26.0760  -13.3550  -29.6910 C.3       9 GLL5        0.0000 
     16 CA        -23.1350  -16.7160  -29.9050 C.3       6 GLP5        0.0000 
     17 CA        -25.8775  -11.7415  -28.5620 C.3       3 GLC5        0.0000 
     18 CA        -25.6790  -10.1280  -27.4330 C.3       6 GLP5        0.0000 
     19 CA        -26.1470  -13.3930  -31.8010 C.3       3 GLC5        0.0000 
     20 CA        -26.2180  -13.4310  -33.9110 C.3       6 GLP5        0.0000 
     21 CA        -25.8955  -20.4880  -32.3235 C.3       3 GLC5        0.0000 
     22 CA        -27.4900  -19.8010  -31.2580 C.3       9 GLL5        0.0000 
     23 CA        -24.3010  -21.1750  -33.3890 C.3       6 GLP5        0.0000 
     24 CA        -24.9330  -17.9745  -30.9645 C.3       3 GLC5        0.0000 
     25 CA        -26.9340  -18.5460  -30.6780 C.3       9 GLL5        0.0000 
     26 CA        -22.9320  -17.4030  -31.2510 C.3       6 GLP5        0.0000 
     27 N         -27.3995  -14.7280  -24.2290 N.am      2 SEC2        0.0000 
     28 N         -26.8570  -15.2560  -25.4200 N.am      8 SEL2        0.0000 
     29 N         -27.9420  -14.2000  -23.0380 N.am      5 SEP2        0.0000 
     30 O         -25.7795  -12.4530  -25.0530 O.2       1 ALC1        0.0000 
     31 O         -26.1330  -13.2400  -26.3320 O.2       7 ALL1        0.0000 
     32 O         -25.4260  -11.6660  -23.7740 O.2       4 ALP1        0.0000 
     33 CA        -29.8710  -16.0475  -29.2890 C.3       3 GLC5        0.0000 
     34 CA        -29.2350  -17.5840  -30.4430 C.3       9 GLL5        0.0000 
     35 CA        -30.5070  -14.5110  -28.1350 C.3       6 GLP5        0.0000 
     36 CA        -24.7310   -8.1635  -32.1905 C.3       3 GLC5        0.0000 
     37 CA        -24.3660  -10.2070  -32.7160 C.3       9 GLL5        0.0000 
     38 CA        -25.0960   -6.1200  -31.6650 C.3       6 GLP5        0.0000 
     39 CA        -24.8065   -9.7040  -30.8420 C.3       3 GLC5        0.0000 
     40 CA        -25.2470   -9.2010  -28.9680 C.3       6 GLP5        0.0000 
     41 CA        -25.0575  -11.3750  -33.8005 C.3       3 GLC5        0.0000 
     42 CA        -25.7490  -12.5430  -34.8850 C.3       6 GLP5        0.0000 
     43 CA        -23.4235  -13.6848  -31.5340 C.3       3 GLC5        0.0000 
     44 CA        -24.2520  -11.7370  -30.9200 C.3       9 GLL5        0.0000 
     45 CA        -22.8200  -15.2980  -32.7250 C.3       6 GLP5        0.0000 
     46 CA        -24.6370  -10.6363  -29.6555 C.3       3 GLC5        0.0000 
     47 CA        -23.1285  -13.3960  -27.8480 C.3       3 GLC5        0.0000 
     48 CA        -23.8020  -12.4060  -29.7660 C.3       9 GLL5        0.0000 
     49 CA        -23.0970  -14.5660  -26.2370 C.3       6 GLP5        0.0000 
     50 CA        -23.0817  -11.0035  -28.0725 C.3       3 GLC5        0.0000 
     51 CA        -21.6890  -10.9800  -29.7340 C.3       9 GLL5        0.0000 
     52 CA        -24.0600  -10.4940  -26.7020 C.3       6 GLP5        0.0000 
     53 CA        -24.8828  -14.6603  -26.7142 C.3       3 GLC5        0.0000 
     54 CA        -26.7670  -15.0120  -27.8400 C.3       9 GLL5        0.0000 
     55 CA        -28.6527  -14.8009  -27.6696 C.3       3 GLC5        0.0000 
     56 CA        -26.5460  -19.8824  -29.6420 C.3       3 GLC5        0.0000 
     57 CA        -25.5350  -21.2610  -28.9320 C.3       6 GLP5        0.0000 
     58 CA        -20.3310   -9.8470  -30.6542 C.3       3 GLC5        0.0000 
     59 CA        -18.7300   -9.0540  -30.9800 C.3       6 GLP5        0.0000 
     60 CA        -21.0616  -11.9383  -31.3140 C.3       3 GLC5        0.0000 
     61 CA        -22.1750  -10.3000  -30.9230 C.3       9 GLL5        0.0000 
     62 CA        -19.9840  -12.9700  -32.4450 C.3       6 GLP5        0.0000 
     63 CA        -24.0305   -9.8605  -30.0740 C.3       3 GLC5        0.0000 
     64 CA        -22.4597  -11.1938  -33.2388 C.3       3 GLC5        0.0000 
     65 CA        -23.4530  -10.7400  -31.4370 C.3       9 GLL5        0.0000 
     66 CA        -21.0100  -11.9140  -34.4010 C.3       6 GLP5        0.0000 
@<TRIPOS>BOND
@<TRIPOS>SUBSTRUCTURE
     1 ALC1       30 GROUP        1 X    ALC  0     ROOT ALC X 1
     2 SEC2       27 GROUP        1 X    SEC  0     **** SEC X 2
     3 GLC5        1 GROUP        1 X    GLC  0     **** GLC X 6
     4 ALP1       32 GROUP        1 Y    ALP  0     ROOT ALP Y 8
     5 SEP2       29 GROUP        1 Y    SEP  0     **** SEP Y 9
     6 GLP5        3 GROUP        1 Y    GLP  0     **** GLP Y 13
     7 ALL1       31 GROUP        1 Z    ALL  0     ROOT ALL Z 15
     8 SEL2       28 GROUP        1 Z    SEL  0     **** SEL Z 16
     9 GLL5        2 GROUP        1 Z    GLL  0     **** GLL Z 20
@<TRIPOS>SET

