#    Name: 4hni_16W_1_ligand
#    Modification time : Tue Mar 25 01:29:22 2014

@<TRIPOS>MOLECULE
4hni_16W_1_ligand
   43    46     1     0     0
SMALL
NO_CHARGES


@<TRIPOS>ATOM
      1 C1        -24.2520  -11.7370  -30.9200 C.ar      1 16W301      0.0000 
      2 C2        -23.8020  -12.4060  -29.7660 C.ar      1 16W301      0.0000 
      3 C3        -22.5180  -12.0460  -29.1520 C.ar      1 16W301      0.0000 
      4 C7        -27.3490  -16.5450  -25.4750 C.ar      1 16W301      0.0000 
      5 C8        -27.2870  -16.3570  -27.8910 C.ar      1 16W301      0.0000 
      6 C9        -26.7670  -15.0120  -27.8400 C.ar      1 16W301      0.0000 
      7 C10       -26.5700  -14.4970  -26.5430 C.ar      1 16W301      0.0000 
      8 C11       -26.6120  -14.6040  -29.1940 C.2       1 16W301      0.0000 
      9 C12       -26.0760  -13.3550  -29.6910 C.3       1 16W301      0.0000 
     10 C13       -29.7740  -18.8020  -31.1800 C.3       1 16W301      0.0000 
     11 C14       -27.4900  -19.8010  -31.2580 C.3       1 16W301      0.0000 
     12 C15       -26.9340  -18.5460  -30.6780 C.3       1 16W301      0.0000 
     13 C16       -27.9020  -17.8340  -29.7360 C.3       1 16W301      0.0000 
     14 N2        -27.5650  -17.0960  -26.7250 N.ar      1 16W301      0.0000 
     15 N4        -26.8570  -15.2560  -25.4200 N.ar      1 16W301      0.0000 
     16 N5        -27.3910  -16.5940  -29.2010 N.pl3     1 16W301      0.0000 
     17 N1        -27.0100  -15.6030  -29.9410 N.2       1 16W301      0.0000 
     18 N3        -26.1330  -13.2400  -26.3320 N.pl3     1 16W301      0.0000 
     19 O2        -24.6850  -13.3780  -29.2840 O.3       1 16W301      0.0000 
     20 O1        -28.7200  -19.4870  -31.9110 O.3       1 16W301      0.0000 
     21 C17       -29.2350  -17.5840  -30.4430 C.3       1 16W301      0.0000 
     22 C4        -21.6890  -10.9800  -29.7340 C.ar      1 16W301      0.0000 
     23 C5        -22.1750  -10.3000  -30.9230 C.ar      1 16W301      0.0000 
     24 C6        -23.4530  -10.7400  -31.4370 C.ar      1 16W301      0.0000 
     25 CL1       -24.3660  -10.2070  -32.7160 Cl        1 16W301      0.0000 
     26 H         -25.1347  -11.9899  -31.3454 H         1 16W301      0.0000 
     27 H         -22.2031  -12.5299  -28.3298 H         1 16W301      0.0000 
     28 H         -27.5454  -17.0700  -24.6292 H         1 16W301      0.0000 
     29 H         -26.5879  -12.5162  -29.2426 H         1 16W301      0.0000 
     30 H         -26.1549  -13.3087  -30.7672 H         1 16W301      0.0000 
     31 H         -30.2379  -19.4720  -30.4412 H         1 16W301      0.0000 
     32 H         -30.5692  -18.4659  -31.8617 H         1 16W301      0.0000 
     33 H         -27.6405  -20.5256  -30.4521 H         1 16W301      0.0000 
     34 H         -26.7616  -20.2182  -31.9598 H         1 16W301      0.0000 
     35 H         -26.6593  -17.8481  -31.4881 H         1 16W301      0.0000 
     36 H         -26.0068  -18.7686  -30.1217 H         1 16W301      0.0000 
     37 H         -28.1225  -18.5330  -28.9065 H         1 16W301      0.0000 
     38 H         -25.9621  -12.6905  -27.1498 H         1 16W301      0.0000 
     39 H         -26.0185  -12.9686  -25.3764 H         1 16W301      0.0000 
     40 H         -29.9767  -17.2562  -29.6975 H         1 16W301      0.0000 
     41 H         -29.1079  -16.7564  -31.1588 H         1 16W301      0.0000 
     42 H         -20.8209  -10.7368  -29.3196 H         1 16W301      0.0000 
     43 H         -21.6608   -9.5812  -31.3515 H         1 16W301      0.0000 
@<TRIPOS>BOND
     1    2    1 ar   
     2   24    1 ar   
     3   26    1 1    
     4    3    2 ar   
     5   19    2 1    
     6   22    3 ar   
     7   27    3 1    
     8   14    4 ar   
     9   15    4 ar   
    10   28    4 1    
    11    6    5 ar   
    12   14    5 ar   
    13   16    5 1    
    14    7    6 ar   
    15    8    6 1    
    16   15    7 ar   
    17   18    7 1    
    18    9    8 1    
    19   17    8 2    
    20   19    9 1    
    21   29    9 1    
    22   30    9 1    
    23   20   10 1    
    24   21   10 1    
    25   31   10 1    
    26   32   10 1    
    27   12   11 1    
    28   20   11 1    
    29   33   11 1    
    30   34   11 1    
    31   13   12 1    
    32   35   12 1    
    33   36   12 1    
    34   16   13 1    
    35   21   13 1    
    36   37   13 1    
    37   17   16 1    
    38   38   18 1    
    39   39   18 1    
    40   40   21 1    
    41   41   21 1    
    42   23   22 ar   
    43   42   22 1    
    44   24   23 ar   
    45   43   23 1    
    46   25   24 1    
@<TRIPOS>SUBSTRUCTURE
     1 16W301      1 GROUP   
@<TRIPOS>SET

