#    Name: 3n5j_GO1_1_INTS_M
#    Modification time : Tue Mar 25 00:42:13 2014

@<TRIPOS>MOLECULE
3n5j_GO1_1_INTS_M
   44     0     9     0     0
SMALL
NO_CHARGES


@<TRIPOS>ATOM
      1 CA          0.5840   77.3740   30.0195 C.3       3 GLC5        0.0000 
      2 CA          1.3970   75.3980   29.7180 C.3       9 GLL5        0.0000 
      3 CA         -0.2290   79.3500   30.3210 C.3       6 GLP5        0.0000 
      4 CA         -0.2475   74.9400   30.2570 C.3       3 GLC5        0.0000 
      5 CA         -1.8920   74.4820   30.7960 C.3       6 GLP5        0.0000 
      6 CA          1.4985   78.3070   29.7555 C.3       3 GLC5        0.0000 
      7 CA          3.2260   77.2640   29.1900 C.3       9 GLL5        0.0000 
      8 CA          5.4865   79.9595   27.2275 C.3       3 GLC5        0.0000 
      9 CA          4.6090   79.4610   28.6970 C.3       9 GLL5        0.0000 
     10 CA          6.3640   80.4580   25.7580 C.3       6 GLP5        0.0000 
     11 CA          6.4625   80.4065   29.2820 C.3       3 GLC5        0.0000 
     12 CA          8.3160   81.3520   29.8670 C.3       6 GLP5        0.0000 
     13 CA          4.3495   79.3480   30.4175 C.3       3 GLC5        0.0000 
     14 CA          4.0900   79.2350   32.1380 C.3       6 GLP5        0.0000 
     15 CA          7.0185   72.7695   26.8760 C.3       3 GLC5        0.0000 
     16 CA          7.5190   74.0440   28.4070 C.3       9 GLL5        0.0000 
     17 CA          6.5180   71.4950   25.3450 C.3       6 GLP5        0.0000 
     18 CA          7.8465   74.5660   29.9430 C.3       3 GLC5        0.0000 
     19 CA          8.1740   75.0880   31.4790 C.3       6 GLP5        0.0000 
     20 NZ          7.4365   73.0675   25.5895 N.4       2 LYC4        0.0000 
     21 NZ          6.9050   74.7210   26.2000 N.4       8 LYL4        0.0000 
     22 NZ          7.9680   71.4140   24.9790 N.4       5 LYP4        0.0000 
     23 N           5.4750   74.4160   26.0555 N.am      1 SEC2        0.0000 
     24 N           6.9050   74.7210   26.2000 N.am      7 SEL2        0.0000 
     25 N           4.0450   74.1110   25.9110 N.am      4 SEP2        0.0000 
     26 NZ          9.3210   76.7270   27.2615 N.4       2 LYC4        0.0000 
     27 NZ          9.0200   75.1210   26.8630 N.4       8 LYL4        0.0000 
     28 NZ          8.8890   78.8580   26.6850 N.4       5 LYP4        0.0000 
     29 N           8.7290   76.6025   26.2805 N.am      1 SEC2        0.0000 
     30 N           9.0200   75.1210   26.8630 N.am      7 SEL2        0.0000 
     31 N           8.4380   78.0840   25.6980 N.am      4 SEP2        0.0000 
     32 N           9.3210   76.7270   27.2615 N.am      1 SEC2        0.0000 
     33 N           9.6220   78.3330   27.6600 N.am      4 SEP2        0.0000 
     34 CA          2.0282   75.9423   31.5845 C.3       3 GLC5        0.0000 
     35 CA          2.9780   75.9050   29.3200 C.3       9 GLL5        0.0000 
     36 CA          1.8690   76.2330   33.6500 C.3       6 GLP5        0.0000 
     37 CA          3.4663   75.9280   27.3248 C.3       3 GLC5        0.0000 
     38 CA          3.4350   76.3990   25.4220 C.3       6 GLP5        0.0000 
     39 CA          6.0600   72.5740   27.1047 C.3       3 GLC5        0.0000 
     40 CA          6.0450   74.1600   28.7380 C.3       9 GLL5        0.0000 
     41 CA          4.4352   76.2680   27.0915 C.3       3 GLC5        0.0000 
     42 CA          5.2820   75.4490   28.8360 C.3       9 GLL5        0.0000 
     43 CA          3.6485   76.9468   27.2235 C.3       3 GLC5        0.0000 
     44 CA          4.4980   77.7250   28.8600 C.3       9 GLL5        0.0000 
@<TRIPOS>BOND
@<TRIPOS>SUBSTRUCTURE
     1 SEC2       23 GROUP        1 X    SEC  0     ROOT SEC X 2
     2 LYC4       20 GROUP        1 X    LYC  0     **** LYC X 4
     3 GLC5        1 GROUP        1 X    GLC  0     **** GLC X 6
     4 SEP2       25 GROUP        1 Y    SEP  0     ROOT SEP Y 9
     5 LYP4       22 GROUP        1 Y    LYP  0     **** LYP Y 11
     6 GLP5        3 GROUP        1 Y    GLP  0     **** GLP Y 13
     7 SEL2       24 GROUP        1 Z    SEL  0     ROOT SEL Z 16
     8 LYL4       21 GROUP        1 Z    LYL  0     **** LYL Z 18
     9 GLL5        2 GROUP        1 Z    GLL  0     **** GLL Z 20
@<TRIPOS>SET

