#    Name: 3n5j_GO1_1_ligand
#    Modification time : Tue Mar 25 00:42:13 2014

@<TRIPOS>MOLECULE
3n5j_GO1_1_ligand
   23    24     1     0     0
SMALL
NO_CHARGES


@<TRIPOS>ATOM
      1 CL1         1.3970   75.3980   29.7180 Cl        1 GO11        0.0000 
      2 C2          2.9780   75.9050   29.3200 C.ar      1 GO11        0.0000 
      3 C3          4.0170   75.0090   29.1350 C.ar      1 GO11        0.0000 
      4 N4          3.9590   73.6700   29.2160 N.pl3     1 GO11        0.0000 
      5 C6          5.1590   73.1460   28.9910 C.2       1 GO11        0.0000 
      6 C7          6.0450   74.1600   28.7380 C.2       1 GO11        0.0000 
      7 C8          5.2820   75.4490   28.8360 C.ar      1 GO11        0.0000 
      8 C9          5.5890   76.8250   28.6860 C.ar      1 GO11        0.0000 
      9 C11         4.4980   77.7250   28.8600 C.ar      1 GO11        0.0000 
     10 C12         3.2260   77.2640   29.1900 C.ar      1 GO11        0.0000 
     11 CL14        4.6090   79.4610   28.6970 Cl        1 GO11        0.0000 
     12 C15         7.5190   74.0440   28.4070 C.3       1 GO11        0.0000 
     13 C18         7.7770   74.6580   27.0580 C.2       1 GO11        0.0000 
     14 O19         6.9050   74.7210   26.2000 O.co2     1 GO11        0.0000 
     15 O20         9.0200   75.1210   26.8630 O.co2     1 GO11        0.0000 
     16 C22         5.4100   71.8150   29.0140 C.2       1 GO11        0.0000 
     17 O23         6.5520   71.3870   28.9300 O.co2     1 GO11        0.0000 
     18 O24         4.3930   70.9480   29.1210 O.co2     1 GO11        0.0000 
     19 H           3.1438   73.1594   29.4134 H         1 GO11        0.0000 
     20 H           6.5000   77.1431   28.4744 H         1 GO11        0.0000 
     21 H           2.4612   77.9422   29.3390 H         1 GO11        0.0000 
     22 H           7.8034   72.9954   28.3939 H         1 GO11        0.0000 
     23 H           8.0998   74.5634   29.1643 H         1 GO11        0.0000 
@<TRIPOS>BOND
     1    2    1 1    
     2    3    2 ar   
     3   10    2 ar   
     4    4    3 1    
     5    7    3 ar   
     6    5    4 1    
     7   19    4 1    
     8    6    5 2    
     9   16    5 1    
    10    7    6 1    
    11   12    6 1    
    12    8    7 ar   
    13    9    8 ar   
    14   20    8 1    
    15   10    9 ar   
    16   11    9 1    
    17   21   10 1    
    18   13   12 1    
    19   22   12 1    
    20   23   12 1    
    21   14   13 ar   
    22   15   13 ar   
    23   17   16 ar   
    24   18   16 ar   
@<TRIPOS>SUBSTRUCTURE
     1 GO11        1 GROUP   
@<TRIPOS>SET

