#    Name: 2eck_ADP_2_INTS_M
#    Modification time : Tue Mar 25 10:59:10 2014

@<TRIPOS>MOLECULE
2eck_ADP_2_INTS_M
   59     0    12     0     0
SMALL
NO_CHARGES


@<TRIPOS>ATOM
      1 NZ         53.0860   61.5805   36.9535 N.4       3 LYC4        0.0000 
      2 NZ         54.0550   62.0070   36.0620 N.4      11 LYL4        0.0000 
      3 NZ         52.1170   61.1540   37.8450 N.4       7 LYP4        0.0000 
      4 N          54.6225   61.1700   35.0905 N.am      2 SEC2        0.0000 
      5 N          54.0550   62.0070   36.0620 N.am     10 SEL2        0.0000 
      6 N          55.1900   60.3330   34.1190 N.am      6 SEP2        0.0000 
      7 N          53.0860   61.5805   36.9535 N.am      2 SEC2        0.0000 
      8 N          52.1170   61.1540   37.8450 N.am      6 SEP2        0.0000 
      9 N          54.0455   61.5950   34.0685 N.am      2 SEC2        0.0000 
     10 N          52.9010   62.8570   34.0180 N.am     10 SEL2        0.0000 
     11 N          53.0895   61.8225   33.0915 N.am      2 SEC2        0.0000 
     12 N          53.2780   60.7880   32.1650 N.am      6 SEP2        0.0000 
     13 N          54.2035   64.6660   37.0440 N.am      2 SEC2        0.0000 
     14 N          53.4980   64.4410   35.8180 N.am     10 SEL2        0.0000 
     15 N          54.9090   64.8910   38.2700 N.am      6 SEP2        0.0000 
     16 N          53.4780   65.8835   35.2580 N.am      2 SEC2        0.0000 
     17 N          53.4580   67.3260   34.6980 N.am      6 SEP2        0.0000 
     18 N          55.4650   62.4615   31.0280 N.am      2 SEC2        0.0000 
     19 N          55.9370   63.3460   32.1010 N.am     10 SEL2        0.0000 
     20 N          54.9930   61.5770   29.9550 N.am      6 SEP2        0.0000 
     21 N          56.6345   63.3795   30.9110 N.am      2 SEC2        0.0000 
     22 N          57.3320   63.4130   29.7210 N.am      6 SEP2        0.0000 
     23 NZ         54.1075   66.3900   33.7570 N.4       3 LYC4        0.0000 
     24 NZ         54.7570   65.4540   32.8160 N.4      11 LYL4        0.0000 
     25 NZ         53.3470   68.6390   34.7690 N.4       7 LYP4        0.0000 
     26 N          54.1075   66.3900   33.7570 N.am      2 SEC2        0.0000 
     27 N          54.7570   65.4540   32.8160 N.am     10 SEL2        0.0000 
     28 N          56.1455   62.6480   34.9140 N.am      2 SEC2        0.0000 
     29 N          55.0990   63.4490   34.3410 N.am     10 SEL2        0.0000 
     30 N          57.1920   61.8470   35.4870 N.am      6 SEP2        0.0000 
     31 N          55.1445   61.8910   34.2300 N.am      2 SEC2        0.0000 
     32 CA         56.6730   65.7620   35.8725 C.3       4 GLC5        0.0000 
     33 CA         57.1750   66.2710   34.0950 C.3      12 GLL5        0.0000 
     34 CA         56.1710   65.2530   37.6500 C.3       8 GLP5        0.0000 
     35 CA         59.2775   67.4750   35.1230 C.3       4 GLC5        0.0000 
     36 CA         58.2160   67.1050   33.3600 C.3      12 GLL5        0.0000 
     37 CA         60.3390   67.8450   36.8860 C.3       8 GLP5        0.0000 
     38 CA         59.6730   68.5430   33.0615 C.3       4 GLC5        0.0000 
     39 CA         61.1300   69.9810   32.7630 C.3       8 GLP5        0.0000 
     40 O          64.2530   60.3770   33.2295 O.2       1 ALC1        0.0000 
     41 O          62.8490   60.9490   32.9060 O.2       9 ALL1        0.0000 
     42 O          65.6570   59.8050   33.5530 O.2       5 ALP1        0.0000 
     43 CA         64.3875   65.7975   32.4535 C.3       4 GLC5        0.0000 
     44 CA         63.9590   64.3060   33.3600 C.3      12 GLL5        0.0000 
     45 CA         64.8160   67.2890   31.5470 C.3       8 GLP5        0.0000 
     46 CA         61.4315   64.9415   34.7520 C.3       4 GLC5        0.0000 
     47 CA         61.7380   64.3550   32.6940 C.3      12 GLL5        0.0000 
     48 CA         61.1250   65.5280   36.8100 C.3       8 GLP5        0.0000 
     49 CA         63.2770   65.8220   32.1205 C.3       4 GLC5        0.0000 
     50 CA         56.2254   67.9333   32.7369 C.3       4 GLC5        0.0000 
     51 CA         54.5910   68.8790   32.6680 C.3       8 GLP5        0.0000 
     52 CA         56.5930   66.9235   30.6283 C.3       4 GLC5        0.0000 
     53 CA         58.0240   67.2870   31.8840 C.3      12 GLL5        0.0000 
     54 CA         54.7440   67.0810   29.7090 C.3       8 GLP5        0.0000 
     55 CA         60.1875   67.8017   31.0811 C.3       4 GLC5        0.0000 
     56 CA         61.1590   69.1700   30.3070 C.3       8 GLP5        0.0000 
     57 CA         62.5025   62.8385   31.1328 C.3       4 GLC5        0.0000 
     58 CA         61.7760   62.9900   32.6710 C.3      12 GLL5        0.0000 
     59 CA         62.9620   62.1840   29.5100 C.3       8 GLP5        0.0000 
@<TRIPOS>BOND
@<TRIPOS>SUBSTRUCTURE
     1 ALC1       40 GROUP        1 X    ALC  0     ROOT ALC X 1
     2 SEC2        4 GROUP        1 X    SEC  0     **** SEC X 2
     3 LYC4        1 GROUP        1 X    LYC  0     **** LYC X 4
     4 GLC5       32 GROUP        1 X    GLC  0     **** GLC X 6
     5 ALP1       42 GROUP        1 Y    ALP  0     ROOT ALP Y 8
     6 SEP2        6 GROUP        1 Y    SEP  0     **** SEP Y 9
     7 LYP4        3 GROUP        1 Y    LYP  0     **** LYP Y 11
     8 GLP5       34 GROUP        1 Y    GLP  0     **** GLP Y 13
     9 ALL1       41 GROUP        1 Z    ALL  0     ROOT ALL Z 15
    10 SEL2        5 GROUP        1 Z    SEL  0     **** SEL Z 16
    11 LYL4        2 GROUP        1 Z    LYL  0     **** LYL Z 18
    12 GLL5       33 GROUP        1 Z    GLL  0     **** GLL Z 20
@<TRIPOS>SET

