#    Name: 2eck_ADP_2_ligand
#    Modification time : Tue Mar 25 10:59:10 2014

@<TRIPOS>MOLECULE
2eck_ADP_2_ligand
   39    41     1     0     0
SMALL
NO_CHARGES


@<TRIPOS>ATOM
      1 PB         53.7730   63.1560   35.1690 P.3       1 ADP216      0.0000 
      2 O1B        54.0550   62.0070   36.0620 O.co2     1 ADP216      0.0000 
      3 O2B        52.9010   62.8570   34.0180 O.co2     1 ADP216      0.0000 
      4 O3B        53.4980   64.4410   35.8180 O.co2     1 ADP216      0.0000 
      5 PA         55.5950   64.3030   33.1270 P.3       1 ADP216      0.0000 
      6 O1A        55.9370   63.3460   32.1010 O.co2     1 ADP216      0.0000 
      7 O2A        54.7570   65.4540   32.8160 O.co2     1 ADP216      0.0000 
      8 O3A        55.0990   63.4490   34.3410 O.3       1 ADP216      0.0000 
      9 O5'        57.0110   64.9050   33.6750 O.3       1 ADP216      0.0000 
     10 C5'        57.1750   66.2710   34.0950 C.3       1 ADP216      0.0000 
     11 C4'        58.2160   67.1050   33.3600 C.3       1 ADP216      0.0000 
     12 O4'        59.4150   66.3740   33.4450 O.3       1 ADP216      0.0000 
     13 C3'        58.0240   67.2870   31.8840 C.3       1 ADP216      0.0000 
     14 O3'        58.4520   68.5690   31.6070 O.3       1 ADP216      0.0000 
     15 C2'        58.8600   66.2450   31.2110 C.3       1 ADP216      0.0000 
     16 O2'        59.1980   66.5680   29.8840 O.3       1 ADP216      0.0000 
     17 C1'        59.9900   66.1010   32.1630 C.3       1 ADP216      0.0000 
     18 N9         60.4950   64.7020   32.3390 N.pl3     1 ADP216      0.0000 
     19 C8         59.8550   63.5450   32.1440 C.2       1 ADP216      0.0000 
     20 N7         60.6340   62.4550   32.3190 N.2       1 ADP216      0.0000 
     21 C5         61.7760   62.9900   32.6710 C.ar      1 ADP216      0.0000 
     22 C6         62.9200   62.2720   32.9630 C.ar      1 ADP216      0.0000 
     23 N6         62.8490   60.9490   32.9060 N.pl3     1 ADP216      0.0000 
     24 N1         64.0000   62.9770   33.3090 N.ar      1 ADP216      0.0000 
     25 C2         63.9590   64.3060   33.3600 C.ar      1 ADP216      0.0000 
     26 N3         62.8780   64.9720   33.0610 N.ar      1 ADP216      0.0000 
     27 C4         61.7380   64.3550   32.6940 C.ar      1 ADP216      0.0000 
     28 H          57.4269   66.3176   35.1931 H         1 ADP216      0.0000 
     29 H          56.1953   66.8248   34.0243 H         1 ADP216      0.0000 
     30 H          58.3287   68.0505   33.8362 H         1 ADP216      0.0000 
     31 H          56.9964   67.1230   31.6638 H         1 ADP216      0.0000 
     32 H          58.2744   65.3097   31.2763 H         1 ADP216      0.0000 
     33 H          60.7683   66.7619   31.9610 H         1 ADP216      0.0000 
     34 H          58.8868   63.4835   31.8912 H         1 ADP216      0.0000 
     35 H          61.9656   60.5670   32.6346 H         1 ADP216      0.0000 
     36 H          63.6853   60.4530   33.1396 H         1 ADP216      0.0000 
     37 H          64.8381   64.8294   33.6541 H         1 ADP216      0.0000 
     38 H          58.9634   68.4917   30.7512 H         1 ADP216      0.0000 
     39 H          60.0987   66.1583   29.7394 H         1 ADP216      0.0000 
@<TRIPOS>BOND
     1    2    1 ar   
     2    3    1 ar   
     3    4    1 ar   
     4    8    1 1    
     5    6    5 ar   
     6    7    5 ar   
     7    8    5 1    
     8    9    5 1    
     9   10    9 1    
    10   11   10 1    
    11   28   10 1    
    12   29   10 1    
    13   12   11 1    
    14   13   11 1    
    15   30   11 1    
    16   17   12 1    
    17   14   13 1    
    18   15   13 1    
    19   31   13 1    
    20   38   14 1    
    21   16   15 1    
    22   17   15 1    
    23   32   15 1    
    24   39   16 1    
    25   18   17 1    
    26   33   17 1    
    27   19   18 1    
    28   27   18 1    
    29   20   19 2    
    30   34   19 1    
    31   21   20 1    
    32   22   21 ar   
    33   27   21 ar   
    34   23   22 1    
    35   24   22 ar   
    36   35   23 1    
    37   36   23 1    
    38   25   24 ar   
    39   26   25 ar   
    40   37   25 1    
    41   27   26 ar   
@<TRIPOS>SUBSTRUCTURE
     1 ADP216      1 GROUP   
@<TRIPOS>SET

