#    Name: 3dme_FAD_1_INTS_M
#    Modification time : Mon Mar 24 23:45:10 2014

@<TRIPOS>MOLECULE
3dme_FAD_1_INTS_M
  123     0     9     0     0
SMALL
NO_CHARGES


@<TRIPOS>ATOM
      1 N          10.8375   41.2300   20.3360 N.am      2 SEC2        0.0000 
      2 N          11.5620   42.6760   20.6520 N.am      8 SEL2        0.0000 
      3 N          10.1130   39.7840   20.0200 N.am      5 SEP2        0.0000 
      4 N           8.3960   43.0615   18.5875 N.am      2 SEC2        0.0000 
      5 N           9.6420   42.9090   18.9500 N.am      8 SEL2        0.0000 
      6 N           7.1500   43.2140   18.2250 N.am      5 SEP2        0.0000 
      7 CA         13.2380   45.0925   21.0695 C.3       3 GLC5        0.0000 
      8 CA         13.0350   44.7300   19.0570 C.3       9 GLL5        0.0000 
      9 CA         13.4410   45.4550   23.0820 C.3       6 GLP5        0.0000 
     10 CA         14.2525   46.0140   16.8560 C.3       3 GLC5        0.0000 
     11 CA         13.8990   44.4750   17.8190 C.3       9 GLL5        0.0000 
     12 CA         14.6060   47.5530   15.8930 C.3       6 GLP5        0.0000 
     13 O          13.9635   43.3890   15.2920 O.2       1 ALC1        0.0000 
     14 O          13.4800   42.6250   16.2880 O.2       7 ALL1        0.0000 
     15 O          14.4470   44.1530   14.2960 O.2       4 ALP1        0.0000 
     16 O          15.8995   42.1390   15.3550 O.2       1 ALC1        0.0000 
     17 O          15.9700   41.8130   16.5610 O.2       7 ALL1        0.0000 
     18 O          15.8290   42.4650   14.1490 O.2       4 ALP1        0.0000 
     19 CA         15.3475   45.8430   16.6030 C.3       3 GLC5        0.0000 
     20 CA         16.0890   44.1330   17.3130 C.3       9 GLL5        0.0000 
     21 CA         21.8040   45.3555   15.7160 C.3       3 GLC5        0.0000 
     22 CA         20.6330   45.7730   17.5530 C.3       9 GLL5        0.0000 
     23 CA         22.9750   44.9380   13.8790 C.3       6 GLP5        0.0000 
     24 CA         21.8470   47.4950   16.9220 C.3       3 GLC5        0.0000 
     25 CA         23.0610   49.2170   16.2910 C.3       6 GLP5        0.0000 
     26 CA         20.5830   47.5225   18.9540 C.3       3 GLC5        0.0000 
     27 CA         20.5330   49.2720   20.3550 C.3       6 GLP5        0.0000 
     28 O          23.0915   46.3905   18.0030 O.2       1 ALC1        0.0000 
     29 O          21.7570   45.8890   18.2930 O.2       7 ALL1        0.0000 
     30 O          24.4260   46.8920   17.7130 O.2       4 ALP1        0.0000 
     31 N          21.9140   46.6460   15.6660 N.am      2 SEC2        0.0000 
     32 N          20.6290   46.2450   16.2450 N.am      8 SEL2        0.0000 
     33 N          23.1990   47.0470   15.0870 N.am      5 SEP2        0.0000 
     34 CA         19.1345   47.6255   16.2625 C.3       3 GLC5        0.0000 
     35 CA         19.5210   46.1180   15.4320 C.3       9 GLL5        0.0000 
     36 CA         18.7480   49.1330   17.0930 C.3       6 GLP5        0.0000 
     37 CA         18.2870   45.7740   13.8555 C.3       3 GLC5        0.0000 
     38 CA         17.0530   45.4300   12.2790 C.3       6 GLP5        0.0000 
     39 CA         19.7570   44.2980   15.1060 C.3       3 GLC5        0.0000 
     40 CA         19.9930   42.4780   14.7800 C.3       6 GLP5        0.0000 
     41 CA         21.2480   45.5280   14.6555 C.3       3 GLC5        0.0000 
     42 N          18.4300   44.6190   14.6045 N.am      2 SEC2        0.0000 
     43 N          18.3750   45.5000   15.9130 N.am      8 SEL2        0.0000 
     44 N          18.4850   43.7380   13.2960 N.am      5 SEP2        0.0000 
     45 N          -0.5380   45.3450   23.1600 N.am      2 SEC2        0.0000 
     46 N          -0.4740   44.2160   23.9840 N.am      8 SEL2        0.0000 
     47 N          -0.6020   46.4740   22.3360 N.am      5 SEP2        0.0000 
     48 N          -1.7200   44.8650   23.8255 N.am      2 SEC2        0.0000 
     49 N          -2.9660   45.5140   23.6670 N.am      5 SEP2        0.0000 
     50 O          -2.1555   42.3055   23.7710 O.2       1 ALC1        0.0000 
     51 O          -0.9110   42.0150   24.3020 O.2       7 ALL1        0.0000 
     52 O          -3.4000   42.5960   23.2400 O.2       4 ALP1        0.0000 
     53 N          -0.9455   38.3835   25.0435 N.am      2 SEC2        0.0000 
     54 N          -1.1890   39.7910   24.6780 N.am      8 SEL2        0.0000 
     55 N          -0.7020   36.9760   25.4090 N.am      5 SEP2        0.0000 
     56 N          -2.1780   39.8155   23.5065 N.am      2 SEC2        0.0000 
     57 N          -3.1670   39.8400   22.3350 N.am      5 SEP2        0.0000 
     58 N           0.9700   38.1185   24.1640 N.am      2 SEC2        0.0000 
     59 N           1.3910   39.3320   25.2130 N.am      8 SEL2        0.0000 
     60 N           0.5490   36.9050   23.1150 N.am      5 SEP2        0.0000 
     61 N           0.3445   38.1540   25.3110 N.am      2 SEC2        0.0000 
     62 CA          3.9750   34.8975   25.4760 C.3       3 GLC5        0.0000 
     63 CA          5.1160   36.3380   26.3230 C.3       9 GLL5        0.0000 
     64 CA          2.8340   33.4570   24.6290 C.3       6 GLP5        0.0000 
     65 CA          4.0805   34.9535   27.4430 C.3       3 GLC5        0.0000 
     66 CA          3.0450   33.5690   28.5630 C.3       6 GLP5        0.0000 
     67 CA          6.7545   35.4605   25.2500 C.3       3 GLC5        0.0000 
     68 CA          8.3930   34.5830   24.1770 C.3       6 GLP5        0.0000 
     69 CA          8.8365   37.6060   26.2375 C.3       3 GLC5        0.0000 
     70 CA          6.9790   38.6060   26.0620 C.3       9 GLL5        0.0000 
     71 CA         10.6940   36.6060   26.4130 C.3       6 GLP5        0.0000 
     72 CA          5.3045   43.4280   26.1965 C.3       3 GLC5        0.0000 
     73 CA          4.0490   42.6320   24.6330 C.3       9 GLL5        0.0000 
     74 CA          6.5600   44.2240   27.7600 C.3       6 GLP5        0.0000 
     75 CA          3.4180   43.1555   26.2095 C.3       3 GLC5        0.0000 
     76 CA          2.7870   43.6790   27.7860 C.3       6 GLP5        0.0000 
     77 CA          3.6615   40.7035   22.8550 C.3       3 GLC5        0.0000 
     78 CA          4.3990   42.7660   23.1530 C.3       9 GLL5        0.0000 
     79 CA          2.9240   38.6410   22.5570 C.3       6 GLP5        0.0000 
     80 CA          2.7470   43.5105   22.0915 C.3       3 GLC5        0.0000 
     81 CA          1.0950   44.2550   21.0300 C.3       6 GLP5        0.0000 
     82 CA          6.9495   42.0390   23.2115 C.3       3 GLC5        0.0000 
     83 CA          5.6230   43.6860   23.0990 C.3       9 GLL5        0.0000 
     84 CA          8.2760   40.3920   23.3240 C.3       6 GLP5        0.0000 
     85 CA          4.4220   45.3715   23.7460 C.3       3 GLC5        0.0000 
     86 CA          3.2210   47.0570   24.3930 C.3       6 GLP5        0.0000 
     87 O           6.5310   45.1680   24.7115 O.2       1 ALC1        0.0000 
     88 O           5.4230   44.8270   23.9390 O.2       7 ALL1        0.0000 
     89 O           7.6390   45.5090   25.4840 O.2       4 ALP1        0.0000 
     90 O           6.6390   43.1345   19.4925 O.2       1 ALC1        0.0000 
     91 O           6.1280   43.0550   20.7600 O.2       7 ALL1        0.0000 
     92 O           7.1500   43.2140   18.2250 O.2       4 ALP1        0.0000 
     93 CA          6.8860   46.6870   21.3770 C.3       3 GLC5        0.0000 
     94 CA          7.3690   44.7680   21.8280 C.3       9 GLL5        0.0000 
     95 CA          6.4030   48.6060   20.9260 C.3       6 GLP5        0.0000 
     96 N           8.0500   47.3285   18.5745 N.am      2 SEC2        0.0000 
     97 N           9.3150   46.5560   19.1370 N.am      8 SEL2        0.0000 
     98 N           6.7850   48.1010   18.0120 N.am      5 SEP2        0.0000 
     99 CA         14.6250   45.9243   19.5435 C.3       3 GLC5        0.0000 
    100 CA         15.7830   47.2460   20.6490 C.3       6 GLP5        0.0000 
    101 CA         18.1290   46.2097   19.1970 C.3       3 GLC5        0.0000 
    102 CA         18.3830   45.0290   17.1880 C.3       9 GLL5        0.0000 
    103 CA         17.3230   47.3350   20.7850 C.3       6 GLP5        0.0000 
    104 CA         21.2085   44.0177   17.6838 C.3       3 GLC5        0.0000 
    105 CA         19.4870   45.1400   18.0300 C.3       9 GLL5        0.0000 
    106 CA         22.3570   42.5790   17.5760 C.3       6 GLP5        0.0000 
    107 CA         18.9847   47.1879   17.2914 C.3       3 GLC5        0.0000 
    108 CA         19.6073   43.8604   16.1349 C.3       3 GLC5        0.0000 
    109 CA          2.6170   41.0785   26.8280 C.3       3 GLC5        0.0000 
    110 CA          2.7570   39.1590   25.4160 C.3       9 GLL5        0.0000 
    111 CA          2.0370   42.4620   28.2980 C.3       6 GLP5        0.0000 
    112 CA          3.8915   37.0572   24.3175 C.3       3 GLC5        0.0000 
    113 CA          4.6140   37.7110   25.9530 C.3       9 GLL5        0.0000 
    114 CA          2.9180   37.0900   22.4970 C.3       6 GLP5        0.0000 
    115 CA          6.8745   38.7785   27.6663 C.3       3 GLC5        0.0000 
    116 CA          5.5010   38.7860   25.8330 C.3       9 GLL5        0.0000 
    117 CA          7.5090   38.8610   29.3850 C.3       6 GLP5        0.0000 
    118 CA          6.9518   39.8813   24.5259 C.3       3 GLC5        0.0000 
    119 CA          5.7332   45.0948   20.2028 C.3       3 GLC5        0.0000 
    120 CA          6.0000   44.1330   21.6930 C.3       9 GLL5        0.0000 
    121 CA          4.7820   45.7390   18.6450 C.3       6 GLP5        0.0000 
    122 CA          3.6061   39.0186   24.0569 C.3       3 GLC5        0.0000 
    123 CA          3.6370   40.2310   25.3000 C.3       9 GLL5        0.0000 
@<TRIPOS>BOND
@<TRIPOS>SUBSTRUCTURE
     1 ALC1       13 GROUP        1 X    ALC  0     ROOT ALC X 1
     2 SEC2        1 GROUP        1 X    SEC  0     **** SEC X 2
     3 GLC5        7 GROUP        1 X    GLC  0     **** GLC X 6
     4 ALP1       15 GROUP        1 Y    ALP  0     ROOT ALP Y 8
     5 SEP2        3 GROUP        1 Y    SEP  0     **** SEP Y 9
     6 GLP5        9 GROUP        1 Y    GLP  0     **** GLP Y 13
     7 ALL1       14 GROUP        1 Z    ALL  0     ROOT ALL Z 15
     8 SEL2        2 GROUP        1 Z    SEL  0     **** SEL Z 16
     9 GLL5        8 GROUP        1 Z    GLL  0     **** GLL Z 20
@<TRIPOS>SET

