#    Name: 3dme_FAD_1_ligand
#    Modification time : Mon Mar 24 23:45:10 2014

@<TRIPOS>MOLECULE
3dme_FAD_1_ligand
   84    89     1     0     0
SMALL
NO_CHARGES


@<TRIPOS>ATOM
      1 PA         10.7600   43.5820   19.7430 P.3       1 FAD500      0.0000 
      2 O1A        11.5620   42.6760   20.6520 O.co2     1 FAD500      0.0000 
      3 O2A         9.6420   42.9090   18.9500 O.co2     1 FAD500      0.0000 
      4 O5B        11.7420   44.2870   18.6920 O.3       1 FAD500      0.0000 
      5 C5B        13.0350   44.7300   19.0570 C.3       1 FAD500      0.0000 
      6 C4B        13.8990   44.4750   17.8190 C.3       1 FAD500      0.0000 
      7 O4B        15.1970   45.0010   18.0190 O.3       1 FAD500      0.0000 
      8 C3B        14.0520   42.9730   17.5330 C.3       1 FAD500      0.0000 
      9 O3B        13.4800   42.6250   16.2880 O.3       1 FAD500      0.0000 
     10 C2B        15.5580   42.7370   17.5490 C.3       1 FAD500      0.0000 
     11 O2B        15.9700   41.8130   16.5610 O.3       1 FAD500      0.0000 
     12 C1B        16.0890   44.1330   17.3130 C.3       1 FAD500      0.0000 
     13 N9A        17.4080   44.3730   17.8870 N.pl3     1 FAD500      0.0000 
     14 C8A        17.8720   44.1000   19.1480 C.2       1 FAD500      0.0000 
     15 N7A        19.1450   44.5800   19.2340 N.2       1 FAD500      0.0000 
     16 C5A        19.4870   45.1400   18.0300 C.ar      1 FAD500      0.0000 
     17 C6A        20.6330   45.7730   17.5530 C.ar      1 FAD500      0.0000 
     18 N6A        21.7570   45.8890   18.2930 N.pl3     1 FAD500      0.0000 
     19 N1A        20.6290   46.2450   16.2450 N.ar      1 FAD500      0.0000 
     20 C2A        19.5210   46.1180   15.4320 C.ar      1 FAD500      0.0000 
     21 N3A        18.3750   45.5000   15.9130 N.ar      1 FAD500      0.0000 
     22 C4A        18.3830   45.0290   17.1880 C.ar      1 FAD500      0.0000 
     23 N1          1.3100   42.9220   24.4500 N.2       1 FAD500      0.0000 
     24 C2         -0.0440   43.0880   24.2260 C.2       1 FAD500      0.0000 
     25 O2         -0.4740   44.2160   23.9840 O.2       1 FAD500      0.0000 
     26 N3         -0.9110   42.0150   24.3020 N.am      1 FAD500      0.0000 
     27 C4         -0.4310   40.7670   24.6290 C.2       1 FAD500      0.0000 
     28 O4         -1.1890   39.7910   24.6780 O.2       1 FAD500      0.0000 
     29 C4X         0.9250   40.5880   24.8670 C.2       1 FAD500      0.0000 
     30 N5          1.3910   39.3320   25.2130 N.2       1 FAD500      0.0000 
     31 C5X         2.7570   39.1590   25.4160 C.ar      1 FAD500      0.0000 
     32 C6          3.2420   37.8860   25.7570 C.ar      1 FAD500      0.0000 
     33 C7          4.6140   37.7110   25.9530 C.ar      1 FAD500      0.0000 
     34 C7M         5.1160   36.3380   26.3230 C.3       1 FAD500      0.0000 
     35 C8          5.5010   38.7860   25.8330 C.ar      1 FAD500      0.0000 
     36 C8M         6.9790   38.6060   26.0620 C.3       1 FAD500      0.0000 
     37 C9          5.0150   40.0450   25.5080 C.ar      1 FAD500      0.0000 
     38 C9A         3.6370   40.2310   25.3000 C.ar      1 FAD500      0.0000 
     39 N10         3.1410   41.4830   24.9480 N.pl3     1 FAD500      0.0000 
     40 C10         1.7960   41.6610   24.7580 C.2       1 FAD500      0.0000 
     41 C1'         4.0490   42.6320   24.6330 C.3       1 FAD500      0.0000 
     42 C2'         4.3990   42.7660   23.1530 C.3       1 FAD500      0.0000 
     43 O2'         4.6680   41.4760   22.6100 O.3       1 FAD500      0.0000 
     44 C3'         5.6230   43.6860   23.0990 C.3       1 FAD500      0.0000 
     45 O3'         5.4230   44.8270   23.9390 O.3       1 FAD500      0.0000 
     46 C4'         6.0000   44.1330   21.6930 C.3       1 FAD500      0.0000 
     47 O4'         6.1280   43.0550   20.7600 O.3       1 FAD500      0.0000 
     48 C5'         7.3690   44.7680   21.8280 C.3       1 FAD500      0.0000 
     49 O5'         7.7680   45.1980   20.5450 O.3       1 FAD500      0.0000 
     50 P           9.1800   45.9570   20.4990 P.3       1 FAD500      0.0000 
     51 O1P         9.3150   46.5560   19.1370 O.co2     1 FAD500      0.0000 
     52 O2P         9.3980   46.9190   21.5970 O.co2     1 FAD500      0.0000 
     53 O3P        10.2600   44.7630   20.7040 O.3       1 FAD500      0.0000 
     54 H          13.4524   44.1646   19.8742 H         1 FAD500      0.0000 
     55 H          13.0672   45.7858   19.2714 H         1 FAD500      0.0000 
     56 H          13.4216   44.9267   16.9655 H         1 FAD500      0.0000 
     57 H          13.6283   42.4449   18.3626 H         1 FAD500      0.0000 
     58 H          15.8218   42.4545   18.5494 H         1 FAD500      0.0000 
     59 H          16.0675   44.3533   16.2754 H         1 FAD500      0.0000 
     60 H          17.3873   43.6539   19.8382 H         1 FAD500      0.0000 
     61 H          22.5106   46.3940   17.8723 H         1 FAD500      0.0000 
     62 H          21.7357   45.4595   19.1958 H         1 FAD500      0.0000 
     63 H          19.5409   46.4806   14.4678 H         1 FAD500      0.0000 
     64 H          -1.9158   42.1512   24.1136 H         1 FAD500      0.0000 
     65 H           2.5989   37.1024   25.8593 H         1 FAD500      0.0000 
     66 H           5.6528   40.8424   25.4180 H         1 FAD500      0.0000 
     67 H           4.9898   42.5291   25.2071 H         1 FAD500      0.0000 
     68 H           3.5809   43.5772   24.9688 H         1 FAD500      0.0000 
     69 H           3.5850   43.2616   22.6694 H         1 FAD500      0.0000 
     70 H           6.4805   43.1002   23.4931 H         1 FAD500      0.0000 
     71 H           5.3228   44.8849   21.3690 H         1 FAD500      0.0000 
     72 H           8.0474   44.0211   22.2426 H         1 FAD500      0.0000 
     73 H           7.2884   45.5955   22.5342 H         1 FAD500      0.0000 
     74 H           6.1089   36.3249   26.4409 H         1 FAD500      0.0000 
     75 H           4.7148   36.0143   27.1799 H         1 FAD500      0.0000 
     76 H           4.8951   35.6603   25.6216 H         1 FAD500      0.0000 
     77 H           7.3755   37.9442   25.4257 H         1 FAD500      0.0000 
     78 H           7.4803   39.4631   25.9436 H         1 FAD500      0.0000 
     79 H           7.1744   38.2775   26.9861 H         1 FAD500      0.0000 
     80 H          13.8741   43.2697   15.6330 H         1 FAD500      0.0000 
     81 H          16.2654   42.3750   15.7884 H         1 FAD500      0.0000 
     82 H           5.2524   41.6460   21.8166 H         1 FAD500      0.0000 
     83 H           6.2783   44.9271   24.4473 H         1 FAD500      0.0000 
     84 H           6.9187   43.2935   20.1961 H         1 FAD500      0.0000 
@<TRIPOS>BOND
     1    2    1 ar   
     2    3    1 ar   
     3    4    1 1    
     4   53    1 1    
     5    5    4 1    
     6    6    5 1    
     7   54    5 1    
     8   55    5 1    
     9    7    6 1    
    10    8    6 1    
    11   56    6 1    
    12   12    7 1    
    13    9    8 1    
    14   10    8 1    
    15   57    8 1    
    16   80    9 1    
    17   11   10 1    
    18   12   10 1    
    19   58   10 1    
    20   81   11 1    
    21   13   12 1    
    22   59   12 1    
    23   14   13 1    
    24   22   13 1    
    25   15   14 2    
    26   60   14 1    
    27   16   15 1    
    28   17   16 ar   
    29   22   16 ar   
    30   18   17 1    
    31   19   17 ar   
    32   61   18 1    
    33   62   18 1    
    34   20   19 ar   
    35   21   20 ar   
    36   63   20 1    
    37   22   21 ar   
    38   24   23 1    
    39   40   23 2    
    40   25   24 2    
    41   26   24 am   
    42   27   26 am   
    43   64   26 1    
    44   28   27 2    
    45   29   27 1    
    46   30   29 2    
    47   40   29 1    
    48   31   30 1    
    49   32   31 ar   
    50   38   31 ar   
    51   33   32 ar   
    52   65   32 1    
    53   34   33 1    
    54   35   33 ar   
    55   74   34 1    
    56   75   34 1    
    57   76   34 1    
    58   36   35 1    
    59   37   35 ar   
    60   77   36 1    
    61   78   36 1    
    62   79   36 1    
    63   38   37 ar   
    64   66   37 1    
    65   39   38 1    
    66   40   39 1    
    67   41   39 1    
    68   42   41 1    
    69   67   41 1    
    70   68   41 1    
    71   43   42 1    
    72   44   42 1    
    73   69   42 1    
    74   82   43 1    
    75   45   44 1    
    76   46   44 1    
    77   70   44 1    
    78   83   45 1    
    79   47   46 1    
    80   48   46 1    
    81   71   46 1    
    82   84   47 1    
    83   49   48 1    
    84   72   48 1    
    85   73   48 1    
    86   50   49 1    
    87   51   50 ar   
    88   52   50 ar   
    89   53   50 1    
@<TRIPOS>SUBSTRUCTURE
     1 FAD500      1 GROUP   
@<TRIPOS>SET

