#    Name: 4h4d_10E_1_INTS_M
#    Modification time : Tue Mar 25 00:18:57 2014

@<TRIPOS>MOLECULE
4h4d_10E_1_INTS_M
   48     0    12     0     0
SMALL
NO_CHARGES


@<TRIPOS>ATOM
      1 N         -26.4030    0.2465  -19.5195 N.am      2 SEC2        0.0000 
      2 N         -25.8170    1.0630  -18.5820 N.am     10 SEL2        0.0000 
      3 N         -26.9890   -0.5700  -20.4570 N.am      6 SEP2        0.0000 
      4 N         -26.5815    2.1755  -18.9835 N.am      2 SEC2        0.0000 
      5 N         -27.3460    3.2880  -19.3850 N.am      6 SEP2        0.0000 
      6 N         -24.4870    1.3985  -18.6860 N.am      2 SEC2        0.0000 
      7 N         -23.1570    1.7340  -18.7900 N.am      6 SEP2        0.0000 
      8 N         -23.7425    1.4595  -16.0650 N.am      2 SEC2        0.0000 
      9 N         -25.0090    0.8920  -16.1150 N.am     10 SEL2        0.0000 
     10 N         -22.4760    2.0270  -16.0150 N.am      6 SEP2        0.0000 
     11 N         -24.2885   -0.0260  -15.3845 N.am      2 SEC2        0.0000 
     12 N         -23.5680   -0.9440  -14.6540 N.am      6 SEP2        0.0000 
     13 N         -28.2185   -1.0485  -17.7530 N.am      2 SEC2        0.0000 
     14 N         -26.7750   -0.6190  -17.0720 N.am     10 SEL2        0.0000 
     15 N         -29.6620   -1.4780  -18.4340 N.am      6 SEP2        0.0000 
     16 N         -27.3275   -3.7760  -18.3830 N.am      2 SEC2        0.0000 
     17 N         -27.3730   -3.0020  -17.2600 N.am     10 SEL2        0.0000 
     18 N         -27.2820   -4.5500  -19.5060 N.am      6 SEP2        0.0000 
     19 N         -28.5175   -2.2400  -17.8470 N.am      2 SEC2        0.0000 
     20 N         -24.3780   -3.5210  -16.9580 N.am      2 SEC2        0.0000 
     21 N         -24.9240   -2.3000  -17.2350 N.am     10 SEL2        0.0000 
     22 N         -23.8320   -4.7420  -16.6810 N.am      6 SEP2        0.0000 
     23 N         -23.6655   -1.9005  -17.4080 N.am      2 SEC2        0.0000 
     24 N         -22.4070   -1.5010  -17.5810 N.am      6 SEP2        0.0000 
     25 CA        -27.6350   -3.7795  -13.6150 C.3       4 GLC5        0.0000 
     26 CA        -27.3310   -2.1640  -14.2180 C.3      12 GLL5        0.0000 
     27 CA        -27.9390   -5.3950  -13.0120 C.3       8 GLP5        0.0000 
     28 CA        -25.6740   -2.6745  -12.8770 C.3       4 GLC5        0.0000 
     29 CA        -24.0170   -3.1850  -11.5360 C.3       8 GLP5        0.0000 
     30 CA        -26.9640    0.9835  -13.7680 C.3       4 GLC5        0.0000 
     31 CA        -27.8940   -0.8160  -14.2020 C.3      12 GLL5        0.0000 
     32 CA        -26.0340    2.7830  -13.3340 C.3       8 GLP5        0.0000 
     33 CA        -31.5460   -2.5200  -14.8750 C.3       4 GLC5        0.0000 
     34 CA        -30.2280   -1.3440  -14.7410 C.3      12 GLL5        0.0000 
     35 CA        -32.8640   -3.6960  -15.0090 C.3       8 GLP5        0.0000 
     36 CA        -31.3545    1.8435  -13.3790 C.3       4 GLC5        0.0000 
     37 CA        -29.5280    1.0130  -14.3640 C.3      12 GLL5        0.0000 
     38 CA        -33.1810    2.6740  -12.3940 C.3       8 GLP5        0.0000 
     39 CA        -27.7810    1.8980  -13.8490 C.3       4 GLC5        0.0000 
     40 OD1       -30.0310    2.7670  -13.7580 O.co2     3 ASC3        0.0000 
     41 OD1       -29.8360    1.2310  -12.9420 O.co2    11 ASL3        0.0000 
     42 OD1       -30.2260    4.3030  -14.5740 O.co2     7 ASP3        0.0000 
     43 O         -29.4885    2.5835  -12.4830 O.2       1 ALC1        0.0000 
     44 O         -29.8360    1.2310  -12.9420 O.2       9 ALL1        0.0000 
     45 O         -29.1410    3.9360  -12.0240 O.2       5 ALP1        0.0000 
     46 CA        -29.8714   -0.0969  -16.2881 C.3       4 GLC5        0.0000 
     47 CA        -29.1350   -0.4530  -14.5040 C.3      12 GLL5        0.0000 
     48 CA        -30.1380   -0.2510  -18.0830 C.3       8 GLP5        0.0000 
@<TRIPOS>BOND
@<TRIPOS>SUBSTRUCTURE
     1 ALC1       43 GROUP        1 X    ALC  0     ROOT ALC X 1
     2 SEC2        1 GROUP        1 X    SEC  0     **** SEC X 2
     3 ASC3       40 GROUP        1 X    ASC  0     **** ASC X 3
     4 GLC5       25 GROUP        1 X    GLC  0     **** GLC X 6
     5 ALP1       45 GROUP        1 Y    ALP  0     ROOT ALP Y 8
     6 SEP2        3 GROUP        1 Y    SEP  0     **** SEP Y 9
     7 ASP3       42 GROUP        1 Y    ASP  0     **** ASP Y 10
     8 GLP5       27 GROUP        1 Y    GLP  0     **** GLP Y 13
     9 ALL1       44 GROUP        1 Z    ALL  0     ROOT ALL Z 15
    10 SEL2        2 GROUP        1 Z    SEL  0     **** SEL Z 16
    11 ASL3       41 GROUP        1 Z    ASL  0     **** ASL Z 17
    12 GLL5       26 GROUP        1 Z    GLL  0     **** GLL Z 20
@<TRIPOS>SET

