#    Name: 4h4d_10E_1_ligand
#    Modification time : Tue Mar 25 00:18:57 2014

@<TRIPOS>MOLECULE
4h4d_10E_1_ligand
   26    25     1     0     0
SMALL
NO_CHARGES


@<TRIPOS>ATOM
      1 O13       -25.8170    1.0630  -18.5820 O.co2     1 10E402      0.0000 
      2 P12       -26.1890    0.8560  -17.1130 P.3       1 10E402      0.0000 
      3 O14       -27.4030    1.7270  -16.7010 O.co2     1 10E402      0.0000 
      4 O15       -25.0090    0.8920  -16.1150 O.co2     1 10E402      0.0000 
      5 O11       -26.7750   -0.6190  -17.0720 O.3       1 10E402      0.0000 
      6 P8        -26.3140   -2.0800  -16.7740 P.3       1 10E402      0.0000 
      7 O9        -27.3730   -3.0020  -17.2600 O.co2     1 10E402      0.0000 
      8 O10       -24.9240   -2.3000  -17.2350 O.co2     1 10E402      0.0000 
      9 O7        -26.1610   -2.1630  -15.1820 O.3       1 10E402      0.0000 
     10 C6        -27.3310   -2.1640  -14.2180 C.3       1 10E402      0.0000 
     11 C5        -27.8940   -0.8160  -14.2020 C.2       1 10E402      0.0000 
     12 C3        -29.1350   -0.4530  -14.5040 C.2       1 10E402      0.0000 
     13 C4        -30.2280   -1.3440  -14.7410 C.3       1 10E402      0.0000 
     14 C1        -29.5280    1.0130  -14.3640 C.3       1 10E402      0.0000 
     15 N2        -29.8360    1.2310  -12.9420 N.4       1 10E402      0.0000 
     16 H         -26.9725   -2.4474  -13.2342 H         1 10E402      0.0000 
     17 H         -28.0638   -2.8875  -14.5591 H         1 10E402      0.0000 
     18 H         -27.1781   -0.0607  -13.9030 H         1 10E402      0.0000 
     19 H         -30.3928    1.2018  -14.9797 H         1 10E402      0.0000 
     20 H         -28.6992    1.6270  -14.6781 H         1 10E402      0.0000 
     21 H         -30.0467   -1.9582  -15.5091 H         1 10E402      0.0000 
     22 H         -30.4182   -1.9185  -13.9449 H         1 10E402      0.0000 
     23 H         -31.0708   -0.8496  -14.9537 H         1 10E402      0.0000 
     24 H         -29.6361    2.1689  -12.6583 H         1 10E402      0.0000 
     25 H         -30.8012    1.0634  -12.7411 H         1 10E402      0.0000 
     26 H         -29.3040    0.6259  -12.3498 H         1 10E402      0.0000 
@<TRIPOS>BOND
     1    2    1 ar   
     2    3    2 ar   
     3    4    2 ar   
     4    5    2 1    
     5    6    5 1    
     6    7    6 ar   
     7    8    6 ar   
     8    9    6 1    
     9   10    9 1    
    10   11   10 1    
    11   16   10 1    
    12   17   10 1    
    13   12   11 2    
    14   18   11 1    
    15   13   12 1    
    16   14   12 1    
    17   21   13 1    
    18   22   13 1    
    19   23   13 1    
    20   15   14 1    
    21   19   14 1    
    22   20   14 1    
    23   24   15 1    
    24   25   15 1    
    25   26   15 1    
@<TRIPOS>SUBSTRUCTURE
     1 10E402      1 GROUP   
@<TRIPOS>SET

