#    Name: 3HUO_5_CAVITY_N1_ALL.mol2
#    Modification time : Tue Mar 11 00:10:02 2014

@<TRIPOS>MOLECULE
3HUO_5_CAVITY_N1_ALL.mol2
   85     0     6     0     0
SMALL
NO_CHARGES


@<TRIPOS>ATOM
      1 CA         33.8053   22.9410   -2.7607 C.3       5 GLY6        0.0000 
      2 O          33.7270   23.9096   -5.9710 O.2       2 ALA2        0.0000 
      3 CA         33.3438   23.0145   -4.8299 C.3       5 GLY6        0.0000 
      4 CA         32.9606   22.1194   -3.6889 C.3       5 GLY6        0.0000 
      5 O          33.2655   23.9831   -8.0402 O.2       2 ALA2        0.0000 
      6 DU         32.8823   23.0880   -6.8991 H         6 CUB7        0.0000 
      7 CA         32.4991   22.1929   -5.7581 C.3       5 GLY6        0.0000 
      8 CA         32.8040   24.0565  -10.1094 C.3       5 GLY6        0.0000 
      9 CA         32.4208   23.1615   -8.9683 C.3       5 GLY6        0.0000 
     10 DU         32.0376   22.2664   -7.8273 H         6 CUB7        0.0000 
     11 OG         31.6544   21.3713   -6.6862 O.2       1 SER1        0.0000 
     12 CA         31.9593   23.2349  -11.0375 C.3       5 GLY6        0.0000 
     13 CA         31.5761   22.3399   -9.8965 C.3       5 GLY6        0.0000 
     14 DU         31.1929   21.4448   -8.7554 H         6 CUB7        0.0000 
     15 OG         30.8097   20.5497   -7.6143 O.2       1 SER1        0.0000 
     16 CA         30.7314   21.5182  -10.8246 C.3       5 GLY6        0.0000 
     17 OG         30.3482   20.6232   -9.6835 O.2       1 SER1        0.0000 
     18 OG         29.9650   19.7281   -8.5425 O.2       1 SER1        0.0000 
     19 OG         29.5818   18.8330   -7.4014 O.2       1 SER1        0.0000 
     20 OG         29.5035   19.8016  -10.6117 O.2       1 SER1        0.0000 
     21 OG         29.1203   18.9065   -9.4706 O.2       1 SER1        0.0000 
     22 N          28.7371   18.0114   -8.3296 N.2       2 ALA2        0.0000 
     23 OD1        28.2756   18.0849  -10.3988 O.3       3 ASP3        0.0000 
     24 N          27.8924   17.1898   -9.2577 N.2       2 ALA2        0.0000 
     25 CA         34.9058   23.0299   -6.2651 C.3       5 GLY6        0.0000 
     26 CA         34.5227   22.1348   -5.1241 C.3       5 GLY6        0.0000 
     27 N          34.1395   21.2398   -3.9830 N.2       2 ALA2        0.0000 
     28 N          34.4443   23.1034   -8.3343 N.2       2 ALA2        0.0000 
     29 OG         34.0611   22.2083   -7.1933 O.2       1 SER1        0.0000 
     30 CA         33.6780   21.3132   -6.0522 C.3       5 GLY6        0.0000 
     31 OG         33.5996   22.2818   -9.2625 O.2       1 SER1        0.0000 
     32 OG         33.2164   21.3867   -8.1214 O.2       1 SER1        0.0000 
     33 OG         32.8333   20.4916   -6.9804 O.2       1 SER1        0.0000 
     34 OG         32.7549   21.4602  -10.1906 O.2       1 SER1        0.0000 
     35 OG         32.3717   20.5651   -9.0496 O.2       1 SER1        0.0000 
     36 O          31.9886   19.6700   -7.9085 O.2       2 ALA2        0.0000 
     37 OG         31.1439   18.8484   -8.8366 O.2       1 SER1        0.0000 
     38 O          30.7607   17.9534   -7.6956 O.2       2 ALA2        0.0000 
     39 CA         29.9160   17.1318   -8.6237 C.3       5 GLY6        0.0000 
     40 DU         26.4285   22.3671   -7.6600 H         6 CUB7        0.0000 
     41 CZ         25.9670   22.4406   -9.7292 C.ar      4 PHE5        0.0000 
     42 CA         25.5838   21.5455   -8.5881 C.3       5 GLY6        0.0000 
     43 O          25.2006   20.6504   -7.4471 O.2       2 ALA2        0.0000 
     44 O          24.7391   20.7239   -9.5163 O.2       2 ALA2        0.0000 
     45 OG         31.8308   25.5955   -3.3134 O.2       1 SER1        0.0000 
     46 CA         30.6030   23.8788   -3.1005 C.3       5 GLY6        0.0000 
     47 CA         30.2198   22.9837   -1.9595 C.3       5 GLY6        0.0000 
     48 OG         29.7583   23.0572   -4.0287 O.2       1 SER1        0.0000 
     49 DU         28.8352   23.2041   -8.1671 H         6 CUB7        0.0000 
     50 OG         28.4520   22.3090   -7.0260 O.2       1 SER1        0.0000 
     51 CZ         27.9905   22.3825   -9.0952 C.ar      4 PHE5        0.0000 
     52 OG         27.6073   21.4874   -7.9542 O.2       1 SER1        0.0000 
     53 OG         27.2242   20.5924   -6.8131 O.2       1 SER1        0.0000 
     54 OG         26.8410   19.6973   -5.6720 O.2       1 SER1        0.0000 
     55 CZ         27.1458   21.5609  -10.0234 C.ar      4 PHE5        0.0000 
     56 CZ         26.7626   20.6658   -8.8823 C.ar      4 PHE5        0.0000 
     57 O          26.3795   19.7708   -7.7412 O.2       2 ALA2        0.0000 
     58 N          25.9963   18.8757   -6.6002 N.2       2 ALA2        0.0000 
     59 N          25.6131   17.9806   -5.4591 N.2       2 ALA2        0.0000 
     60 O          25.9179   19.8442   -9.8104 O.2       2 ALA2        0.0000 
     61 O          25.5348   18.9492   -8.6694 O.2       2 ALA2        0.0000 
     62 O          25.1516   18.0541   -7.5283 O.2       2 ALA2        0.0000 
     63 CA         32.6265   23.8207   -2.4665 C.3       5 GLY6        0.0000 
     64 O          32.5482   24.7893   -5.6768 O.2       2 ALA2        0.0000 
     65 O          32.1650   23.8942   -4.5357 O.2       2 ALA2        0.0000 
     66 CA         31.7818   22.9991   -3.3947 C.3       5 GLY6        0.0000 
     67 CA         31.3986   22.1040   -2.2536 C.3       5 GLY6        0.0000 
     68 O          32.0866   24.8627   -7.7460 O.2       2 ALA2        0.0000 
     69 DU         31.7035   23.9677   -6.6050 H         6 CUB7        0.0000 
     70 CA         31.3203   23.0726   -5.4639 C.3       5 GLY6        0.0000 
     71 DU         31.2419   24.0411   -8.6742 H         6 CUB7        0.0000 
     72 OG         30.8588   23.1460   -7.5331 O.2       1 SER1        0.0000 
     73 OG         30.7804   24.1146  -10.7434 O.2       1 SER1        0.0000 
     74 OG         30.3972   23.2195   -9.6023 O.2       1 SER1        0.0000 
     75 OG         30.0141   22.3244   -8.4612 O.2       1 SER1        0.0000 
     76 CZ         29.5525   22.3979  -10.5304 C.ar      4 PHE5        0.0000 
     77 CZ         29.1694   21.5028   -9.3894 C.ar      4 PHE5        0.0000 
     78 OG         28.7862   20.6078   -8.2483 O.2       1 SER1        0.0000 
     79 CZ         28.3247   20.6812  -10.3175 C.ar      4 PHE5        0.0000 
     80 DU         27.9415   19.7862   -9.1765 H         6 CUB7        0.0000 
     81 N          27.5583   18.8911   -8.0354 N.2       2 ALA2        0.0000 
     82 N          27.1751   17.9960   -6.8943 N.2       2 ALA2        0.0000 
     83 O          27.0968   18.9646  -10.1046 O.2       2 ALA2        0.0000 
     84 O          26.7136   18.0695   -8.9635 O.2       2 ALA2        0.0000 
     85 O          26.3304   17.1744   -7.8225 O.2       2 ALA2        0.0000 
@<TRIPOS>BOND
@<TRIPOS>SUBSTRUCTURE
     1 SER1       11 GROUP   
     2 ALA2        2 GROUP   
     3 ASP3       23 GROUP   
     4 PHE5       41 GROUP   
     5 GLY6        1 GROUP   
     6 CUB7        6 GROUP   
@<TRIPOS>SET

