#    Name: 3huo_PNN_5_INTS_M
#    Modification time : Tue Mar 25 15:05:38 2014

@<TRIPOS>MOLECULE
3huo_PNN_5_INTS_M
   52     0    12     0     0
SMALL
NO_CHARGES


@<TRIPOS>ATOM
      1 N          30.7845   15.8240   -7.6390 N.am      2 SEC2        0.0000 
      2 N          30.3010   17.1560   -7.6480 N.am     10 SEL2        0.0000 
      3 N          31.2680   14.4920   -7.6300 N.am      6 SEP2        0.0000 
      4 N          30.8560   17.5695   -6.4040 N.am      2 SEC2        0.0000 
      5 N          31.4110   17.9830   -5.1600 N.am      6 SEP2        0.0000 
      6 CA         31.1145   19.8955  -10.2745 C.3       4 GLC5        0.0000 
      7 CA         30.8100   20.2170   -8.0880 C.3      12 GLL5        0.0000 
      8 CA         31.4190   19.5740  -12.4610 C.3       8 GLP5        0.0000 
      9 CA         32.0945   18.6955   -7.1955 C.3       4 GLC5        0.0000 
     10 CA         33.3790   17.1740   -6.3030 C.3       8 GLP5        0.0000 
     11 NZ         33.3545   18.6400  -10.5345 N.4       3 LYC4        0.0000 
     12 NZ         32.5400   19.5830   -9.6380 N.4      11 LYL4        0.0000 
     13 NZ         34.1690   17.6970  -11.4310 N.4       7 LYP4        0.0000 
     14 N          31.9665   19.0145  -10.6040 N.am      2 SEC2        0.0000 
     15 N          32.5400   19.5830   -9.6380 N.am     10 SEL2        0.0000 
     16 N          31.3930   18.4460  -11.5700 N.am      6 SEP2        0.0000 
     17 N          34.2305   20.5570   -8.4570 N.am      2 SEC2        0.0000 
     18 N          33.0720   20.7670   -7.8840 N.am     10 SEL2        0.0000 
     19 N          35.3890   20.3470   -9.0300 N.am      6 SEP2        0.0000 
     20 CA         29.2625   22.4050  -11.1910 C.3       4 GLC5        0.0000 
     21 CA         30.3470   22.1720   -9.5970 C.3      12 GLL5        0.0000 
     22 CA         28.1780   22.6380  -12.7850 C.3       8 GLP5        0.0000 
     23 CA         30.8830   20.8730  -11.0290 C.3       4 GLC5        0.0000 
     24 CA         27.8580   20.6695  -10.8735 C.3       4 GLC5        0.0000 
     25 CA         28.6050   19.5550   -9.1690 C.3      12 GLL5        0.0000 
     26 CA         27.1110   21.7840  -12.5780 C.3       8 GLP5        0.0000 
     27 CA         30.0120   19.5645  -10.8150 C.3       4 GLC5        0.0000 
     28 O          28.0790   17.7760   -6.1440 O.2       1 ALC1        0.0000 
     29 O          27.4210   18.0790   -7.3940 O.2       9 ALL1        0.0000 
     30 O          28.7370   17.4730   -4.8940 O.2       5 ALP1        0.0000 
     31 N          24.0685   19.0490   -8.7170 N.am      2 SEC2        0.0000 
     32 N          25.5430   18.6520   -8.4520 N.am     10 SEL2        0.0000 
     33 N          22.5940   19.4460   -8.9820 N.am      6 SEP2        0.0000 
     34 N          25.2375   18.0920   -9.7700 N.am      2 SEC2        0.0000 
     35 N          24.9320   17.5320  -11.0880 N.am      6 SEP2        0.0000 
     36 CA         25.1110   18.6005   -1.1630 C.3       4 GLC5        0.0000 
     37 CA         24.9670   19.9140   -2.8840 C.3      12 GLL5        0.0000 
     38 CA         25.2550   17.2870    0.5580 C.3       8 GLP5        0.0000 
     39 CA         30.4414   20.9119   -5.9842 C.3       4 GLC5        0.0000 
     40 CA         30.5020   20.1110   -4.3180 C.3       8 GLP5        0.0000 
     41 CA         25.5772   16.6227   -5.3565 C.3       4 GLC5        0.0000 
     42 CA         25.5400   19.1160   -5.0820 C.3      12 GLL5        0.0000 
     43 CA         25.7320   14.6270   -5.0860 C.3       8 GLP5        0.0000 
     44 CA         26.2037   18.3558   -2.9318 C.3       4 GLC5        0.0000 
     45 CA         24.7760   19.0150   -3.9210 C.3      12 GLL5        0.0000 
     46 CA         27.5360   17.2470   -2.4610 C.3       8 GLP5        0.0000 
     47 CA         26.9215   19.1030   -3.0215 C.3       4 GLC5        0.0000 
     48 CA         25.9240   20.9100   -3.0050 C.3      12 GLL5        0.0000 
     49 CA         28.5485   20.3347   -4.4992 C.3       4 GLC5        0.0000 
     50 CA         26.6900   21.0080   -4.1590 C.3      12 GLL5        0.0000 
     51 CA         26.7486   18.3054   -3.9377 C.3       4 GLC5        0.0000 
     52 CA         26.5000   20.1090   -5.2020 C.3      12 GLL5        0.0000 
@<TRIPOS>BOND
@<TRIPOS>SUBSTRUCTURE
     1 ALC1       28 GROUP        1 X    ALC  0     ROOT ALC X 1
     2 SEC2        1 GROUP        1 X    SEC  0     **** SEC X 2
     3 LYC4       11 GROUP        1 X    LYC  0     **** LYC X 4
     4 GLC5        6 GROUP        1 X    GLC  0     **** GLC X 6
     5 ALP1       30 GROUP        1 Y    ALP  0     ROOT ALP Y 8
     6 SEP2        3 GROUP        1 Y    SEP  0     **** SEP Y 9
     7 LYP4       13 GROUP        1 Y    LYP  0     **** LYP Y 11
     8 GLP5        8 GROUP        1 Y    GLP  0     **** GLP Y 13
     9 ALL1       29 GROUP        1 Z    ALL  0     ROOT ALL Z 15
    10 SEL2        2 GROUP        1 Z    SEL  0     **** SEL Z 16
    11 LYL4       12 GROUP        1 Z    LYL  0     **** LYL Z 18
    12 GLL5        7 GROUP        1 Z    GLL  0     **** GLL Z 20
@<TRIPOS>SET

