#    Name: 3huo_PNN_5_ligand
#    Modification time : Tue Mar 25 15:05:38 2014

@<TRIPOS>MOLECULE
3huo_PNN_5_ligand
   40    42     1     0     0
SMALL
NO_CHARGES


@<TRIPOS>ATOM
      1 O8         30.3010   17.1560   -7.6480 O.2       1 PNN301      0.0000 
      2 C7         29.6930   17.9940   -8.2940 C.2       1 PNN301      0.0000 
      3 N4         29.9220   19.2050   -8.6510 N.am      1 PNN301      0.0000 
      4 C3         30.8100   20.2170   -8.0880 C.3       1 PNN301      0.0000 
      5 C11        32.2390   20.2100   -8.5910 C.2       1 PNN301      0.0000 
      6 O13        32.5400   19.5830   -9.6380 O.co2     1 PNN301      0.0000 
      7 O12        33.0720   20.7670   -7.8840 O.co2     1 PNN301      0.0000 
      8 C2         30.0470   21.5540   -8.2520 C.3       1 PNN301      0.0000 
      9 C10        30.3470   22.1720   -9.5970 C.3       1 PNN301      0.0000 
     10 C9         30.3330   22.5400   -7.1310 C.3       1 PNN301      0.0000 
     11 S1         28.3370   21.0450   -8.2280 S.3       1 PNN301      0.0000 
     12 C5         28.6050   19.5550   -9.1690 C.3       1 PNN301      0.0000 
     13 C6         28.2440   18.1330   -8.5870 C.3       1 PNN301      0.0000 
     14 N14        27.4210   18.0790   -7.3940 N.am      1 PNN301      0.0000 
     15 C15        26.1130   18.3370   -7.4380 C.2       1 PNN301      0.0000 
     16 O16        25.5430   18.6520   -8.4520 O.2       1 PNN301      0.0000 
     17 C17        25.3050   18.1210   -6.1720 C.3       1 PNN301      0.0000 
     18 C18        25.5400   19.1160   -5.0820 C.ar      1 PNN301      0.0000 
     19 C19        24.7760   19.0150   -3.9210 C.ar      1 PNN301      0.0000 
     20 C20        24.9670   19.9140   -2.8840 C.ar      1 PNN301      0.0000 
     21 C21        25.9240   20.9100   -3.0050 C.ar      1 PNN301      0.0000 
     22 C22        26.6900   21.0080   -4.1590 C.ar      1 PNN301      0.0000 
     23 C23        26.5000   20.1090   -5.2020 C.ar      1 PNN301      0.0000 
     24 H          30.8318   20.0458   -6.9731 H         1 PNN301      0.0000 
     25 H          28.5793   19.6650  -10.0802 H         1 PNN301      0.0000 
     26 H          28.0218   17.5371   -9.3889 H         1 PNN301      0.0000 
     27 H          27.9080   17.8292   -6.5104 H         1 PNN301      0.0000 
     28 H          25.5182   17.0971   -5.7887 H         1 PNN301      0.0000 
     29 H          24.2240   18.1170   -6.4406 H         1 PNN301      0.0000 
     30 H          24.0702   18.2709   -3.8370 H         1 PNN301      0.0000 
     31 H          24.4018   19.8432   -2.0284 H         1 PNN301      0.0000 
     32 H          26.0681   21.5810   -2.2355 H         1 PNN301      0.0000 
     33 H          27.4009   21.7484   -4.2430 H         1 PNN301      0.0000 
     34 H          27.0670   20.1812   -6.0538 H         1 PNN301      0.0000 
     35 H          31.3230   22.3577   -9.7110 H         1 PNN301      0.0000 
     36 H          30.0725   21.5740  -10.3500 H         1 PNN301      0.0000 
     37 H          29.8669   23.0402   -9.7222 H         1 PNN301      0.0000 
     38 H          31.3046   22.7704   -7.0780 H         1 PNN301      0.0000 
     39 H          29.8346   23.3980   -7.2549 H         1 PNN301      0.0000 
     40 H          30.0694   22.1742   -6.2384 H         1 PNN301      0.0000 
@<TRIPOS>BOND
     1    2    1 2    
     2    3    2 am   
     3   13    2 1    
     4    4    3 1    
     5   12    3 1    
     6    5    4 1    
     7    8    4 1    
     8   24    4 1    
     9    6    5 ar   
    10    7    5 ar   
    11    9    8 1    
    12   10    8 1    
    13   11    8 1    
    14   35    9 1    
    15   36    9 1    
    16   37    9 1    
    17   38   10 1    
    18   39   10 1    
    19   40   10 1    
    20   12   11 1    
    21   13   12 1    
    22   25   12 1    
    23   14   13 1    
    24   26   13 1    
    25   15   14 am   
    26   27   14 1    
    27   16   15 2    
    28   17   15 1    
    29   18   17 1    
    30   28   17 1    
    31   29   17 1    
    32   19   18 ar   
    33   23   18 ar   
    34   20   19 ar   
    35   30   19 1    
    36   21   20 ar   
    37   31   20 1    
    38   22   21 ar   
    39   32   21 1    
    40   23   22 ar   
    41   33   22 1    
    42   34   23 1    
@<TRIPOS>SUBSTRUCTURE
     1 PNN301      1 GROUP   
@<TRIPOS>SET

