#    Name: 3qh5_NX6_3_INTS_M
#    Modification time : Tue Mar 25 09:46:48 2014

@<TRIPOS>MOLECULE
3qh5_NX6_3_INTS_M
   44     0    12     0     0
SMALL
NO_CHARGES


@<TRIPOS>ATOM
      1 O          33.6960   40.2240   -3.9645 O.2       1 ALC1        0.0000 
      2 O          35.0040   40.1750   -4.1830 O.2       9 ALL1        0.0000 
      3 O          32.3880   40.2730   -3.7460 O.2       5 ALP1        0.0000 
      4 Zn         36.5450   42.9515   -6.9595 Zn        3 ZIC7        0.0000 
      5 Zn         36.4840   41.9720   -6.8040 Zn       11 ZIL7        0.0000 
      6 Zn         36.6060   43.9310   -7.1150 Zn        7 ZIP7        0.0000 
      7 N          37.5940   41.1790   -7.2030 N.am      2 SEC2        0.0000 
      8 N          36.4840   41.9720   -6.8040 N.am     10 SEL2        0.0000 
      9 N          38.7040   40.3860   -7.6020 N.am      6 SEP2        0.0000 
     10 CA         34.4595   38.6245   -0.7425 C.3       4 GLC5        0.0000 
     11 CA         35.8950   40.2200   -0.8010 C.3      12 GLL5        0.0000 
     12 CA         33.0240   37.0290   -0.6840 C.3       8 GLP5        0.0000 
     13 CA         36.8800   39.2355    0.8530 C.3       4 GLC5        0.0000 
     14 CA         37.8650   38.2510    2.5070 C.3       8 GLP5        0.0000 
     15 N          33.6225   39.4590   -1.7365 N.am      2 SEC2        0.0000 
     16 N          35.1160   39.7950   -2.0070 N.am     10 SEL2        0.0000 
     17 N          32.1290   39.1230   -1.4660 N.am      6 SEP2        0.0000 
     18 CA         38.8610   43.6250    2.0170 C.3       4 GLC5        0.0000 
     19 CA         38.1500   43.0140    0.1610 C.3      12 GLL5        0.0000 
     20 CA         39.5720   44.2360    3.8730 C.3       8 GLP5        0.0000 
     21 CA         32.3445   39.8830   -6.2325 C.3       4 GLC5        0.0000 
     22 CA         34.3530   39.6440   -6.3640 C.3      12 GLL5        0.0000 
     23 CA         30.3360   40.1220   -6.1010 C.3       8 GLP5        0.0000 
     24 Zn         35.7250   43.2630   -6.3120 Zn        3 ZIC7        0.0000 
     25 Zn         34.8440   42.5950   -5.5090 Zn       11 ZIL7        0.0000 
     26 N          34.0800   42.9625   -4.5305 N.am      2 SEC2        0.0000 
     27 N          34.8440   42.5950   -5.5090 N.am     10 SEL2        0.0000 
     28 N          33.3160   43.3300   -3.5520 N.am      6 SEP2        0.0000 
     29 CA         35.0643   40.2398    0.5948 C.3       4 GLC5        0.0000 
     30 CA         36.4960   41.4970   -0.7540 C.3      12 GLL5        0.0000 
     31 CA         33.9330   39.6210    1.9670 C.3       8 GLP5        0.0000 
     32 CA         39.3413   44.5425   -0.2328 C.3       4 GLC5        0.0000 
     33 CA         40.7640   45.5600   -0.2160 C.3       8 GLP5        0.0000 
     34 CA         39.0185   41.0909   -0.2662 C.3       4 GLC5        0.0000 
     35 CA         40.4520   39.8620   -0.4550 C.3       8 GLP5        0.0000 
     36 CA         36.7375   43.8820    1.1034 C.3       4 GLC5        0.0000 
     37 CA         37.5440   41.7540    0.1220 C.3      12 GLL5        0.0000 
     38 CA         35.7080   44.5540    2.4660 C.3       8 GLP5        0.0000 
     39 CA         36.8640   45.2343   -2.5205 C.3       4 GLC5        0.0000 
     40 CA         37.6870   44.0360   -0.6600 C.3      12 GLL5        0.0000 
     41 CA         36.5690   46.5660   -3.9490 C.3       8 GLP5        0.0000 
     42 CA         35.0654   43.5480   -0.1659 C.3       4 GLC5        0.0000 
     43 CA         36.6310   43.7690   -1.5240 C.3      12 GLL5        0.0000 
     44 CA         33.6840   44.2080    1.0090 C.3       8 GLP5        0.0000 
@<TRIPOS>BOND
@<TRIPOS>SUBSTRUCTURE
     1 ALC1        1 GROUP        1 X    ALC  0     ROOT ALC X 1
     2 SEC2        7 GROUP        1 X    SEC  0     **** SEC X 2
     3 ZIC7        4 GROUP        1 X    ZIC  0     **** ZIC X 5
     4 GLC5       10 GROUP        1 X    GLC  0     **** GLC X 6
     5 ALP1        3 GROUP        1 Y    ALP  0     ROOT ALP Y 8
     6 SEP2        9 GROUP        1 Y    SEP  0     **** SEP Y 9
     7 ZIP7        6 GROUP        1 Y    ZIP  0     **** ZIP Y 12
     8 GLP5       12 GROUP        1 Y    GLP  0     **** GLP Y 13
     9 ALL1        2 GROUP        1 Z    ALL  0     ROOT ALL Z 15
    10 SEL2        8 GROUP        1 Z    SEL  0     **** SEL Z 16
    11 ZIL7        5 GROUP        1 Z    ZIL  0     **** ZIL Z 19
    12 GLL5       11 GROUP        1 Z    GLL  0     **** GLL Z 20
@<TRIPOS>SET

