#    Name: 3qh5_NX6_3_ligand
#    Modification time : Tue Mar 25 09:46:48 2014

@<TRIPOS>MOLECULE
3qh5_NX6_3_ligand
   30    30     1     0     0
SMALL
NO_CHARGES


@<TRIPOS>ATOM
      1 C          35.6110   41.7420   -5.9670 C.2       1 NX6999      0.0000 
      2 N          35.0040   40.1750   -4.1830 N.am      1 NX6999      0.0000 
      3 O          36.4840   41.9720   -6.8040 O.co2     1 NX6999      0.0000 
      4 C1         35.7910   39.9200   -3.1800 C.2       1 NX6999      0.0000 
      5 O1         37.0070   39.7540   -3.2910 O.2       1 NX6999      0.0000 
      6 C2         35.8950   40.2200   -0.8010 C.3       1 NX6999      0.0000 
      7 O2         35.1160   39.7950   -2.0070 O.3       1 NX6999      0.0000 
      8 C3         36.4960   41.4970   -0.7540 C.ar      1 NX6999      0.0000 
      9 C4         37.5440   41.7540    0.1220 C.ar      1 NX6999      0.0000 
     10 C5         38.1500   43.0140    0.1610 C.ar      1 NX6999      0.0000 
     11 C6         37.6870   44.0360   -0.6600 C.ar      1 NX6999      0.0000 
     12 C7         36.6310   43.7690   -1.5240 C.ar      1 NX6999      0.0000 
     13 C8         36.0290   42.5170   -1.5610 C.ar      1 NX6999      0.0000 
     14 CA         35.4560   40.2800   -5.5360 C.3       1 NX6999      0.0000 
     15 CB         34.3530   39.6440   -6.3640 C.3       1 NX6999      0.0000 
     16 CG         34.9800   38.7270   -7.3670 C.2       1 NX6999      0.0000 
     17 OD1        35.3260   37.5880   -6.9280 O.co2     1 NX6999      0.0000 
     18 OD2        35.1200   39.2200   -8.5220 O.co2     1 NX6999      0.0000 
     19 OXT        34.8440   42.5950   -5.5090 O.co2     1 NX6999      0.0000 
     20 H          33.9602   40.3220   -4.0461 H         1 NX6999      0.0000 
     21 H          36.6828   39.4073   -0.6120 H         1 NX6999      0.0000 
     22 H          35.2069   40.0755    0.1059 H         1 NX6999      0.0000 
     23 H          37.8816   41.0096    0.7522 H         1 NX6999      0.0000 
     24 H          38.9384   43.1808    0.7987 H         1 NX6999      0.0000 
     25 H          38.1125   44.9610   -0.6292 H         1 NX6999      0.0000 
     26 H          36.2862   44.5184   -2.1526 H         1 NX6999      0.0000 
     27 H          35.2316   42.3521   -2.1938 H         1 NX6999      0.0000 
     28 H          36.3534   39.7539   -5.7050 H         1 NX6999      0.0000 
     29 H          33.7932   40.4220   -6.8696 H         1 NX6999      0.0000 
     30 H          33.6934   39.0856   -5.7102 H         1 NX6999      0.0000 
@<TRIPOS>BOND
     1    3    1 ar   
     2   14    1 1    
     3   19    1 ar   
     4    4    2 am   
     5   14    2 1    
     6   20    2 1    
     7    5    4 2    
     8    7    4 1    
     9    7    6 1    
    10    8    6 1    
    11   21    6 1    
    12   22    6 1    
    13    9    8 ar   
    14   13    8 ar   
    15   10    9 ar   
    16   23    9 1    
    17   11   10 ar   
    18   24   10 1    
    19   12   11 ar   
    20   25   11 1    
    21   13   12 ar   
    22   26   12 1    
    23   27   13 1    
    24   15   14 1    
    25   28   14 1    
    26   16   15 1    
    27   29   15 1    
    28   30   15 1    
    29   17   16 ar   
    30   18   16 ar   
@<TRIPOS>SUBSTRUCTURE
     1 NX6999      1 GROUP   
@<TRIPOS>SET

