#    Name: 3vcy_UD1_4_INTS_M
#    Modification time : Tue Mar 25 00:39:51 2014

@<TRIPOS>MOLECULE
3vcy_UD1_4_INTS_M
   70     0    12     0     0
SMALL
NO_CHARGES


@<TRIPOS>ATOM
      1 CA         25.9430   21.6760   24.9575 C.3       4 GLC5        0.0000 
      2 CA         27.0440   20.2210   23.9500 C.3      12 GLL5        0.0000 
      3 CA         24.8420   23.1310   25.9650 C.3       8 GLP5        0.0000 
      4 CA         25.6105   16.2225   24.1455 C.3       4 GLC5        0.0000 
      5 CA         27.0340   17.5570   25.1210 C.3      12 GLL5        0.0000 
      6 CA         24.1870   14.8880   23.1700 C.3       8 GLP5        0.0000 
      7 CA         24.8420   17.1305   23.5690 C.3       4 GLC5        0.0000 
      8 CA         25.7890   18.4120   24.9240 C.3      12 GLL5        0.0000 
      9 CA         23.8950   15.8490   22.2140 C.3       8 GLP5        0.0000 
     10 CA         24.5360   20.1465   26.5070 C.3       4 GLC5        0.0000 
     11 CA         24.6760   18.1120   25.9220 C.3      12 GLL5        0.0000 
     12 CA         24.3960   22.1810   27.0920 C.3       8 GLP5        0.0000 
     13 CA         24.4300   16.2130   26.3855 C.3       4 GLC5        0.0000 
     14 CA         24.1840   14.3140   26.8490 C.3       8 GLP5        0.0000 
     15 CA         22.9030   17.0195   25.4945 C.3       4 GLC5        0.0000 
     16 CA         21.1300   15.9270   25.0670 C.3       8 GLP5        0.0000 
     17 CA         24.4315   16.5000   24.5460 C.3       4 GLC5        0.0000 
     18 CA         33.1680   21.4880   21.7225 C.3       4 GLC5        0.0000 
     19 CA         31.0710   21.2300   22.1660 C.3      12 GLL5        0.0000 
     20 CA         35.2650   21.7460   21.2790 C.3       8 GLP5        0.0000 
     21 CA         31.7875   22.0275   20.3605 C.3       4 GLC5        0.0000 
     22 CA         32.5040   22.8250   18.5550 C.3       8 GLP5        0.0000 
     23 CA         30.5330   22.9085   22.3355 C.3       4 GLC5        0.0000 
     24 CA         29.9950   24.5870   22.5050 C.3       8 GLP5        0.0000 
     25 N          30.0915   18.0340   25.4435 N.am      2 SEC2        0.0000 
     26 N          29.2620   17.2010   24.2950 N.am     10 SEL2        0.0000 
     27 N          30.9210   18.8670   26.5920 N.am      6 SEP2        0.0000 
     28 O          29.5345   16.4640   25.5930 O.2       1 ALC1        0.0000 
     29 O          29.2620   17.2010   24.2950 O.2       9 ALL1        0.0000 
     30 O          29.8070   15.7270   26.8910 O.2       5 ALP1        0.0000 
     31 O          27.5075   15.2410   25.5820 O.2       1 ALC1        0.0000 
     32 O          26.7060   16.1540   25.0780 O.2       9 ALL1        0.0000 
     33 O          28.3090   14.3280   26.0860 O.2       5 ALP1        0.0000 
     34 O          17.3130   23.1935   17.1985 O.2       1 ALC1        0.0000 
     35 O          18.0620   22.7890   18.3750 O.2       9 ALL1        0.0000 
     36 O          16.5640   23.5980   16.0220 O.2       5 ALP1        0.0000 
     37 CA         21.3530   24.6690   18.6815 C.3       4 GLC5        0.0000 
     38 CA         20.1880   23.0120   19.4330 C.3      12 GLL5        0.0000 
     39 CA         22.5180   26.3260   17.9300 C.3       8 GLP5        0.0000 
     40 N          18.5645   25.6575   17.5310 N.am      2 SEC2        0.0000 
     41 N          19.3910   24.5880   17.9780 N.am     10 SEL2        0.0000 
     42 N          17.7380   26.7270   17.0840 N.am      6 SEP2        0.0000 
     43 CA         21.3420   16.7250   21.3670 C.3       4 GLC5        0.0000 
     44 CA         19.7010   17.8790   21.5250 C.3      12 GLL5        0.0000 
     45 CA         22.9830   15.5710   21.2090 C.3       8 GLP5        0.0000 
     46 O          18.8130   15.6460   22.0630 O.2       1 ALC1        0.0000 
     47 O          18.6810   16.8820   21.3330 O.2       9 ALL1        0.0000 
     48 O          18.9450   14.4100   22.7930 O.2       5 ALP1        0.0000 
     49 N          21.8300   23.2210   22.2255 N.am      2 SEC2        0.0000 
     50 N          22.3660   22.0910   22.1030 N.am     10 SEL2        0.0000 
     51 N          21.2940   24.3510   22.3480 N.am      6 SEP2        0.0000 
     52 N          22.4575   22.4700   25.0150 N.am      2 SEC2        0.0000 
     53 N          22.3770   21.1290   24.5640 N.am     10 SEL2        0.0000 
     54 N          22.5380   23.8110   25.4660 N.am      6 SEP2        0.0000 
     55 N          24.9845   23.5050   22.9500 N.am      2 SEC2        0.0000 
     56 N          25.4450   22.2590   22.3710 N.am     10 SEL2        0.0000 
     57 N          24.5240   24.7510   23.5290 N.am      6 SEP2        0.0000 
     58 NZ         25.8395   19.1195   20.1620 N.4       3 LYC4        0.0000 
     59 NZ         25.1450   20.3610   20.6330 N.4      11 LYL4        0.0000 
     60 NZ         26.0990   16.9210   18.8840 N.4       7 LYP4        0.0000 
     61 N          25.8395   19.1195   20.1620 N.am      2 SEC2        0.0000 
     62 N          25.1450   20.3610   20.6330 N.am     10 SEL2        0.0000 
     63 N          26.5340   17.8780   19.6910 N.am      6 SEP2        0.0000 
     64 CA         18.5583   23.6732   20.4265 C.3       4 GLC5        0.0000 
     65 CA         19.9910   21.8050   20.0910 C.3      12 GLL5        0.0000 
     66 CA         17.0270   24.9380   21.0910 C.3       8 GLP5        0.0000 
     67 CA         20.0827   23.3972   21.4325 C.3       4 GLC5        0.0000 
     68 CA         20.0760   24.3860   23.1030 C.3       8 GLP5        0.0000 
     69 CA         20.5619   17.3727   23.9265 C.3       4 GLC5        0.0000 
     70 CA         20.4900   19.2830   23.4910 C.3      12 GLL5        0.0000 
@<TRIPOS>BOND
@<TRIPOS>SUBSTRUCTURE
     1 ALC1       28 GROUP        1 X    ALC  0     ROOT ALC X 1
     2 SEC2       25 GROUP        1 X    SEC  0     **** SEC X 2
     3 LYC4       58 GROUP        1 X    LYC  0     **** LYC X 4
     4 GLC5        1 GROUP        1 X    GLC  0     **** GLC X 6
     5 ALP1       30 GROUP        1 Y    ALP  0     ROOT ALP Y 8
     6 SEP2       27 GROUP        1 Y    SEP  0     **** SEP Y 9
     7 LYP4       60 GROUP        1 Y    LYP  0     **** LYP Y 11
     8 GLP5        3 GROUP        1 Y    GLP  0     **** GLP Y 13
     9 ALL1       29 GROUP        1 Z    ALL  0     ROOT ALL Z 15
    10 SEL2       26 GROUP        1 Z    SEL  0     **** SEL Z 16
    11 LYL4       59 GROUP        1 Z    LYL  0     **** LYL Z 18
    12 GLL5        2 GROUP        1 Z    GLL  0     **** GLL Z 20
@<TRIPOS>SET

