#    Name: 3vcy_UD1_4_ligand
#    Modification time : Tue Mar 25 00:39:51 2014

@<TRIPOS>MOLECULE
3vcy_UD1_4_ligand
   64    66     1     0     0
SMALL
NO_CHARGES


@<TRIPOS>ATOM
      1 C1'        27.0440   20.2210   23.9500 C.3       1 UD1501      0.0000 
      2 C2'        28.3530   19.4420   24.1060 C.3       1 UD1501      0.0000 
      3 C3'        28.0720   17.9360   24.0550 C.3       1 UD1501      0.0000 
      4 C4'        27.0340   17.5570   25.1210 C.3       1 UD1501      0.0000 
      5 C5'        25.7890   18.4120   24.9240 C.3       1 UD1501      0.0000 
      6 C6'        24.6760   18.1120   25.9220 C.3       1 UD1501      0.0000 
      7 C7'        30.1290   20.9120   23.2880 C.2       1 UD1501      0.0000 
      8 C8'        31.0710   21.2300   22.1660 C.3       1 UD1501      0.0000 
      9 N2'        29.3160   19.8680   23.1070 N.am      1 UD1501      0.0000 
     10 O1'        26.4850   19.9360   22.6520 O.3       1 UD1501      0.0000 
     11 O3'        29.2620   17.2010   24.2950 O.3       1 UD1501      0.0000 
     12 O4'        26.7060   16.1540   25.0780 O.3       1 UD1501      0.0000 
     13 O5'        26.1610   19.7990   25.0050 O.3       1 UD1501      0.0000 
     14 O6'        25.1860   18.1620   27.2570 O.3       1 UD1501      0.0000 
     15 O7'        30.1280   21.5720   24.3100 O.2       1 UD1501      0.0000 
     16 N1         18.8660   21.0890   19.8810 N.am      1 UD1501      0.0000 
     17 C2         17.8690   21.6180   19.0110 C.2       1 UD1501      0.0000 
     18 N3         18.0620   22.7890   18.3750 N.am      1 UD1501      0.0000 
     19 C4         19.2060   23.4880   18.5610 C.2       1 UD1501      0.0000 
     20 C5         20.1880   23.0120   19.4330 C.2       1 UD1501      0.0000 
     21 C6         19.9910   21.8050   20.0910 C.2       1 UD1501      0.0000 
     22 O2         16.8180   20.9680   18.8030 O.2       1 UD1501      0.0000 
     23 O4         19.3910   24.5880   17.9780 O.2       1 UD1501      0.0000 
     24 C1B        18.6520   19.7920   20.5640 C.3       1 UD1501      0.0000 
     25 C2B        19.7670   18.7760   20.3200 C.3       1 UD1501      0.0000 
     26 O2'        19.5860   17.9630   19.1750 O.3       1 UD1501      0.0000 
     27 C3B        19.7010   17.8790   21.5250 C.3       1 UD1501      0.0000 
     28 C4B        19.2940   18.8290   22.6370 C.3       1 UD1501      0.0000 
     29 O4B        18.6650   19.9550   21.9870 O.3       1 UD1501      0.0000 
     30 O3B        18.6810   16.8820   21.3330 O.3       1 UD1501      0.0000 
     31 C5B        20.4900   19.2830   23.4910 C.3       1 UD1501      0.0000 
     32 O5B        21.5510   19.7510   22.6580 O.3       1 UD1501      0.0000 
     33 PA         22.5400   20.9630   23.0760 P.3       1 UD1501      0.0000 
     34 O1A        22.3660   22.0910   22.1030 O.co2     1 UD1501      0.0000 
     35 O2A        22.3770   21.1290   24.5640 O.co2     1 UD1501      0.0000 
     36 O3A        23.9620   20.2020   22.8510 O.3       1 UD1501      0.0000 
     37 PB         25.2310   20.7900   22.0700 P.3       1 UD1501      0.0000 
     38 O1B        25.4450   22.2590   22.3710 O.co2     1 UD1501      0.0000 
     39 O2B        25.1450   20.3610   20.6330 O.co2     1 UD1501      0.0000 
     40 H          27.2826   21.2651   24.0472 H         1 UD1501      0.0000 
     41 H          28.7351   19.6674   25.1126 H         1 UD1501      0.0000 
     42 H          27.6507   17.7038   23.0894 H         1 UD1501      0.0000 
     43 H          27.4588   17.8230   26.0926 H         1 UD1501      0.0000 
     44 H          25.4011   18.2029   23.9176 H         1 UD1501      0.0000 
     45 H          24.2671   17.1221   25.6817 H         1 UD1501      0.0000 
     46 H          23.8772   18.8486   25.7660 H         1 UD1501      0.0000 
     47 H          29.3367   19.3026   22.2254 H         1 UD1501      0.0000 
     48 H          17.3271   23.1625   17.7341 H         1 UD1501      0.0000 
     49 H          21.0452   23.5515   19.5834 H         1 UD1501      0.0000 
     50 H          20.7230   21.4664   20.7444 H         1 UD1501      0.0000 
     51 H          17.7271   19.3389   20.2576 H         1 UD1501      0.0000 
     52 H          20.7024   19.2818   20.3440 H         1 UD1501      0.0000 
     53 H          20.6470   17.4901   21.7295 H         1 UD1501      0.0000 
     54 H          18.5837   18.3220   23.2707 H         1 UD1501      0.0000 
     55 H          20.7997   18.4265   24.1051 H         1 UD1501      0.0000 
     56 H          20.1295   20.0655   24.1723 H         1 UD1501      0.0000 
     57 H          31.6443   22.0221   22.3756 H         1 UD1501      0.0000 
     58 H          31.6863   20.4665   21.9700 H         1 UD1501      0.0000 
     59 H          30.5825   21.4378   21.3185 H         1 UD1501      0.0000 
     60 H          29.1569   16.8331   25.2189 H         1 UD1501      0.0000 
     61 H          27.4591   15.6976   25.5519 H         1 UD1501      0.0000 
     62 H          24.3961   18.3871   27.8274 H         1 UD1501      0.0000 
     63 H          19.0032   17.2105   19.4816 H         1 UD1501      0.0000 
     64 H          18.9580   16.1140   21.9105 H         1 UD1501      0.0000 
@<TRIPOS>BOND
     1    2    1 1    
     2   10    1 1    
     3   13    1 1    
     4   40    1 1    
     5    3    2 1    
     6    9    2 1    
     7   41    2 1    
     8    4    3 1    
     9   11    3 1    
    10   42    3 1    
    11    5    4 1    
    12   12    4 1    
    13   43    4 1    
    14    6    5 1    
    15   13    5 1    
    16   44    5 1    
    17   14    6 1    
    18   45    6 1    
    19   46    6 1    
    20    8    7 1    
    21    9    7 am   
    22   15    7 2    
    23   57    8 1    
    24   58    8 1    
    25   59    8 1    
    26   47    9 1    
    27   37   10 1    
    28   60   11 1    
    29   61   12 1    
    30   62   14 1    
    31   17   16 1    
    32   21   16 1    
    33   24   16 1    
    34   18   17 1    
    35   22   17 2    
    36   19   18 1    
    37   48   18 1    
    38   20   19 1    
    39   23   19 2    
    40   21   20 2    
    41   49   20 1    
    42   50   21 1    
    43   25   24 1    
    44   29   24 1    
    45   51   24 1    
    46   26   25 1    
    47   27   25 1    
    48   52   25 1    
    49   63   26 1    
    50   28   27 1    
    51   30   27 1    
    52   53   27 1    
    53   29   28 1    
    54   31   28 1    
    55   54   28 1    
    56   64   30 1    
    57   32   31 1    
    58   55   31 1    
    59   56   31 1    
    60   33   32 1    
    61   34   33 ar   
    62   35   33 ar   
    63   36   33 1    
    64   37   36 1    
    65   38   37 ar   
    66   39   37 ar   
@<TRIPOS>SUBSTRUCTURE
     1 UD1501      1 GROUP   
@<TRIPOS>SET

