#    Name: 4LRH_2_CAVITY_N1_6.mol2
#    Modification time : Tue Mar 11 14:04:47 2014

@<TRIPOS>MOLECULE
4LRH_2_CAVITY_N1_6.mol2
  111     0     6     0     0
SMALL
NO_CHARGES


@<TRIPOS>ATOM
      1 CZ          8.2575  -15.5533  -11.5968 C.ar      4 PHE5        0.0000 
      2 CZ          8.7628  -14.6631  -12.6933 C.ar      4 PHE5        0.0000 
      3 N           6.8622  -15.4188  -12.1306 N.2       2 ALA2        0.0000 
      4 CZ          7.3675  -14.5287  -13.2271 C.ar      4 PHE5        0.0000 
      5 CZ          7.8728  -13.6386  -14.3237 C.ar      4 PHE5        0.0000 
      6 N           5.4669  -15.2844  -12.6645 N.2       2 ALA2        0.0000 
      7 CZ          5.9722  -14.3943  -13.7610 C.ar      4 PHE5        0.0000 
      8 CZ          6.4775  -13.5041  -14.8575 C.ar      4 PHE5        0.0000 
      9 CZ          6.9828  -12.6140  -15.9540 C.ar      4 PHE5        0.0000 
     10 CA          7.4880  -11.7239  -17.0505 C.3       5 GLY6        0.0000 
     11 CZ          5.0821  -13.3697  -15.3914 C.ar      4 PHE5        0.0000 
     12 CA          5.5874  -12.4796  -16.4879 C.3       5 GLY6        0.0000 
     13 CZ          7.5337  -15.2436   -9.6269 C.ar      4 PHE5        0.0000 
     14 CZ          8.0390  -14.3534  -10.7235 C.ar      4 PHE5        0.0000 
     15 CZ          8.5443  -13.4633  -11.8200 C.ar      4 PHE5        0.0000 
     16 N           6.1384  -15.1091  -10.1608 N.2       2 ALA2        0.0000 
     17 N           6.6437  -14.2190  -11.2573 N.2       2 ALA2        0.0000 
     18 CZ          7.1490  -13.3289  -12.3538 C.ar      4 PHE5        0.0000 
     19 CZ          7.6543  -12.4387  -13.4504 C.ar      4 PHE5        0.0000 
     20 N           4.7431  -14.9747  -10.6947 N.2       2 ALA2        0.0000 
     21 CZ          5.2484  -14.0846  -11.7912 C.ar      4 PHE5        0.0000 
     22 CZ          5.7537  -13.1944  -12.8877 C.ar      4 PHE5        0.0000 
     23 CZ          6.2589  -12.3043  -13.9842 C.ar      4 PHE5        0.0000 
     24 CZ          6.7642  -11.4142  -15.0807 C.ar      4 PHE5        0.0000 
     25 CZ          7.2695  -10.5240  -16.1772 C.ar      4 PHE5        0.0000 
     26 OG          7.7748   -9.6339  -17.2738 O.2       1 SER1        0.0000 
     27 CZ          4.8636  -12.1699  -14.5181 C.ar      4 PHE5        0.0000 
     28 CZ          5.3689  -11.2797  -15.6146 C.ar      4 PHE5        0.0000 
     29 CZ          5.8742  -10.3896  -16.7111 C.ar      4 PHE5        0.0000 
     30 O           4.2060  -23.4144  -19.8453 O.2       2 ALA2        0.0000 
     31 CA         11.5376  -18.7067  -16.7491 C.3       5 GLY6        0.0000 
     32 CZ          9.6370  -19.4624  -16.1865 C.ar      4 PHE5        0.0000 
     33 CA         10.1423  -18.5723  -17.2830 C.3       5 GLY6        0.0000 
     34 OD1        10.6475  -17.6822  -18.3795 O.3       3 ASP3        0.0000 
     35 O           8.2416  -19.3280  -16.7203 O.2       2 ALA2        0.0000 
     36 DU          8.7469  -18.4379  -17.8168 H         6 CUB7        0.0000 
     37 N           9.2522  -17.5478  -18.9134 N.2       2 ALA2        0.0000 
     38 N           6.3410  -20.0837  -16.1577 N.2       2 ALA2        0.0000 
     39 DU          6.8463  -19.1936  -17.2542 H         6 CUB7        0.0000 
     40 CZ          7.3516  -18.3035  -18.3507 C.ar      4 PHE5        0.0000 
     41 CZ          7.8569  -17.4133  -19.4472 C.ar      4 PHE5        0.0000 
     42 CZ          5.4510  -19.0592  -17.7880 C.ar      4 PHE5        0.0000 
     43 CZ          8.8311  -11.3733  -12.0432 C.ar      4 PHE5        0.0000 
     44 CZ          5.9199  -13.9093   -9.2875 C.ar      4 PHE5        0.0000 
     45 CZ          6.4252  -13.0192  -10.3840 C.ar      4 PHE5        0.0000 
     46 CZ          6.9304  -12.1290  -11.4805 C.ar      4 PHE5        0.0000 
     47 CZ          7.4357  -11.2389  -12.5771 C.ar      4 PHE5        0.0000 
     48 OG          7.9410  -10.3488  -13.6736 O.2       1 SER1        0.0000 
     49 CA          4.5245  -13.7749   -9.8214 C.3       5 GLY6        0.0000 
     50 CZ          5.0298  -12.8847  -10.9179 C.ar      4 PHE5        0.0000 
     51 CZ          5.5351  -11.9946  -12.0144 C.ar      4 PHE5        0.0000 
     52 OG          6.0404  -11.1045  -13.1109 O.2       1 SER1        0.0000 
     53 OG          6.5457  -10.2143  -14.2074 O.2       1 SER1        0.0000 
     54 OG          7.0510   -9.3242  -15.3039 O.2       1 SER1        0.0000 
     55 OG          7.5563   -8.4341  -16.4005 O.2       1 SER1        0.0000 
     56 CZ          4.6451  -10.9700  -13.6448 C.ar      4 PHE5        0.0000 
     57 CZ          7.8046  -16.9284  -14.9737 C.ar      4 PHE5        0.0000 
     58 CA          5.9040  -17.6841  -14.4111 C.3       5 GLY6        0.0000 
     59 DU          6.4093  -16.7939  -15.5076 H         6 CUB7        0.0000 
     60 CA          6.9145  -15.9038  -16.6041 C.3       5 GLY6        0.0000 
     61 CA          4.5086  -17.5496  -14.9449 C.3       5 GLY6        0.0000 
     62 N           5.0139  -16.6595  -16.0414 N.2       2 ALA2        0.0000 
     63 CZ          5.5192  -15.7694  -17.1380 C.ar      4 PHE5        0.0000 
     64 CA         11.7561  -19.9066  -17.6224 C.3       5 GLY6        0.0000 
     65 CA         10.3608  -19.7721  -18.1563 C.3       5 GLY6        0.0000 
     66 OD1        10.8661  -18.8820  -19.2528 O.3       3 ASP3        0.0000 
     67 OD1        11.3714  -17.9919  -20.3493 O.3       3 ASP3        0.0000 
     68 O           8.4602  -20.5278  -17.5936 O.2       2 ALA2        0.0000 
     69 DU          8.9655  -19.6377  -18.6901 H         6 CUB7        0.0000 
     70 DU          9.4707  -18.7476  -19.7867 H         6 CUB7        0.0000 
     71 N           9.9760  -17.8575  -20.8832 N.2       2 ALA2        0.0000 
     72 N           6.0543  -22.1737  -15.9344 N.2       2 ALA2        0.0000 
     73 N           6.5596  -21.2836  -17.0310 N.2       2 ALA2        0.0000 
     74 DU          7.0649  -20.3934  -18.1275 H         6 CUB7        0.0000 
     75 CZ          7.5701  -19.5033  -19.2240 C.ar      4 PHE5        0.0000 
     76 CZ          8.0754  -18.6132  -20.3205 C.ar      4 PHE5        0.0000 
     77 O           5.6695  -20.2590  -18.6613 O.2       2 ALA2        0.0000 
     78 CZ          5.7013  -12.7095   -8.4142 C.ar      4 PHE5        0.0000 
     79 CZ          6.2066  -11.8193   -9.5107 C.ar      4 PHE5        0.0000 
     80 CZ          6.7119  -10.9292  -10.6072 C.ar      4 PHE5        0.0000 
     81 OG          7.2172  -10.0391  -11.7038 O.2       1 SER1        0.0000 
     82 CA          4.3060  -12.5750   -8.9481 C.3       5 GLY6        0.0000 
     83 OG          5.8219   -9.9046  -12.2376 O.2       1 SER1        0.0000 
     84 CZ          7.5860  -15.7285  -14.1004 C.ar      4 PHE5        0.0000 
     85 CA          5.6854  -16.4842  -13.5378 C.3       5 GLY6        0.0000 
     86 CA          6.1907  -15.5941  -14.6343 C.3       5 GLY6        0.0000 
     87 CZ          6.6960  -14.7040  -15.7308 C.ar      4 PHE5        0.0000 
     88 CZ          4.7954  -15.4597  -15.1681 C.ar      4 PHE5        0.0000 
     89 CA         10.0740  -21.8621  -17.9331 C.3       5 GLY6        0.0000 
     90 O           7.6681  -23.5079  -16.2739 O.2       2 ALA2        0.0000 
     91 O           8.1734  -22.6178  -17.3704 O.2       2 ALA2        0.0000 
     92 DU          8.6787  -21.7277  -18.4669 H         6 CUB7        0.0000 
     93 DU          9.1840  -20.8375  -19.5634 H         6 CUB7        0.0000 
     94 DU          9.6893  -19.9474  -20.6600 H         6 CUB7        0.0000 
     95 CA          6.2728  -23.3735  -16.8077 C.3       5 GLY6        0.0000 
     96 DU          6.7781  -22.4834  -17.9043 H         6 CUB7        0.0000 
     97 O           7.2834  -21.5933  -19.0008 O.2       2 ALA2        0.0000 
     98 CZ          7.7887  -20.7031  -20.0973 C.ar      4 PHE5        0.0000 
     99 CZ          8.7992  -18.9229  -22.2903 C.ar      4 PHE5        0.0000 
    100 CA          4.8775  -23.2391  -17.3416 C.3       5 GLY6        0.0000 
    101 N           5.3828  -22.3490  -18.4381 N.2       2 ALA2        0.0000 
    102 O           5.8881  -21.4588  -19.5346 O.2       2 ALA2        0.0000 
    103 CZ          8.0231  -18.1282  -15.8470 C.ar      4 PHE5        0.0000 
    104 CZ          8.5284  -17.2381  -16.9435 C.ar      4 PHE5        0.0000 
    105 CZ          6.1225  -18.8839  -15.2844 C.ar      4 PHE5        0.0000 
    106 DU          6.6278  -17.9938  -16.3809 H         6 CUB7        0.0000 
    107 CA          7.1331  -17.1036  -17.4774 C.3       5 GLY6        0.0000 
    108 N           7.6384  -16.2135  -18.5739 N.2       2 ALA2        0.0000 
    109 N           4.7272  -18.7495  -15.8182 N.2       2 ALA2        0.0000 
    110 N           5.2325  -17.8593  -16.9147 N.2       2 ALA2        0.0000 
    111 CZ          5.7377  -16.9692  -18.0112 C.ar      4 PHE5        0.0000 
@<TRIPOS>BOND
@<TRIPOS>SUBSTRUCTURE
     1 SER1       26 GROUP   
     2 ALA2        3 GROUP   
     3 ASP3       34 GROUP   
     4 PHE5        1 GROUP   
     5 GLY6       10 GROUP   
     6 CUB7       36 GROUP   
@<TRIPOS>SET

