#    Name: 4lrh_FOL_2_INTS_M
#    Modification time : Tue Mar 25 11:24:36 2014

@<TRIPOS>MOLECULE
4lrh_FOL_2_INTS_M
   59     0    12     0     0
SMALL
NO_CHARGES


@<TRIPOS>ATOM
      1 O           4.3015  -10.6905   -8.5450 O.2       1 ALC1        0.0000 
      2 O           5.0470  -12.0530   -9.2830 O.2       9 ALL1        0.0000 
      3 O           3.5560   -9.3280   -7.8070 O.2       5 ALP1        0.0000 
      4 O           4.3225  -10.8855   -9.6345 O.2       1 ALC1        0.0000 
      5 O           3.5980   -9.7180   -9.9860 O.2       5 ALP1        0.0000 
      6 O           3.9795  -10.6470   -7.4050 O.2       1 ALC1        0.0000 
      7 O           4.4030  -11.9660   -7.0030 O.2       9 ALL1        0.0000 
      8 O           4.3530  -13.4195   -6.3050 O.2       1 ALC1        0.0000 
      9 O           4.3030  -14.8730   -5.6070 O.2       5 ALP1        0.0000 
     10 N           4.7535  -14.4400   -6.7640 N.am      2 SEC2        0.0000 
     11 N           5.2040  -14.0070   -7.9210 N.am     10 SEL2        0.0000 
     12 N           4.3030  -14.8730   -5.6070 N.am      6 SEP2        0.0000 
     13 N           7.3090  -16.7925   -8.8165 N.am      2 SEC2        0.0000 
     14 N           5.9500  -15.9650   -8.7900 N.am     10 SEL2        0.0000 
     15 N           8.6680  -17.6200   -8.8430 N.am      6 SEP2        0.0000 
     16 CA          3.7525  -14.6085   -9.7135 C.3       4 GLC5        0.0000 
     17 CA          5.8510  -14.1230  -10.3030 C.3      12 GLL5        0.0000 
     18 CA          1.6540  -15.0940   -9.1240 C.3       8 GLP5        0.0000 
     19 N           5.4265  -16.1235  -11.3905 N.am      2 SEC2        0.0000 
     20 N           6.2850  -14.7800  -11.4020 N.am     10 SEL2        0.0000 
     21 N           4.5680  -17.4670  -11.3790 N.am      6 SEP2        0.0000 
     22 CA          6.8095  -11.5555   -9.0710 C.3       4 GLC5        0.0000 
     23 CA          5.5150  -12.7280  -10.4110 C.3      12 GLL5        0.0000 
     24 CA          8.1040  -10.3830   -7.7310 C.3       8 GLP5        0.0000 
     25 CA          8.5590  -14.9740  -14.7300 C.3       4 GLC5        0.0000 
     26 CA          6.8780  -14.8920  -13.7890 C.3      12 GLL5        0.0000 
     27 CA         10.2400  -15.0560  -15.6710 C.3       8 GLP5        0.0000 
     28 CA          7.6520  -16.6980  -13.0725 C.3       4 GLC5        0.0000 
     29 CA          8.4260  -18.5040  -12.3560 C.3       8 GLP5        0.0000 
     30 CA          5.4000  -16.4190  -13.1405 C.3       4 GLC5        0.0000 
     31 CA          3.9220  -17.9460  -12.4920 C.3       8 GLP5        0.0000 
     32 CA          4.6675  -14.7765  -13.7805 C.3       4 GLC5        0.0000 
     33 CA          2.4570  -14.6610  -13.7720 C.3       8 GLP5        0.0000 
     34 O           4.4425  -20.9135  -16.9770 O.2       1 ALC1        0.0000 
     35 O           5.4210  -20.7530  -18.1160 O.2       9 ALL1        0.0000 
     36 O           3.4640  -21.0740  -15.8380 O.2       5 ALP1        0.0000 
     37 CA          5.1785  -21.4135  -20.7490 C.3       4 GLC5        0.0000 
     38 CA          5.6150  -21.9500  -18.9630 C.3      12 GLL5        0.0000 
     39 CA          4.7420  -20.8770  -22.5350 C.3       8 GLP5        0.0000 
     40 CA          5.1690  -23.6040  -15.8515 C.3       4 GLC5        0.0000 
     41 CA          6.6400  -22.9190  -16.7770 C.3      12 GLL5        0.0000 
     42 CA          3.6980  -24.2890  -14.9260 C.3       8 GLP5        0.0000 
     43 NZ          6.2505  -24.9840  -14.0980 N.4       3 LYC4        0.0000 
     44 NZ          7.8030  -23.9930  -14.8370 N.4      11 LYL4        0.0000 
     45 NZ          4.6980  -25.9750  -13.3590 N.4       7 LYP4        0.0000 
     46 N           8.5665  -22.7110  -14.6270 N.am      2 SEC2        0.0000 
     47 N           7.8030  -23.9930  -14.8370 N.am     10 SEL2        0.0000 
     48 N           9.3300  -21.4290  -14.4170 N.am      6 SEP2        0.0000 
     49 N           1.6975  -21.7995  -19.9355 N.am      2 SEC2        0.0000 
     50 N           3.1190  -21.8640  -19.2020 N.am     10 SEL2        0.0000 
     51 N           0.2760  -21.7350  -20.6690 N.am      6 SEP2        0.0000 
     52 N           3.8225  -20.9665  -20.3235 N.am      2 SEC2        0.0000 
     53 N           4.5260  -20.0690  -21.4450 N.am      6 SEP2        0.0000 
     54 CA          3.5925  -18.7615  -15.2130 C.3       4 GLC5        0.0000 
     55 CA          5.0030  -18.4310  -16.5070 C.3      12 GLL5        0.0000 
     56 CA          2.2460  -19.6250  -14.3670 C.3       8 GLP5        0.0000 
     57 CA          8.1515  -15.4748  -17.1950 C.3       4 GLC5        0.0000 
     58 CA          7.0740  -16.5210  -16.2960 C.3      12 GLL5        0.0000 
     59 CA          9.1600  -13.8920  -17.6400 C.3       8 GLP5        0.0000 
@<TRIPOS>BOND
@<TRIPOS>SUBSTRUCTURE
     1 ALC1        1 GROUP        1 X    ALC  0     ROOT ALC X 1
     2 SEC2       10 GROUP        1 X    SEC  0     **** SEC X 2
     3 LYC4       43 GROUP        1 X    LYC  0     **** LYC X 4
     4 GLC5       16 GROUP        1 X    GLC  0     **** GLC X 6
     5 ALP1        3 GROUP        1 Y    ALP  0     ROOT ALP Y 8
     6 SEP2       12 GROUP        1 Y    SEP  0     **** SEP Y 9
     7 LYP4       45 GROUP        1 Y    LYP  0     **** LYP Y 11
     8 GLP5       18 GROUP        1 Y    GLP  0     **** GLP Y 13
     9 ALL1        2 GROUP        1 Z    ALL  0     ROOT ALL Z 15
    10 SEL2       11 GROUP        1 Z    SEL  0     **** SEL Z 16
    11 LYL4       44 GROUP        1 Z    LYL  0     **** LYL Z 18
    12 GLL5       17 GROUP        1 Z    GLL  0     **** GLL Z 20
@<TRIPOS>SET

