#    Name: 4lrh_FOL_2_ligand
#    Modification time : Tue Mar 25 11:24:36 2014

@<TRIPOS>MOLECULE
4lrh_FOL_2_ligand
   49    51     1     0     0
SMALL
NO_CHARGES


@<TRIPOS>ATOM
      1 N1          5.0470  -12.0530   -9.2830 N.pl3     1 FOL301      0.0000 
      2 C2          4.8940  -12.6960   -8.0760 C.2       1 FOL301      0.0000 
      3 NA2         4.4030  -11.9660   -7.0030 N.pl3     1 FOL301      0.0000 
      4 N3          5.2040  -14.0070   -7.9210 N.2       1 FOL301      0.0000 
      5 C4          5.6780  -14.7770   -8.9590 C.2       1 FOL301      0.0000 
      6 O4          5.9500  -15.9650   -8.7900 O.2       1 FOL301      0.0000 
      7 C4A         5.8510  -14.1230  -10.3030 C.ar      1 FOL301      0.0000 
      8 N5          6.2850  -14.7800  -11.4020 N.ar      1 FOL301      0.0000 
      9 C6          6.4140  -14.1430  -12.5800 C.ar      1 FOL301      0.0000 
     10 C7          6.1010  -12.7750  -12.6880 C.ar      1 FOL301      0.0000 
     11 N8          5.6650  -12.1070  -11.6050 N.ar      1 FOL301      0.0000 
     12 C8A         5.5150  -12.7280  -10.4110 C.ar      1 FOL301      0.0000 
     13 C9          6.8780  -14.8920  -13.7890 C.3       1 FOL301      0.0000 
     14 N10         5.7160  -15.3480  -14.5730 N.pl3     1 FOL301      0.0000 
     15 C11         6.1700  -18.5630  -17.3180 C.ar      1 FOL301      0.0000 
     16 C12         5.0030  -18.4310  -16.5070 C.ar      1 FOL301      0.0000 
     17 C13         4.8750  -17.3650  -15.6110 C.ar      1 FOL301      0.0000 
     18 C14         5.8970  -16.4030  -15.4870 C.ar      1 FOL301      0.0000 
     19 C15         7.0740  -16.5210  -16.2960 C.ar      1 FOL301      0.0000 
     20 C16         7.2120  -17.5940  -17.2040 C.ar      1 FOL301      0.0000 
     21 C           6.2810  -19.7040  -18.2580 C.2       1 FOL301      0.0000 
     22 O           7.1150  -19.6930  -19.1500 O.2       1 FOL301      0.0000 
     23 N           5.4210  -20.7530  -18.1160 N.am      1 FOL301      0.0000 
     24 CA          5.6150  -21.9500  -18.9630 C.3       1 FOL301      0.0000 
     25 CB          6.6550  -22.9380  -18.3320 C.3       1 FOL301      0.0000 
     26 CG          6.6400  -22.9190  -16.7770 C.3       1 FOL301      0.0000 
     27 CD          7.6740  -23.8790  -16.1890 C.2       1 FOL301      0.0000 
     28 OE1         8.3860  -24.5420  -16.9220 O.co2     1 FOL301      0.0000 
     29 OE2         7.8030  -23.9930  -14.8370 O.co2     1 FOL301      0.0000 
     30 CT          4.2420  -22.6140  -19.1990 C.2       1 FOL301      0.0000 
     31 O1          4.1440  -23.8040  -19.4030 O.co2     1 FOL301      0.0000 
     32 O2          3.1190  -21.8640  -19.2020 O.co2     1 FOL301      0.0000 
     33 H           4.8114  -11.0440   -9.3647 H         1 FOL301      0.0000 
     34 H           4.1564  -11.0157   -7.1933 H         1 FOL301      0.0000 
     35 H           4.3382  -12.4533   -6.1322 H         1 FOL301      0.0000 
     36 H           6.2145  -12.3143  -13.6024 H         1 FOL301      0.0000 
     37 H           7.4797  -15.7499  -13.4733 H         1 FOL301      0.0000 
     38 H           7.5104  -14.2385  -14.3978 H         1 FOL301      0.0000 
     39 H           4.8325  -14.8987  -14.4366 H         1 FOL301      0.0000 
     40 H           4.2585  -19.1310  -16.5914 H         1 FOL301      0.0000 
     41 H           4.0275  -17.2781  -15.0342 H         1 FOL301      0.0000 
     42 H           7.8114  -15.8212  -16.2088 H         1 FOL301      0.0000 
     43 H           8.0471  -17.6818  -17.7768 H         1 FOL301      0.0000 
     44 H           4.6518  -20.7636  -17.4616 H         1 FOL301      0.0000 
     45 H           6.0017  -21.6423  -19.9353 H         1 FOL301      0.0000 
     46 H           7.6507  -22.6636  -18.6814 H         1 FOL301      0.0000 
     47 H           6.4290  -23.9471  -18.6775 H         1 FOL301      0.0000 
     48 H           5.6441  -23.2016  -16.4368 H         1 FOL301      0.0000 
     49 H           6.8511  -21.9042  -16.4410 H         1 FOL301      0.0000 
@<TRIPOS>BOND
     1    2    1 1    
     2   12    1 1    
     3   33    1 1    
     4    3    2 1    
     5    4    2 2    
     6   34    3 1    
     7   35    3 1    
     8    5    4 1    
     9    6    5 2    
    10    7    5 1    
    11    8    7 ar   
    12   12    7 ar   
    13    9    8 ar   
    14   10    9 ar   
    15   13    9 1    
    16   11   10 ar   
    17   36   10 1    
    18   12   11 ar   
    19   14   13 1    
    20   37   13 1    
    21   38   13 1    
    22   18   14 1    
    23   39   14 1    
    24   16   15 ar   
    25   20   15 ar   
    26   21   15 1    
    27   17   16 ar   
    28   40   16 1    
    29   18   17 ar   
    30   41   17 1    
    31   19   18 ar   
    32   20   19 ar   
    33   42   19 1    
    34   43   20 1    
    35   22   21 2    
    36   23   21 am   
    37   24   23 1    
    38   44   23 1    
    39   25   24 1    
    40   30   24 1    
    41   45   24 1    
    42   26   25 1    
    43   46   25 1    
    44   47   25 1    
    45   27   26 1    
    46   48   26 1    
    47   49   26 1    
    48   28   27 ar   
    49   29   27 ar   
    50   31   30 ar   
    51   32   30 ar   
@<TRIPOS>SUBSTRUCTURE
     1 FOL301      1 GROUP   
@<TRIPOS>SET

