#    Name: 3iub_FG2_1_INTS_M
#    Modification time : Tue Mar 25 17:27:01 2014

@<TRIPOS>MOLECULE
3iub_FG2_1_INTS_M
   60     0     6     0     0
SMALL
NO_CHARGES


@<TRIPOS>ATOM
      1 CA         11.8635   11.2685   -4.9700 C.3       2 GLC5        0.0000 
      2 CA         10.8770    9.4100   -5.0490 C.3       6 GLL5        0.0000 
      3 CA         12.8500   13.1270   -4.8910 C.3       4 GLP5        0.0000 
      4 CA          9.7550   10.8925   -5.6755 C.3       2 GLC5        0.0000 
      5 CA          8.6330   12.3750   -6.3020 C.3       4 GLP5        0.0000 
      6 CA          9.8585    9.4685   -3.4425 C.3       2 GLC5        0.0000 
      7 CA          8.8400    9.5270   -1.8360 C.3       4 GLP5        0.0000 
      8 CA         11.2245    8.0420   -3.3965 C.3       2 GLC5        0.0000 
      9 CA         11.5720    6.6740   -1.7440 C.3       4 GLP5        0.0000 
     10 CA          9.1380    8.7970   -5.2045 C.3       2 GLC5        0.0000 
     11 CA          7.3990    8.1840   -5.3600 C.3       4 GLP5        0.0000 
     12 CA         12.0545    8.1715   -6.3360 C.3       2 GLC5        0.0000 
     13 CA         13.2320    6.9330   -7.6230 C.3       4 GLP5        0.0000 
     14 CA         11.1575   10.5010   -6.5800 C.3       2 GLC5        0.0000 
     15 CA         11.4380   11.5920   -8.1110 C.3       4 GLP5        0.0000 
     16 N          15.2215   13.1420    4.9550 N.am      1 SEC2        0.0000 
     17 N          15.4650   12.3990    3.7040 N.am      5 SEL2        0.0000 
     18 N          14.9780   13.8850    6.2060 N.am      3 SEP2        0.0000 
     19 N          15.1240   13.1570    2.4735 N.am      1 SEC2        0.0000 
     20 N          14.7830   13.9150    1.2430 N.am      3 SEP2        0.0000 
     21 CA         19.3905   10.7050    5.9410 C.3       2 GLC5        0.0000 
     22 CA         19.1370    9.9050    4.1180 C.3       6 GLL5        0.0000 
     23 CA         19.6440   11.5050    7.7640 C.3       4 GLP5        0.0000 
     24 CA         17.4815   11.4780    5.7410 C.3       2 GLC5        0.0000 
     25 CA         17.9810   10.6580    3.8810 C.3       6 GLL5        0.0000 
     26 CA         16.9820   12.2980    7.6010 C.3       4 GLP5        0.0000 
     27 CA         15.1415    8.4855   -6.2575 C.3       2 GLC5        0.0000 
     28 CA         14.5280    9.8560   -4.8460 C.3       6 GLL5        0.0000 
     29 CA         15.7550    7.1150   -7.6690 C.3       4 GLP5        0.0000 
     30 CA         17.4080    6.3700    2.5555 C.3       2 GLC5        0.0000 
     31 CA         17.8180    7.8980    4.0050 C.3       6 GLL5        0.0000 
     32 CA         16.9980    4.8420    1.1060 C.3       4 GLP5        0.0000 
     33 CA         10.8480    9.7590   -2.4680 C.3       2 GLC5        0.0000 
     34 CA         12.8560    9.9910   -3.1000 C.3       6 GLL5        0.0000 
     35 CA         11.7705   10.5500   -0.3415 C.3       2 GLC5        0.0000 
     36 CA         13.7790   10.4290   -0.8570 C.3       6 GLL5        0.0000 
     37 CA          9.7620   10.6710    0.1740 C.3       4 GLP5        0.0000 
     38 N          15.7695    7.2345    3.9845 N.am      1 SEC2        0.0000 
     39 N          16.6770    8.6680    3.7610 N.am      5 SEL2        0.0000 
     40 N          14.8620    5.8010    4.2080 N.am      3 SEP2        0.0000 
     41 N          12.7105    9.4125   -6.8820 N.am      1 SEC2        0.0000 
     42 N          12.2640    9.5650   -5.4360 N.am      5 SEL2        0.0000 
     43 N          13.1570    9.2600   -8.3280 N.am      3 SEP2        0.0000 
     44 CA         13.2110    8.3660   -6.0415 C.3       2 GLC5        0.0000 
     45 CA         13.1900    9.7990   -4.4600 C.3       6 GLL5        0.0000 
     46 CA         12.3140   10.6955   -6.2855 C.3       2 GLC5        0.0000 
     47 CA         13.9320   11.5560   -4.6263 C.3       2 GLC5        0.0000 
     48 CA         15.5000   10.1140   -3.8770 C.3       6 GLL5        0.0000 
     49 CA         15.9130   11.4025   -5.4622 C.3       2 GLC5        0.0000 
     50 CA         16.8120   12.8200   -6.5630 C.3       4 GLP5        0.0000 
     51 CA         12.9365   11.5110   -4.3355 C.3       2 GLC5        0.0000 
     52 CA         12.2975    8.2845   -2.7620 C.3       2 GLC5        0.0000 
     53 CA         13.9217   12.2192    0.1765 C.3       2 GLC5        0.0000 
     54 CA         13.4300   13.9200    1.0060 C.3       4 GLP5        0.0000 
     55 CA         12.6875    8.5005   -1.6340 C.3       2 GLC5        0.0000 
     56 CA         13.6623   11.6867   -3.6385 C.3       2 GLC5        0.0000 
     57 CA         13.8270   10.2250   -2.1910 C.3       6 GLL5        0.0000 
     58 CA         15.7665    8.3453   -3.5676 C.3       2 GLC5        0.0000 
     59 CA         15.1220   10.2680   -2.5810 C.3       6 GLL5        0.0000 
     60 CA         16.4650    6.5640   -3.6640 C.3       4 GLP5        0.0000 
@<TRIPOS>BOND
@<TRIPOS>SUBSTRUCTURE
     1 SEC2       16 GROUP        1 X    SEC  0     ROOT SEC X 2
     2 GLC5        1 GROUP        1 X    GLC  0     **** GLC X 6
     3 SEP2       18 GROUP        1 Y    SEP  0     ROOT SEP Y 9
     4 GLP5        3 GROUP        1 Y    GLP  0     **** GLP Y 13
     5 SEL2       17 GROUP        1 Z    SEL  0     ROOT SEL Z 16
     6 GLL5        2 GROUP        1 Z    GLL  0     **** GLL Z 20
@<TRIPOS>SET

