#    Name: 3iub_FG2_1_ligand
#    Modification time : Tue Mar 25 17:27:01 2014

@<TRIPOS>MOLECULE
3iub_FG2_1_ligand
   39    41     1     0     0
SMALL
NO_CHARGES


@<TRIPOS>ATOM
      1 CAA        10.8770    9.4100   -5.0490 C.3       1 FG2302      0.0000 
      2 CAB        20.1760    7.7200    4.4200 C.3       1 FG2302      0.0000 
      3 OAC        16.6800   11.2270    0.9690 O.2       1 FG2302      0.0000 
      4 OAD        14.1780   10.3500    4.3490 O.2       1 FG2302      0.0000 
      5 OAE        15.4650   12.3990    3.7040 O.2       1 FG2302      0.0000 
      6 CAF        19.1370    9.9050    4.1180 C.ar      1 FG2302      0.0000 
      7 CAG        17.9810   10.6580    3.8810 C.ar      1 FG2302      0.0000 
      8 CAH        14.5280    9.8560   -4.8460 C.ar      1 FG2302      0.0000 
      9 CAI        15.5000   10.1140   -3.8770 C.ar      1 FG2302      0.0000 
     10 CAJ        17.8180    7.8980    4.0050 C.ar      1 FG2302      0.0000 
     11 CAK        12.8560    9.9910   -3.1000 C.ar      1 FG2302      0.0000 
     12 CAL        13.7790   10.4290   -0.8570 C.2       1 FG2302      0.0000 
     13 NAM        16.6770    8.6680    3.7610 N.ar      1 FG2302      0.0000 
     14 NAN        14.6890   10.6340    1.8330 N.pl3     1 FG2302      0.0000 
     15 NAO        15.8550   10.4990   -1.4940 N.pl3     1 FG2302      0.0000 
     16 OAP        12.2640    9.5650   -5.4360 O.3       1 FG2302      0.0000 
     17 CAQ        15.5220   10.8470    0.7990 C.2       1 FG2302      0.0000 
     18 CAR        19.0480    8.5140    4.1830 C.ar      1 FG2302      0.0000 
     19 CAS        13.1900    9.7990   -4.4600 C.ar      1 FG2302      0.0000 
     20 CAT        16.7520   10.0120    3.7060 C.ar      1 FG2302      0.0000 
     21 CAU        15.0480   10.6080   -0.4490 C.2       1 FG2302      0.0000 
     22 CAV        13.8270   10.2250   -2.1910 C.ar      1 FG2302      0.0000 
     23 CAW        15.1220   10.2680   -2.5810 C.ar      1 FG2302      0.0000 
     24 SAX        15.2520   10.9220    3.4070 S.o2      1 FG2302      0.0000 
     25 H          20.0376   10.3719    4.2421 H         1 FG2302      0.0000 
     26 H          18.0347   11.6800    3.8358 H         1 FG2302      0.0000 
     27 H          14.7940    9.7119   -5.8192 H         1 FG2302      0.0000 
     28 H          16.4860   10.1835   -4.1585 H         1 FG2302      0.0000 
     29 H          17.7403    6.8737    4.0517 H         1 FG2302      0.0000 
     30 H          11.8609    9.9470   -2.8297 H         1 FG2302      0.0000 
     31 H          12.9947   10.4429   -0.3122 H         1 FG2302      0.0000 
     32 H          13.7522   10.3213    1.8413 H         1 FG2302      0.0000 
     33 H          16.8285   10.5751   -1.4741 H         1 FG2302      0.0000 
     34 H          10.7504    8.6431   -4.4198 H         1 FG2302      0.0000 
     35 H          10.5259   10.2264   -4.5904 H         1 FG2302      0.0000 
     36 H          10.2876    9.2413   -5.8390 H         1 FG2302      0.0000 
     37 H          20.8734    7.8455    3.7144 H         1 FG2302      0.0000 
     38 H          20.6045    7.9359    5.2974 H         1 FG2302      0.0000 
     39 H          19.9480    6.7465    4.4369 H         1 FG2302      0.0000 
@<TRIPOS>BOND
     1   16    1 1    
     2   34    1 1    
     3   35    1 1    
     4   36    1 1    
     5   18    2 1    
     6   37    2 1    
     7   38    2 1    
     8   39    2 1    
     9   17    3 2    
    10   24    4 2    
    11   24    5 2    
    12    7    6 ar   
    13   18    6 ar   
    14   25    6 1    
    15   20    7 ar   
    16   26    7 1    
    17    9    8 ar   
    18   19    8 ar   
    19   27    8 1    
    20   23    9 ar   
    21   28    9 1    
    22   13   10 ar   
    23   18   10 ar   
    24   29   10 1    
    25   19   11 ar   
    26   22   11 ar   
    27   30   11 1    
    28   21   12 2    
    29   22   12 1    
    30   31   12 1    
    31   20   13 ar   
    32   17   14 1    
    33   24   14 1    
    34   32   14 1    
    35   21   15 1    
    36   23   15 1    
    37   33   15 1    
    38   19   16 1    
    39   21   17 1    
    40   24   20 1    
    41   23   22 ar   
@<TRIPOS>SUBSTRUCTURE
     1 FG2302      1 GROUP   
@<TRIPOS>SET

