#    Name: 3a40_23R_1_INTS_M
#    Modification time : Tue Mar 25 11:34:02 2014

@<TRIPOS>MOLECULE
3a40_23R_1_INTS_M
  120     0     9     0     0
SMALL
NO_CHARGES


@<TRIPOS>ATOM
      1 N          17.9550   16.7225   34.9345 N.am      2 SEC2        0.0000 
      2 N          17.0100   17.6930   34.5760 N.am      8 SEL2        0.0000 
      3 N          18.9000   15.7520   35.2930 N.am      5 SEP2        0.0000 
      4 O          17.8610   18.5600   33.8430 O.2       1 ALC1        0.0000 
      5 O          17.0100   17.6930   34.5760 O.2       7 ALL1        0.0000 
      6 O          18.7120   19.4270   33.1100 O.2       4 ALP1        0.0000 
      7 CA         17.2305   15.8800   34.9005 C.3       3 GLC5        0.0000 
      8 CA         15.9550   17.1170   33.7840 C.3       9 GLL5        0.0000 
      9 CA         18.5060   14.6430   36.0170 C.3       6 GLP5        0.0000 
     10 CA         17.0840   15.7980   33.0090 C.3       3 GLC5        0.0000 
     11 CA         18.2130   14.4790   32.2340 C.3       6 GLP5        0.0000 
     12 CA         16.1625   15.6405   35.8060 C.3       3 GLC5        0.0000 
     13 CA         14.8760   16.5400   34.6960 C.3       9 GLL5        0.0000 
     14 CA         17.4490   14.7410   36.9160 C.3       6 GLP5        0.0000 
     15 CA         14.0025   15.4330   32.0665 C.3       3 GLC5        0.0000 
     16 CA         13.9020   15.6430   33.9050 C.3       9 GLL5        0.0000 
     17 CA         14.1030   15.2230   30.2280 C.3       6 GLP5        0.0000 
     18 CA         12.7605   16.4915   32.5475 C.3       3 GLC5        0.0000 
     19 CA         11.6190   17.3400   31.1900 C.3       6 GLP5        0.0000 
     20 CA         14.4410   17.4240   37.3930 C.3       3 GLC5        0.0000 
     21 CA         14.2020   17.6500   35.5100 C.3       9 GLL5        0.0000 
     22 CA         14.6800   17.1980   39.2760 C.3       6 GLP5        0.0000 
     23 CA         15.6710   18.8350   36.2735 C.3       3 GLC5        0.0000 
     24 CA         17.1400   20.0200   37.0370 C.3       6 GLP5        0.0000 
     25 N          13.2685   15.7690   36.9500 N.am      2 SEC2        0.0000 
     26 N          13.1670   17.1050   36.3290 N.am      8 SEL2        0.0000 
     27 N          13.3700   14.4330   37.5710 N.am      5 SEP2        0.0000 
     28 O          11.9485   16.7360   35.7615 O.2       1 ALC1        0.0000 
     29 O          13.1670   17.1050   36.3290 O.2       7 ALL1        0.0000 
     30 O          10.7300   16.3670   35.1940 O.2       4 ALP1        0.0000 
     31 CA         12.6625   18.0505   32.9050 C.3       3 GLC5        0.0000 
     32 CA         13.7060   18.7610   34.6200 C.3       9 GLL5        0.0000 
     33 CA         11.6460   18.9360   32.9490 C.3       3 GLC5        0.0000 
     34 CA         12.4670   19.2500   34.7190 C.3       9 GLL5        0.0000 
     35 CA         10.8250   18.6220   31.1790 C.3       6 GLP5        0.0000 
     36 CA         11.2145   17.8005   35.5495 C.3       3 GLC5        0.0000 
     37 CA          9.9620   16.3510   36.3800 C.3       6 GLP5        0.0000 
     38 CA         11.7545   20.2310   36.2420 C.3       3 GLC5        0.0000 
     39 CA         11.0420   21.2120   37.7650 C.3       6 GLP5        0.0000 
     40 CA         13.5110   17.7615   32.0150 C.3       3 GLC5        0.0000 
     41 CA         15.4030   18.1830   32.8400 C.3       9 GLL5        0.0000 
     42 CA         12.2695   26.6500   31.3730 C.3       3 GLC5        0.0000 
     43 CA         12.2130   24.7920   31.8480 C.3       9 GLL5        0.0000 
     44 CA         12.3260   28.5080   30.8980 C.3       6 GLP5        0.0000 
     45 CA         15.2520   24.4435   33.9880 C.3       3 GLC5        0.0000 
     46 CA         13.2760   24.0510   33.9520 C.3       9 GLL5        0.0000 
     47 CA         17.2280   24.8360   34.0240 C.3       6 GLP5        0.0000 
     48 CA         11.3035   21.4755   31.9570 C.3       3 GLC5        0.0000 
     49 CA         10.9550   23.1880   33.3210 C.3       9 GLL5        0.0000 
     50 CA         11.6520   19.7630   30.5930 C.3       6 GLP5        0.0000 
     51 CA          9.3890   22.2980   33.8090 C.3       3 GLC5        0.0000 
     52 CA          7.8230   21.4080   34.2970 C.3       6 GLP5        0.0000 
     53 CA         14.6090   22.5345   35.9830 C.3       3 GLC5        0.0000 
     54 CA         13.0130   23.9600   35.4520 C.3       9 GLL5        0.0000 
     55 CA         16.2050   21.1090   36.5140 C.3       6 GLP5        0.0000 
     56 CA         14.9050   25.0095   35.0015 C.3       3 GLC5        0.0000 
     57 CA         16.7970   26.0590   34.5510 C.3       6 GLP5        0.0000 
     58 CA         12.2625   25.0810   37.7630 C.3       3 GLC5        0.0000 
     59 CA         11.8860   24.9910   35.6490 C.3       9 GLL5        0.0000 
     60 CA         12.6390   25.1710   39.8770 C.3       6 GLP5        0.0000 
     61 CA          8.4425   24.6935   36.8010 C.3       3 GLC5        0.0000 
     62 CA          8.9730   25.2790   34.7380 C.3       9 GLL5        0.0000 
     63 CA          7.9120   24.1080   38.8640 C.3       6 GLP5        0.0000 
     64 CA         10.3110   28.7940   33.2725 C.3       3 GLC5        0.0000 
     65 CA         10.0870   27.5120   34.8030 C.3       9 GLL5        0.0000 
     66 CA         10.5350   30.0760   31.7420 C.3       6 GLP5        0.0000 
     67 CA          9.4615   29.1495   35.7160 C.3       3 GLC5        0.0000 
     68 CA          8.8360   30.7870   36.6290 C.3       6 GLP5        0.0000 
     69 CA         11.9505   28.0240   35.3725 C.3       3 GLC5        0.0000 
     70 CA         13.8140   28.5360   35.9420 C.3       6 GLP5        0.0000 
     71 CA          8.8615   25.7165   30.5850 C.3       3 GLC5        0.0000 
     72 CA          8.3360   26.2220   32.5840 C.3       9 GLL5        0.0000 
     73 CA          9.3870   25.2110   28.5860 C.3       6 GLP5        0.0000 
     74 CA          7.2360   27.9455   32.8275 C.3       3 GLC5        0.0000 
     75 CA          6.1360   29.6690   33.0710 C.3       6 GLP5        0.0000 
     76 CA          6.2645   22.8785   34.1810 C.3       3 GLC5        0.0000 
     77 CA          4.7060   24.3490   34.0650 C.3       9 GLL5        0.0000 
     78 CA          4.1145   25.8750   30.9905 C.3       3 GLC5        0.0000 
     79 CA          5.1600   26.1870   32.4060 C.3       9 GLL5        0.0000 
     80 CA          3.0690   25.5630   29.5750 C.3       6 GLP5        0.0000 
     81 CA          5.8040   26.9530   30.4820 C.3       3 GLC5        0.0000 
     82 CA          6.4480   27.7190   28.5580 C.3       6 GLP5        0.0000 
     83 CA          3.4275   27.5030   32.1635 C.3       3 GLC5        0.0000 
     84 CA          1.6950   28.8190   31.9210 C.3       6 GLP5        0.0000 
     85 N           4.7340   26.7540   35.9650 N.am      2 SEC2        0.0000 
     86 N           4.3890   26.6300   34.6090 N.am      8 SEL2        0.0000 
     87 N           5.0790   26.8780   37.3210 N.am      5 SEP2        0.0000 
     88 O           4.8345   27.9325   34.3315 O.2       1 ALC1        0.0000 
     89 O           4.3890   26.6300   34.6090 O.2       7 ALL1        0.0000 
     90 O           5.2800   29.2350   34.0540 O.2       4 ALP1        0.0000 
     91 CA         14.8910   16.4365   31.7700 C.3       3 GLC5        0.0000 
     92 CA         17.7035   18.0980   32.9895 C.3       3 GLC5        0.0000 
     93 CA         19.7280   18.5460   32.6670 C.3       6 GLP5        0.0000 
     94 CA         16.5755   17.8070   31.5610 C.3       3 GLC5        0.0000 
     95 CA         17.4720   17.9640   29.8100 C.3       6 GLP5        0.0000 
     96 CA         15.1832   20.0530   35.3058 C.3       3 GLC5        0.0000 
     97 CA         14.6170   19.2330   33.5750 C.3       9 GLL5        0.0000 
     98 CA         13.1725   19.8212   31.9928 C.3       3 GLC5        0.0000 
     99 CA         16.1777   21.9147   33.6230 C.3       3 GLC5        0.0000 
    100 CA         14.1280   21.6930   33.8320 C.3       9 GLL5        0.0000 
    101 CA         17.9070   22.7200   33.7250 C.3       6 GLP5        0.0000 
    102 CA         15.1964   21.5546   34.9460 C.3       3 GLC5        0.0000 
    103 CA         14.7690   20.5260   33.2100 C.3       9 GLL5        0.0000 
    104 CA         15.7378   23.8282   32.5715 C.3       3 GLC5        0.0000 
    105 CA         13.9270   22.8910   33.2350 C.3       9 GLL5        0.0000 
    106 CA         17.3840   24.6200   32.6350 C.3       6 GLP5        0.0000 
    107 CA         12.6345   21.6015   31.0135 C.3       3 GLC5        0.0000 
    108 CA         14.2560   23.1820   31.7810 C.3       9 GLL5        0.0000 
    109 CA         14.4850   23.5975   29.7710 C.3       3 GLC5        0.0000 
    110 CA         12.9780   23.6980   31.0870 C.3       9 GLL5        0.0000 
    111 CA         15.3530   23.7550   28.1080 C.3       6 GLP5        0.0000 
    112 CA         11.4692   23.5550   29.9817 C.3       3 GLC5        0.0000 
    113 CA         10.3430   22.8650   28.4960 C.3       6 GLP5        0.0000 
    114 CA         11.7457   22.8438   36.6578 C.3       3 GLC5        0.0000 
    115 CA         12.7515   26.8968   35.4455 C.3       3 GLC5        0.0000 
    116 CA          8.1113   23.3648   34.2698 C.3       3 GLC5        0.0000 
    117 CA          5.9680   26.8537   35.8935 C.3       3 GLC5        0.0000 
    118 CA          6.6240   25.9570   34.4820 C.3       9 GLL5        0.0000 
    119 CA          6.0050   27.8510   37.6140 C.3       6 GLP5        0.0000 
    120 CA          5.8407   27.8454   33.1803 C.3       3 GLC5        0.0000 
@<TRIPOS>BOND
@<TRIPOS>SUBSTRUCTURE
     1 ALC1        4 GROUP        1 X    ALC  0     ROOT ALC X 1
     2 SEC2        1 GROUP        1 X    SEC  0     **** SEC X 2
     3 GLC5        7 GROUP        1 X    GLC  0     **** GLC X 6
     4 ALP1        6 GROUP        1 Y    ALP  0     ROOT ALP Y 8
     5 SEP2        3 GROUP        1 Y    SEP  0     **** SEP Y 9
     6 GLP5        9 GROUP        1 Y    GLP  0     **** GLP Y 13
     7 ALL1        5 GROUP        1 Z    ALL  0     ROOT ALL Z 15
     8 SEL2        2 GROUP        1 Z    SEL  0     **** SEL Z 16
     9 GLL5        8 GROUP        1 Z    GLL  0     **** GLL Z 20
@<TRIPOS>SET

