#    Name: 3a40_23R_1_ligand
#    Modification time : Tue Mar 25 11:34:02 2014

@<TRIPOS>MOLECULE
3a40_23R_1_ligand
   77    80     1     0     0
SMALL
NO_CHARGES


@<TRIPOS>ATOM
      1 O3         17.0100   17.6930   34.5760 O.3       1 23R1        0.0000 
      2 C3         15.9550   17.1170   33.7840 C.3       1 23R1        0.0000 
      3 C2         14.8760   16.5400   34.6960 C.3       1 23R1        0.0000 
      4 C29        13.9020   15.6430   33.9050 C.3       1 23R1        0.0000 
      5 C1         14.2020   17.6500   35.5100 C.3       1 23R1        0.0000 
      6 O1         13.1670   17.1050   36.3290 O.3       1 23R1        0.0000 
      7 C10        13.7060   18.7610   34.6200 C.2       1 23R1        0.0000 
      8 C19        12.4670   19.2500   34.7190 C.2       1 23R1        0.0000 
      9 C4         15.4030   18.1830   32.8400 C.3       1 23R1        0.0000 
     10 C5         14.6170   19.2330   33.5750 C.2       1 23R1        0.0000 
     11 C6         14.7690   20.5260   33.2100 C.2       1 23R1        0.0000 
     12 C7         14.1280   21.6930   33.8320 C.2       1 23R1        0.0000 
     13 C8         13.9270   22.8910   33.2350 C.2       1 23R1        0.0000 
     14 C9         14.2560   23.1820   31.7810 C.3       1 23R1        0.0000 
     15 C11        12.9780   23.6980   31.0870 C.3       1 23R1        0.0000 
     16 C12        12.2130   24.7920   31.8480 C.3       1 23R1        0.0000 
     17 C14        13.2760   24.0510   33.9520 C.3       1 23R1        0.0000 
     18 C13        11.9270   24.3870   33.3000 C.3       1 23R1        0.0000 
     19 C18        10.9550   23.1880   33.3210 C.3       1 23R1        0.0000 
     20 C15        13.0130   23.9600   35.4520 C.3       1 23R1        0.0000 
     21 C16        11.8860   24.9910   35.6490 C.3       1 23R1        0.0000 
     22 C17        11.4920   25.5240   34.2490 C.3       1 23R1        0.0000 
     23 C20        10.0770   26.1360   34.1320 C.3       1 23R1        0.0000 
     24 C22         8.9730   25.2790   34.7380 C.3       1 23R1        0.0000 
     25 C21        10.0870   27.5120   34.8030 C.3       1 23R1        0.0000 
     26 O20         9.7540   26.2800   32.7410 O.3       1 23R1        0.0000 
     27 C24         8.3360   26.2220   32.5840 C.3       1 23R1        0.0000 
     28 C23         7.8260   25.3640   33.7470 C.3       1 23R1        0.0000 
     29 C25         6.6240   25.9570   34.4820 C.3       1 23R1        0.0000 
     30 C26         5.2380   25.7560   33.8640 C.3       1 23R1        0.0000 
     31 C28         4.7060   24.3490   34.0650 C.3       1 23R1        0.0000 
     32 C27         5.1600   26.1870   32.4060 C.3       1 23R1        0.0000 
     33 O26         4.3890   26.6300   34.6090 O.3       1 23R1        0.0000 
     34 H          16.3506   16.3056   33.1742 H         1 23R1        0.0000 
     35 H          15.4045   15.8777   35.4239 H         1 23R1        0.0000 
     36 H          14.9965   18.0783   36.1583 H         1 23R1        0.0000 
     37 H          14.7631   17.6966   32.0942 H         1 23R1        0.0000 
     38 H          16.2401   18.6518   32.3092 H         1 23R1        0.0000 
     39 H          15.4120   20.7704   32.3900 H         1 23R1        0.0000 
     40 H          13.8118   21.5381   34.8342 H         1 23R1        0.0000 
     41 H          14.5814   22.2795   31.2898 H         1 23R1        0.0000 
     42 H          15.0182   23.9417   31.7213 H         1 23R1        0.0000 
     43 H          12.2997   22.8413   30.9172 H         1 23R1        0.0000 
     44 H          13.2520   24.0843   30.0877 H         1 23R1        0.0000 
     45 H          11.2675   24.9862   31.3377 H         1 23R1        0.0000 
     46 H          12.8043   25.7098   31.8423 H         1 23R1        0.0000 
     47 H          13.8988   24.9656   33.7852 H         1 23R1        0.0000 
     48 H          13.8665   24.2642   35.9889 H         1 23R1        0.0000 
     49 H          12.6592   22.9996   35.7005 H         1 23R1        0.0000 
     50 H          12.2435   25.8038   36.2482 H         1 23R1        0.0000 
     51 H          11.0375   24.5144   36.0967 H         1 23R1        0.0000 
     52 H          12.2489   26.3563   34.0623 H         1 23R1        0.0000 
     53 H           8.6739   25.6882   35.6758 H         1 23R1        0.0000 
     54 H           9.3063   24.2700   34.8222 H         1 23R1        0.0000 
     55 H           8.0457   25.7410   31.6625 H         1 23R1        0.0000 
     56 H           7.8757   27.1952   32.6607 H         1 23R1        0.0000 
     57 H           7.6050   24.3844   33.4032 H         1 23R1        0.0000 
     58 H           6.7957   27.0555   34.6130 H         1 23R1        0.0000 
     59 H           6.6084   25.5471   35.5237 H         1 23R1        0.0000 
     60 H          14.3732   14.8744   33.4722 H         1 23R1        0.0000 
     61 H          13.1912   15.2574   34.4933 H         1 23R1        0.0000 
     62 H          13.4380   16.1492   33.1781 H         1 23R1        0.0000 
     63 H          11.3320   22.3959   32.8410 H         1 23R1        0.0000 
     64 H          10.7480   22.8940   34.2541 H         1 23R1        0.0000 
     65 H          10.0835   23.4087   32.8831 H         1 23R1        0.0000 
     66 H          10.3371   27.4521   35.7694 H         1 23R1        0.0000 
     67 H          10.7405   28.1321   34.3690 H         1 23R1        0.0000 
     68 H           9.1907   27.9532   34.7590 H         1 23R1        0.0000 
     69 H           5.3028   23.6632   33.6483 H         1 23R1        0.0000 
     70 H           4.6255   24.1173   35.0345 H         1 23R1        0.0000 
     71 H           3.7991   24.2334   33.6598 H         1 23R1        0.0000 
     72 H           5.3794   27.1561   32.2929 H         1 23R1        0.0000 
     73 H           5.7978   25.6732   31.8322 H         1 23R1        0.0000 
     74 H           4.2457   26.0471   32.0258 H         1 23R1        0.0000 
     75 H          17.7022   17.9814   33.9144 H         1 23R1        0.0000 
     76 H          12.4256   16.8833   35.6956 H         1 23R1        0.0000 
     77 H           4.6303   27.5721   34.3756 H         1 23R1        0.0000 
@<TRIPOS>BOND
     1    2    1 1    
     2   75    1 1    
     3    3    2 1    
     4    9    2 1    
     5   34    2 1    
     6    4    3 1    
     7    5    3 1    
     8   35    3 1    
     9   60    4 1    
    10   61    4 1    
    11   62    4 1    
    12    6    5 1    
    13    7    5 1    
    14   36    5 1    
    15   76    6 1    
    16    8    7 2    
    17   10    7 1    
    18   10    9 1    
    19   37    9 1    
    20   38    9 1    
    21   11   10 2    
    22   12   11 1    
    23   39   11 1    
    24   13   12 2    
    25   40   12 1    
    26   14   13 1    
    27   17   13 1    
    28   15   14 1    
    29   41   14 1    
    30   42   14 1    
    31   16   15 1    
    32   43   15 1    
    33   44   15 1    
    34   18   16 1    
    35   45   16 1    
    36   46   16 1    
    37   18   17 1    
    38   20   17 1    
    39   47   17 1    
    40   19   18 1    
    41   22   18 1    
    42   63   19 1    
    43   64   19 1    
    44   65   19 1    
    45   21   20 1    
    46   48   20 1    
    47   49   20 1    
    48   22   21 1    
    49   50   21 1    
    50   51   21 1    
    51   23   22 1    
    52   52   22 1    
    53   24   23 1    
    54   25   23 1    
    55   26   23 1    
    56   28   24 1    
    57   53   24 1    
    58   54   24 1    
    59   66   25 1    
    60   67   25 1    
    61   68   25 1    
    62   27   26 1    
    63   28   27 1    
    64   55   27 1    
    65   56   27 1    
    66   29   28 1    
    67   57   28 1    
    68   30   29 1    
    69   58   29 1    
    70   59   29 1    
    71   31   30 1    
    72   32   30 1    
    73   33   30 1    
    74   69   31 1    
    75   70   31 1    
    76   71   31 1    
    77   72   32 1    
    78   73   32 1    
    79   74   32 1    
    80   77   33 1    
@<TRIPOS>SUBSTRUCTURE
     1 23R1        1 GROUP   
@<TRIPOS>SET

