#    Name: 2w6m_OA1_2_INTS_M
#    Modification time : Tue Mar 25 03:42:33 2014

@<TRIPOS>MOLECULE
2w6m_OA1_2_INTS_M
   33     0     9     0     0
SMALL
NO_CHARGES


@<TRIPOS>ATOM
      1 CA         62.5595   -0.7580   58.8735 C.3       3 GLC5        0.0000 
      2 CA         60.9470   -1.1920   57.4010 C.3       9 GLL5        0.0000 
      3 CA         64.1720   -0.3240   60.3460 C.3       6 GLP5        0.0000 
      4 CA         61.5220   -2.2690   58.8225 C.3       3 GLC5        0.0000 
      5 CA         62.0970   -3.3460   60.2440 C.3       6 GLP5        0.0000 
      6 CA         59.4270   -1.0270   60.5500 C.3       3 GLC5        0.0000 
      7 CA         58.5850   -1.8270   59.0170 C.3       9 GLL5        0.0000 
      8 CA         60.2690   -0.2270   62.0830 C.3       6 GLP5        0.0000 
      9 N          55.2770   -1.6530   62.0290 N.am      2 SEC2        0.0000 
     10 N          55.5270   -1.9140   60.6830 N.am      8 SEL2        0.0000 
     11 N          55.0270   -1.3920   63.3750 N.am      5 SEP2        0.0000 
     12 CA         58.7620   -1.7660   61.7030 C.3       3 GLC5        0.0000 
     13 CA         57.2550   -3.3050   61.3230 C.3       9 GLL5        0.0000 
     14 CA         56.6435   -1.8070   62.4390 C.3       3 GLC5        0.0000 
     15 CA         56.0320   -0.3090   63.5550 C.3       6 GLP5        0.0000 
     16 N          55.9195   -2.4020   63.0375 N.am      2 SEC2        0.0000 
     17 N          56.8120   -3.4120   62.7000 N.am      8 SEL2        0.0000 
     18 O          56.7575   -3.9630   64.9380 O.2       1 ALC1        0.0000 
     19 O          57.7950   -4.9690   64.3240 O.2       7 ALL1        0.0000 
     20 O          55.7200   -2.9570   65.5520 O.2       4 ALP1        0.0000 
     21 O          58.6825   -5.5650   65.0330 O.2       1 ALC1        0.0000 
     22 O          59.5700   -6.1610   65.7420 O.2       4 ALP1        0.0000 
     23 N          59.5410   -5.9275   62.3350 N.am      2 SEC2        0.0000 
     24 N          58.4370   -4.7370   62.1080 N.am      8 SEL2        0.0000 
     25 N          60.6450   -7.1180   62.5620 N.am      5 SEP2        0.0000 
     26 CA         56.3410   -4.7692   61.2635 C.3       3 GLC5        0.0000 
     27 CA         54.9570   -5.8260   61.3230 C.3       6 GLP5        0.0000 
     28 CA         56.9041   -3.1149   56.7289 C.3       3 GLC5        0.0000 
     29 CA         58.2400   -1.1780   56.7540 C.3       9 GLL5        0.0000 
     30 CA         56.5590   -4.7120   55.7840 C.3       6 GLP5        0.0000 
     31 CA         57.6315    0.0166   58.6432 C.3       3 GLC5        0.0000 
     32 CA         56.4600   -1.6470   57.9350 C.3       9 GLL5        0.0000 
     33 CA         57.7170    1.6460   59.2270 C.3       6 GLP5        0.0000 
@<TRIPOS>BOND
@<TRIPOS>SUBSTRUCTURE
     1 ALC1       18 GROUP        1 X    ALC  0     ROOT ALC X 1
     2 SEC2        9 GROUP        1 X    SEC  0     **** SEC X 2
     3 GLC5        1 GROUP        1 X    GLC  0     **** GLC X 6
     4 ALP1       20 GROUP        1 Y    ALP  0     ROOT ALP Y 8
     5 SEP2       11 GROUP        1 Y    SEP  0     **** SEP Y 9
     6 GLP5        3 GROUP        1 Y    GLP  0     **** GLP Y 13
     7 ALL1       19 GROUP        1 Z    ALL  0     ROOT ALL Z 15
     8 SEL2       10 GROUP        1 Z    SEL  0     **** SEL Z 16
     9 GLL5        2 GROUP        1 Z    GLL  0     **** GLL Z 20
@<TRIPOS>SET

