#    Name: 2w6m_OA1_2_ligand
#    Modification time : Tue Mar 25 03:42:33 2014

@<TRIPOS>MOLECULE
2w6m_OA1_2_ligand
   22    23     1     0     0
SMALL
NO_CHARGES


@<TRIPOS>ATOM
      1 BR1        60.9470   -1.1920   57.4010 Br        1 OA11446     0.0000 
      2 C7         59.0650   -1.4020   57.6890 C.ar      1 OA11446     0.0000 
      3 C3         58.5850   -1.8270   59.0170 C.ar      1 OA11446     0.0000 
      4 C11        58.2400   -1.1780   56.7540 C.ar      1 OA11446     0.0000 
      5 C8         57.0360   -1.2910   56.8670 C.ar      1 OA11446     0.0000 
      6 C4         56.4600   -1.6470   57.9350 C.ar      1 OA11446     0.0000 
      7 C1         57.2610   -1.9550   59.1390 C.ar      1 OA11446     0.0000 
      8 C2         56.6250   -2.3640   60.3950 C.2       1 OA11446     0.0000 
      9 O6         55.5270   -1.9140   60.6830 O.2       1 OA11446     0.0000 
     10 C5         57.2550   -3.3050   61.3230 C.2       1 OA11446     0.0000 
     11 O10        56.8120   -3.4120   62.7000 O.3       1 OA11446     0.0000 
     12 C14        57.7310   -4.4420   63.1050 C.2       1 OA11446     0.0000 
     13 N15        57.7950   -4.9690   64.3240 N.pl3     1 OA11446     0.0000 
     14 N13        58.4370   -4.7370   62.1080 N.2       1 OA11446     0.0000 
     15 C9         58.1950   -4.1200   61.0850 C.2       1 OA11446     0.0000 
     16 H          59.2580   -1.9908   59.7311 H         1 OA11446     0.0000 
     17 H          58.6637   -0.8615   55.7846 H         1 OA11446     0.0000 
     18 H          56.3892   -1.0755   56.0002 H         1 OA11446     0.0000 
     19 H          55.4344   -1.7515   58.0641 H         1 OA11446     0.0000 
     20 H          57.1374   -4.6176   64.9904 H         1 OA11446     0.0000 
     21 H          58.4950   -5.6692   64.4645 H         1 OA11446     0.0000 
     22 H          58.6476   -4.2195   60.1906 H         1 OA11446     0.0000 
@<TRIPOS>BOND
     1    2    1 1    
     2    3    2 ar   
     3    4    2 ar   
     4    7    3 ar   
     5   16    3 1    
     6    5    4 ar   
     7   17    4 1    
     8    6    5 ar   
     9   18    5 1    
    10    7    6 ar   
    11   19    6 1    
    12    8    7 1    
    13    9    8 2    
    14   10    8 1    
    15   11   10 1    
    16   15   10 2    
    17   12   11 1    
    18   13   12 1    
    19   14   12 2    
    20   20   13 1    
    21   21   13 1    
    22   15   14 1    
    23   22   15 1    
@<TRIPOS>SUBSTRUCTURE
     1 OA11446     1 GROUP   
@<TRIPOS>SET

