#    Name: 4bue_JQF_2_INTS_M
#    Modification time : Tue Mar 25 08:23:35 2014

@<TRIPOS>MOLECULE
4bue_JQF_2_INTS_M
   50     0     9     0     0
SMALL
NO_CHARGES


@<TRIPOS>ATOM
      1 CA        -52.0800  -40.9370   26.8050 C.3       3 GLC5        0.0000 
      2 CA        -53.0930  -42.2200   27.2380 C.3       9 GLL5        0.0000 
      3 CA        -51.0670  -39.6540   26.3720 C.3       6 GLP5        0.0000 
      4 CA        -56.4890  -43.5060   25.1215 C.3       3 GLC5        0.0000 
      5 CA        -55.1580  -43.3920   26.4470 C.3       9 GLL5        0.0000 
      6 CA        -57.8200  -43.6200   23.7960 C.3       6 GLP5        0.0000 
      7 O         -53.4105  -40.6765   16.9360 O.2       1 ALC1        0.0000 
      8 O         -53.9740  -41.8840   16.4150 O.2       7 ALL1        0.0000 
      9 O         -52.8470  -39.4690   17.4570 O.2       4 ALP1        0.0000 
     10 N         -52.7830  -39.9585   14.5960 N.am      2 SEC2        0.0000 
     11 N         -53.5930  -41.0800   14.3100 N.am      8 SEL2        0.0000 
     12 N         -51.9730  -38.8370   14.8820 N.am      5 SEP2        0.0000 
     13 N         -53.7115  -40.4375   12.9935 N.am      2 SEC2        0.0000 
     14 N         -53.8300  -39.7950   11.6770 N.am      5 SEP2        0.0000 
     15 CA        -58.3580  -43.4320   12.9380 C.3       3 GLC5        0.0000 
     16 CA        -57.0000  -44.7700   13.7180 C.3       9 GLL5        0.0000 
     17 CA        -59.7160  -42.0940   12.1580 C.3       6 GLP5        0.0000 
     18 CA        -53.6070  -43.7960   12.4170 C.3       3 GLC5        0.0000 
     19 CA        -55.3930  -43.0350   13.2060 C.3       9 GLL5        0.0000 
     20 CA        -51.8210  -44.5570   11.6280 C.3       6 GLP5        0.0000 
     21 CA        -55.5215  -40.8125   12.9705 C.3       3 GLC5        0.0000 
     22 CA        -55.6500  -38.5900   12.7350 C.3       6 GLP5        0.0000 
     23 CA        -52.1068  -41.8457   25.4483 C.3       3 GLC5        0.0000 
     24 CA        -53.0430  -43.6350   25.1170 C.3       9 GLL5        0.0000 
     25 CA        -50.7580  -40.5230   25.3320 C.3       6 GLP5        0.0000 
     26 CA        -51.8620  -40.4820   19.7742 C.3       3 GLC5        0.0000 
     27 CA        -52.8590  -42.0980   20.5730 C.3       9 GLL5        0.0000 
     28 CA        -50.7060  -38.9030   19.6530 C.3       6 GLP5        0.0000 
     29 CA        -54.9920  -40.8395   18.3280 C.3       3 GLC5        0.0000 
     30 CA        -53.1770  -42.0240   19.2180 C.3       9 GLL5        0.0000 
     31 CA        -56.2340  -39.3400   17.6850 C.3       6 GLP5        0.0000 
     32 CA        -54.9290  -45.1743   20.2492 C.3       3 GLC5        0.0000 
     33 CA        -55.0790  -43.3860   19.6130 C.3       9 GLL5        0.0000 
     34 CA        -54.9410  -46.9380   20.2040 C.3       6 GLP5        0.0000 
     35 CA        -56.5295  -43.0397   21.4838 C.3       3 GLC5        0.0000 
     36 CA        -54.7550  -43.4350   20.9760 C.3       9 GLL5        0.0000 
     37 CA        -58.1420  -42.6690   22.6730 C.3       6 GLP5        0.0000 
     38 CA        -54.6532  -44.8165   15.1855 C.3       3 GLC5        0.0000 
     39 CA        -55.8250  -43.7160   15.5580 C.3       9 GLL5        0.0000 
     40 CA        -53.8280  -46.3300   15.3190 C.3       6 GLP5        0.0000 
     41 CA        -55.3490  -45.5225   14.8607 C.3       3 GLC5        0.0000 
     42 CA        -56.7400  -44.6600   15.0870 C.3       9 GLL5        0.0000 
     43 CA        -57.2795  -45.1767   11.4917 C.3       3 GLC5        0.0000 
     44 CA        -57.9070  -45.9750    9.7380 C.3       6 GLP5        0.0000 
     45 CA        -54.8383  -44.9205   14.1542 C.3       3 GLC5        0.0000 
     46 CA        -56.3040  -43.9870   12.7730 C.3       9 GLL5        0.0000 
     47 CA        -55.5383  -42.8615   11.2912 C.3       3 GLC5        0.0000 
     48 CA        -55.2280  -42.2120    9.5930 C.3       6 GLP5        0.0000 
     49 CA        -57.2118  -42.7065   12.0823 C.3       3 GLC5        0.0000 
     50 CA        -58.5750  -41.9020   11.1750 C.3       6 GLP5        0.0000 
@<TRIPOS>BOND
@<TRIPOS>SUBSTRUCTURE
     1 ALC1        7 GROUP        1 X    ALC  0     ROOT ALC X 1
     2 SEC2       10 GROUP        1 X    SEC  0     **** SEC X 2
     3 GLC5        1 GROUP        1 X    GLC  0     **** GLC X 6
     4 ALP1        9 GROUP        1 Y    ALP  0     ROOT ALP Y 8
     5 SEP2       12 GROUP        1 Y    SEP  0     **** SEP Y 9
     6 GLP5        3 GROUP        1 Y    GLP  0     **** GLP Y 13
     7 ALL1        8 GROUP        1 Z    ALL  0     ROOT ALL Z 15
     8 SEL2       11 GROUP        1 Z    SEL  0     **** SEL Z 16
     9 GLL5        2 GROUP        1 Z    GLL  0     **** GLL Z 20
@<TRIPOS>SET

