#    Name: 4bue_JQF_2_ligand
#    Modification time : Tue Mar 25 08:23:35 2014

@<TRIPOS>MOLECULE
4bue_JQF_2_ligand
   43    45     1     0     0
SMALL
NO_CHARGES


@<TRIPOS>ATOM
      1 O         -54.5910  -44.5050   23.5800 O.2       1 JQF2165     0.0000 
      2 C4        -53.6890  -43.6930   23.7400 C.2       1 JQF2165     0.0000 
      3 C3        -53.0430  -43.6350   25.1170 C.3       1 JQF2165     0.0000 
      4 C1        -53.8680  -42.7020   26.0120 C.3       1 JQF2165     0.0000 
      5 C         -53.0930  -42.2200   27.2380 C.3       1 JQF2165     0.0000 
      6 C2        -55.1580  -43.3920   26.4470 C.3       1 JQF2165     0.0000 
      7 N         -53.2350  -42.8320   22.8060 N.am      1 JQF2165     0.0000 
      8 C5        -53.6500  -42.7800   21.4940 C.ar      1 JQF2165     0.0000 
      9 C6        -52.8590  -42.0980   20.5730 C.ar      1 JQF2165     0.0000 
     10 C7        -53.1770  -42.0240   19.2180 C.ar      1 JQF2165     0.0000 
     11 C10       -54.7550  -43.4350   20.9760 C.ar      1 JQF2165     0.0000 
     12 C9        -55.0790  -43.3860   19.6130 C.ar      1 JQF2165     0.0000 
     13 C8        -54.3230  -42.6540   18.7240 C.ar      1 JQF2165     0.0000 
     14 C11       -54.6310  -42.6750   17.2900 C.2       1 JQF2165     0.0000 
     15 N2        -53.9740  -41.8840   16.4150 N.am      1 JQF2165     0.0000 
     16 C18       -54.2050  -41.8640   15.0740 C.2       1 JQF2165     0.0000 
     17 O1        -53.5930  -41.0800   14.3100 O.2       1 JQF2165     0.0000 
     18 N1        -55.5550  -43.6030   16.8710 N.2       1 JQF2165     0.0000 
     19 C12       -55.8250  -43.7160   15.5580 C.ar      1 JQF2165     0.0000 
     20 C17       -55.1320  -42.8900   14.5460 C.ar      1 JQF2165     0.0000 
     21 C13       -56.7400  -44.6600   15.0870 C.ar      1 JQF2165     0.0000 
     22 C14       -57.0000  -44.7700   13.7180 C.ar      1 JQF2165     0.0000 
     23 C15       -56.3040  -43.9870   12.7730 C.ar      1 JQF2165     0.0000 
     24 C16       -55.3930  -43.0350   13.2060 C.ar      1 JQF2165     0.0000 
     25 H         -52.0378  -43.2485   25.0314 H         1 JQF2165     0.0000 
     26 H         -53.0265  -44.6233   25.5531 H         1 JQF2165     0.0000 
     27 H         -54.1477  -41.8251   25.4199 H         1 JQF2165     0.0000 
     28 H         -52.4834  -42.1198   23.1008 H         1 JQF2165     0.0000 
     29 H         -51.9911  -41.6219   20.9111 H         1 JQF2165     0.0000 
     30 H         -52.5650  -41.5023   18.5751 H         1 JQF2165     0.0000 
     31 H         -55.3697  -43.9837   21.6141 H         1 JQF2165     0.0000 
     32 H         -55.9063  -43.9149   19.2776 H         1 JQF2165     0.0000 
     33 H         -53.2204  -41.2273   16.7972 H         1 JQF2165     0.0000 
     34 H         -57.2256  -45.2780   15.7506 H         1 JQF2165     0.0000 
     35 H         -57.7158  -45.4371   13.3855 H         1 JQF2165     0.0000 
     36 H         -56.4782  -44.1291   11.7744 H         1 JQF2165     0.0000 
     37 H         -54.9133  -42.4370   12.5139 H         1 JQF2165     0.0000 
     38 H         -52.8009  -42.9820   27.8160 H         1 JQF2165     0.0000 
     39 H         -52.2694  -41.7142   26.9815 H         1 JQF2165     0.0000 
     40 H         -53.6438  -41.6124   27.8103 H         1 JQF2165     0.0000 
     41 H         -54.9757  -44.2291   26.9629 H         1 JQF2165     0.0000 
     42 H         -55.7154  -42.8027   27.0319 H         1 JQF2165     0.0000 
     43 H         -55.7246  -43.6479   25.6638 H         1 JQF2165     0.0000 
@<TRIPOS>BOND
     1    2    1 2    
     2    3    2 1    
     3    7    2 am   
     4    4    3 1    
     5   25    3 1    
     6   26    3 1    
     7    5    4 1    
     8    6    4 1    
     9   27    4 1    
    10   38    5 1    
    11   39    5 1    
    12   40    5 1    
    13   41    6 1    
    14   42    6 1    
    15   43    6 1    
    16    8    7 1    
    17   28    7 1    
    18    9    8 ar   
    19   11    8 ar   
    20   10    9 ar   
    21   29    9 1    
    22   13   10 ar   
    23   30   10 1    
    24   12   11 ar   
    25   31   11 1    
    26   13   12 ar   
    27   32   12 1    
    28   14   13 1    
    29   15   14 1    
    30   18   14 2    
    31   16   15 am   
    32   33   15 1    
    33   17   16 2    
    34   20   16 1    
    35   19   18 1    
    36   20   19 ar   
    37   21   19 ar   
    38   24   20 ar   
    39   22   21 ar   
    40   34   21 1    
    41   23   22 ar   
    42   35   22 1    
    43   24   23 ar   
    44   36   23 1    
    45   37   24 1    
@<TRIPOS>SUBSTRUCTURE
     1 JQF2165     1 GROUP   
@<TRIPOS>SET

