#    Name: 4jvd_NNQ_1_INTS_M
#    Modification time : Tue Mar 25 06:34:11 2014

@<TRIPOS>MOLECULE
4jvd_NNQ_1_INTS_M
   52     0     3     0     0
SMALL
NO_CHARGES


@<TRIPOS>ATOM
      1 CA        -43.0770   54.6705    7.0635 C.3       1 GLC5        0.0000 
      2 CA        -41.2020   55.6100    7.1920 C.3       3 GLL5        0.0000 
      3 CA        -44.9520   53.7310    6.9350 C.3       2 GLP5        0.0000 
      4 CA        -42.4975   56.2790    8.3900 C.3       1 GLC5        0.0000 
      5 CA        -43.7930   56.9480    9.5880 C.3       2 GLP5        0.0000 
      6 CA        -41.0255   55.2795   10.0260 C.3       1 GLC5        0.0000 
      7 CA        -39.3990   55.1810    8.8630 C.3       3 GLL5        0.0000 
      8 CA        -42.6520   55.3780   11.1890 C.3       2 GLP5        0.0000 
      9 CA        -38.8615   57.3540    8.9325 C.3       1 GLC5        0.0000 
     10 CA        -38.3240   59.5270    9.0020 C.3       2 GLP5        0.0000 
     11 CA        -36.6195   53.0490    8.3675 C.3       1 GLC5        0.0000 
     12 CA        -38.0080   54.6190    8.9660 C.3       3 GLL5        0.0000 
     13 CA        -35.2310   51.4790    7.7690 C.3       2 GLP5        0.0000 
     14 CA        -35.6940   56.0850    7.8430 C.3       1 GLC5        0.0000 
     15 CA        -37.0600   55.7130    9.3910 C.3       3 GLL5        0.0000 
     16 CA        -34.3280   56.4570    6.2950 C.3       2 GLP5        0.0000 
     17 CA        -37.6920   57.6200    9.1965 C.3       1 GLC5        0.0000 
     18 CA        -30.2010   57.7620    9.6510 C.3       1 GLC5        0.0000 
     19 CA        -32.3070   57.5530    9.2350 C.3       3 GLL5        0.0000 
     20 CA        -28.0950   57.9710   10.0670 C.3       2 GLP5        0.0000 
     21 CA        -33.3175   57.0050    7.7650 C.3       1 GLC5        0.0000 
     22 CA        -33.0990   62.5535   10.8895 C.3       1 GLC5        0.0000 
     23 CA        -31.9690   61.6470    9.6680 C.3       3 GLL5        0.0000 
     24 CA        -34.2290   63.4600   12.1110 C.3       2 GLP5        0.0000 
     25 CA        -40.1195   56.7560    6.2735 C.3       1 GLC5        0.0000 
     26 CA        -39.9900   54.7300    7.5460 C.3       3 GLL5        0.0000 
     27 CA        -39.6430   58.3420    5.1780 C.3       2 GLP5        0.0000 
     28 CA        -40.5935   54.3055    5.8730 C.3       1 GLC5        0.0000 
     29 CA        -40.5910   53.4410    4.3770 C.3       2 GLP5        0.0000 
     30 CA        -36.7285   58.8122   11.4443 C.3       1 GLC5        0.0000 
     31 CA        -36.1880   56.5760   11.5270 C.3       3 GLL5        0.0000 
     32 CA        -37.7670   60.5680   11.6990 C.3       2 GLP5        0.0000 
     33 CA        -32.4910   57.6185   12.4232 C.3       1 GLC5        0.0000 
     34 CA        -33.7250   57.3610   11.2670 C.3       3 GLL5        0.0000 
     35 CA        -31.6620   57.4680   14.0640 C.3       2 GLP5        0.0000 
     36 CA        -29.7997   60.9232    9.3010 C.3       1 GLC5        0.0000 
     37 CA        -31.4670   59.6640    8.4680 C.3       3 GLL5        0.0000 
     38 CA        -28.5030   61.8290   10.5990 C.3       2 GLP5        0.0000 
     39 CA        -29.5957   58.9942    9.0350 C.3       1 GLC5        0.0000 
     40 CA        -30.7260   60.3710    7.5380 C.3       3 GLL5        0.0000 
     41 CA        -29.3225   63.5583    8.3205 C.3       1 GLC5        0.0000 
     42 CA        -30.6100   61.7390    7.6820 C.3       3 GLL5        0.0000 
     43 CA        -27.7220   65.0570    8.4280 C.3       2 GLP5        0.0000 
     44 CA        -29.7130   61.9442    9.4060 C.3       1 GLC5        0.0000 
     45 CA        -31.2360   62.3800    8.7440 C.3       3 GLL5        0.0000 
     46 CA        -32.8235   62.6923    8.1395 C.3       1 GLC5        0.0000 
     47 CA        -34.7240   63.3250    8.0660 C.3       2 GLP5        0.0000 
     48 CA        -30.2662   61.3967   10.0978 C.3       1 GLC5        0.0000 
     49 CA        -33.3768   62.1448    8.8313 C.3       1 GLC5        0.0000 
     50 CA        -33.0386   59.9624    7.5190 C.3       1 GLC5        0.0000 
     51 CA        -32.0900   60.2820    9.5250 C.3       3 GLL5        0.0000 
     52 CA        -34.4840   59.7750    6.2740 C.3       2 GLP5        0.0000 
@<TRIPOS>BOND
@<TRIPOS>SUBSTRUCTURE
     1 GLC5        1 GROUP        1 X    GLC  0     ROOT GLC X 6
     2 GLP5        3 GROUP        1 Y    GLP  0     ROOT GLP Y 13
     3 GLL5        2 GROUP        1 Z    GLL  0     ROOT GLL Z 20
@<TRIPOS>SET

