#    Name: 4jvd_NNQ_1_ligand
#    Modification time : Tue Mar 25 06:34:11 2014

@<TRIPOS>MOLECULE
4jvd_NNQ_1_ligand
   45    46     1     0     0
SMALL
NO_CHARGES


@<TRIPOS>ATOM
      1 CAA       -41.2020   55.6100    7.1920 C.3       1 NNQ401      0.0000 
      2 CAH       -39.9900   54.7300    7.5460 C.3       1 NNQ401      0.0000 
      3 CAI       -39.3990   55.1810    8.8630 C.3       1 NNQ401      0.0000 
      4 CAJ       -38.0080   54.6190    8.9660 C.3       1 NNQ401      0.0000 
      5 CAK       -37.0600   55.7130    9.3910 C.3       1 NNQ401      0.0000 
      6 CAL       -36.4220   55.3250   10.6900 C.3       1 NNQ401      0.0000 
      7 CAM       -36.1880   56.5760   11.5270 C.3       1 NNQ401      0.0000 
      8 CAN       -35.1920   57.5370   10.8520 C.3       1 NNQ401      0.0000 
      9 CAO       -33.7250   57.3610   11.2670 C.3       1 NNQ401      0.0000 
     10 CAQ       -32.9150   58.1770   10.2980 C.2       1 NNQ401      0.0000 
     11 CAG       -32.3070   57.5530    9.2350 C.2       1 NNQ401      0.0000 
     12 CAR       -31.5730   58.3070    8.3200 C.2       1 NNQ401      0.0000 
     13 OAB       -31.0010   57.7940    7.3570 O.2       1 NNQ401      0.0000 
     14 CAT       -31.4670   59.6640    8.4680 C.ar      1 NNQ401      0.0000 
     15 CAF       -30.7260   60.3710    7.5380 C.ar      1 NNQ401      0.0000 
     16 CAD       -30.6100   61.7390    7.6820 C.ar      1 NNQ401      0.0000 
     17 CAC       -31.2360   62.3800    8.7440 C.ar      1 NNQ401      0.0000 
     18 CAE       -31.9690   61.6470    9.6680 C.ar      1 NNQ401      0.0000 
     19 CAS       -32.0900   60.2820    9.5250 C.ar      1 NNQ401      0.0000 
     20 NAP       -32.8250   59.5500   10.4490 N.pl3     1 NNQ401      0.0000 
     21 H         -39.2496   54.8201    6.7585 H         1 NNQ401      0.0000 
     22 H         -40.3161   53.6983    7.6212 H         1 NNQ401      0.0000 
     23 H         -40.0064   54.8102    9.6775 H         1 NNQ401      0.0000 
     24 H         -39.3618   56.2615    8.8912 H         1 NNQ401      0.0000 
     25 H         -37.6992   54.2262    8.0008 H         1 NNQ401      0.0000 
     26 H         -37.9900   53.8180    9.7004 H         1 NNQ401      0.0000 
     27 H         -37.6106   56.6412    9.5131 H         1 NNQ401      0.0000 
     28 H         -36.2965   55.8455    8.6300 H         1 NNQ401      0.0000 
     29 H         -35.4691   54.8381   10.5061 H         1 NNQ401      0.0000 
     30 H         -37.0722   54.6490   11.2370 H         1 NNQ401      0.0000 
     31 H         -35.7945   56.2912   12.5050 H         1 NNQ401      0.0000 
     32 H         -37.1359   57.0979   11.6743 H         1 NNQ401      0.0000 
     33 H         -35.5018   58.5766   11.0705 H         1 NNQ401      0.0000 
     34 H         -35.2695   57.4120    9.7553 H         1 NNQ401      0.0000 
     35 H         -33.4615   56.3249   11.1936 H         1 NNQ401      0.0000 
     36 H         -33.5959   57.7302   12.2647 H         1 NNQ401      0.0000 
     37 H         -32.3875   56.5362    9.1072 H         1 NNQ401      0.0000 
     38 H         -30.2731   59.8879    6.7587 H         1 NNQ401      0.0000 
     39 H         -30.0610   62.2875    7.0052 H         1 NNQ401      0.0000 
     40 H         -31.1559   63.4019    8.8459 H         1 NNQ401      0.0000 
     41 H         -32.4209   62.1288   10.4594 H         1 NNQ401      0.0000 
     42 H         -33.2915   60.0203   11.2279 H         1 NNQ401      0.0000 
     43 H         -40.9497   56.5742    7.1102 H         1 NNQ401      0.0000 
     44 H         -41.6153   55.3404    6.3222 H         1 NNQ401      0.0000 
     45 H         -41.9184   55.5525    7.8873 H         1 NNQ401      0.0000 
@<TRIPOS>BOND
     1    2    1 1    
     2   43    1 1    
     3   44    1 1    
     4   45    1 1    
     5    3    2 1    
     6   21    2 1    
     7   22    2 1    
     8    4    3 1    
     9   23    3 1    
    10   24    3 1    
    11    5    4 1    
    12   25    4 1    
    13   26    4 1    
    14    6    5 1    
    15   27    5 1    
    16   28    5 1    
    17    7    6 1    
    18   29    6 1    
    19   30    6 1    
    20    8    7 1    
    21   31    7 1    
    22   32    7 1    
    23    9    8 1    
    24   33    8 1    
    25   34    8 1    
    26   10    9 1    
    27   35    9 1    
    28   36    9 1    
    29   11   10 2    
    30   20   10 1    
    31   12   11 1    
    32   37   11 1    
    33   13   12 2    
    34   14   12 1    
    35   15   14 ar   
    36   19   14 ar   
    37   16   15 ar   
    38   38   15 1    
    39   17   16 ar   
    40   39   16 1    
    41   18   17 ar   
    42   40   17 1    
    43   19   18 ar   
    44   41   18 1    
    45   20   19 1    
    46   42   20 1    
@<TRIPOS>SUBSTRUCTURE
     1 NNQ401      1 GROUP   
@<TRIPOS>SET

