#    Name: 3ok9_G52_1_INTS_M
#    Modification time : Tue Mar 25 04:46:51 2014

@<TRIPOS>MOLECULE
3ok9_G52_1_INTS_M
  101     0     9     0     0
SMALL
NO_CHARGES


@<TRIPOS>ATOM
      1 CA         21.1665   29.6920   13.9035 C.3       3 GLC5        0.0000 
      2 CA         21.0010   27.7160   14.7810 C.3       9 GLL5        0.0000 
      3 CA         21.3320   31.6680   13.0260 C.3       6 GLP5        0.0000 
      4 CA         21.5685   26.8840   12.8425 C.3       3 GLC5        0.0000 
      5 CA         22.1360   26.0520   10.9040 C.3       6 GLP5        0.0000 
      6 CA         17.1635   25.9840   13.3995 C.3       3 GLC5        0.0000 
      7 CA         18.8690   26.5780   14.5980 C.3       9 GLL5        0.0000 
      8 CA         15.4580   25.3900   12.2010 C.3       6 GLP5        0.0000 
      9 CA         21.0580   23.2875   15.9475 C.3       3 GLC5        0.0000 
     10 CA         20.7370   25.4790   15.5860 C.3       9 GLL5        0.0000 
     11 CA         21.3790   21.0960   16.3090 C.3       6 GLP5        0.0000 
     12 CA         22.9630   26.2205   13.7215 C.3       3 GLC5        0.0000 
     13 CA         21.5740   26.5580   15.3090 C.3       9 GLL5        0.0000 
     14 CA         24.3520   25.8830   12.1340 C.3       6 GLP5        0.0000 
     15 CA         16.8075   21.6265   20.9995 C.3       3 GLC5        0.0000 
     16 CA         18.2110   22.3730   19.5590 C.3       9 GLL5        0.0000 
     17 CA         15.4040   20.8800   22.4400 C.3       6 GLP5        0.0000 
     18 CA         18.3470   20.1380   19.6785 C.3       3 GLC5        0.0000 
     19 CA         18.4830   17.9030   19.7980 C.3       6 GLP5        0.0000 
     20 CA         18.7240   25.5605   21.9340 C.3       3 GLC5        0.0000 
     21 CA         19.3940   24.2920   20.6110 C.3       9 GLL5        0.0000 
     22 CA         18.0540   26.8290   23.2570 C.3       6 GLP5        0.0000 
     23 CA         19.9100   23.7895   22.3445 C.3       3 GLC5        0.0000 
     24 CA         20.4260   23.2870   24.0780 C.3       6 GLP5        0.0000 
     25 CA         18.1380   23.6645   22.2120 C.3       3 GLC5        0.0000 
     26 CA         16.8820   23.0370   23.8130 C.3       6 GLP5        0.0000 
     27 CA         16.6335   27.0285   16.6710 C.3       3 GLC5        0.0000 
     28 CA         16.4650   25.0450   17.2430 C.3       9 GLL5        0.0000 
     29 CA         16.8020   29.0120   16.0990 C.3       6 GLP5        0.0000 
     30 N          13.6900   25.5310   19.2390 N.am      2 SEC2        0.0000 
     31 N          14.1680   24.9750   17.9920 N.am      8 SEL2        0.0000 
     32 N          13.2120   26.0870   20.4860 N.am      5 SEP2        0.0000 
     33 O          14.0880   25.8105   17.1350 O.2       1 ALC1        0.0000 
     34 O          14.1680   24.9750   17.9920 O.2       7 ALL1        0.0000 
     35 O          14.0080   26.6460   16.2780 O.2       4 ALP1        0.0000 
     36 O          12.5040   22.6770   17.4430 O.2       1 ALC1        0.0000 
     37 O          14.0210   22.0980   17.3780 O.2       7 ALL1        0.0000 
     38 O          10.9870   23.2560   17.5080 O.2       4 ALP1        0.0000 
     39 CA         12.3500   20.4090   20.6740 C.3       3 GLC5        0.0000 
     40 CA         12.8870   18.5800   19.9910 C.3       9 GLL5        0.0000 
     41 CA         11.8130   22.2380   21.3570 C.3       6 GLP5        0.0000 
     42 CA         11.4400   17.7430   21.4210 C.3       3 GLC5        0.0000 
     43 CA          9.9930   16.9060   22.8510 C.3       6 GLP5        0.0000 
     44 CA         13.6550   17.8400   21.7830 C.3       3 GLC5        0.0000 
     45 CA         14.4230   17.1000   23.5750 C.3       6 GLP5        0.0000 
     46 CA         13.8405   16.7180   20.4675 C.3       3 GLC5        0.0000 
     47 CA         14.7940   14.8560   20.9440 C.3       6 GLP5        0.0000 
     48 CA         14.1455   19.7300   21.2155 C.3       3 GLC5        0.0000 
     49 N          10.2400   18.8005   21.0605 N.am      2 SEC2        0.0000 
     50 N          11.4590   18.4980   19.8750 N.am      8 SEL2        0.0000 
     51 N           9.0210   19.1030   22.2460 N.am      5 SEP2        0.0000 
     52 CA         10.9970   20.2460   19.3575 C.3       3 GLC5        0.0000 
     53 CA         11.1310   18.1540   18.5520 C.3       9 GLL5        0.0000 
     54 CA         10.8630   22.3380   20.1630 C.3       6 GLP5        0.0000 
     55 CA          9.2335   18.6015   19.0885 C.3       3 GLC5        0.0000 
     56 CA          7.3360   19.0490   19.6250 C.3       6 GLP5        0.0000 
     57 N           9.7045   20.0085   19.0080 N.am      2 SEC2        0.0000 
     58 N          10.3990   19.2410   17.9550 N.am      8 SEL2        0.0000 
     59 N           9.0100   20.7760   20.0610 N.am      5 SEP2        0.0000 
     60 CA         10.9010   20.9785   18.4395 C.3       3 GLC5        0.0000 
     61 CA         10.9390   19.6190   16.7160 C.3       9 GLL5        0.0000 
     62 CA         11.4020   23.5520   14.4215 C.3       3 GLC5        0.0000 
     63 CA         12.6610   21.9310   14.3700 C.3       9 GLL5        0.0000 
     64 CA         10.1430   25.1730   14.4730 C.3       6 GLP5        0.0000 
     65 N          20.8715   30.2570   14.8265 N.am      2 SEC2        0.0000 
     66 N          21.7130   28.8620   14.5770 N.am      8 SEL2        0.0000 
     67 N          20.0300   31.6520   15.0760 N.am      5 SEP2        0.0000 
     68 CA         22.3900   30.1680   16.3660 C.3       3 GLC5        0.0000 
     69 CA         23.0460   28.7540   15.0250 C.3       9 GLL5        0.0000 
     70 CA         21.7340   31.5820   17.7070 C.3       6 GLP5        0.0000 
     71 CA         22.1890   30.2110   14.0255 C.3       3 GLC5        0.0000 
     72 CA         23.8820   28.0355   13.4590 C.3       3 GLC5        0.0000 
     73 CA         24.7180   27.3170   11.8930 C.3       6 GLP5        0.0000 
     74 CA         13.1250   16.2635   15.1785 C.3       3 GLC5        0.0000 
     75 CA         11.4540   17.6810   15.4100 C.3       9 GLL5        0.0000 
     76 CA         14.7960   14.8460   14.9470 C.3       6 GLP5        0.0000 
     77 CA         19.2138   25.5337   13.4115 C.3       3 GLC5        0.0000 
     78 CA         19.6640   27.6990   14.3900 C.3       9 GLL5        0.0000 
     79 CA         19.1610   23.9290   12.3290 C.3       6 GLP5        0.0000 
     80 CA         19.3884   27.5434   12.6649 C.3       3 GLC5        0.0000 
     81 CA         19.1760   27.9440   10.7380 C.3       6 GLP5        0.0000 
     82 CA         19.6122   24.7045   13.8812 C.3       3 GLC5        0.0000 
     83 CA         19.3900   25.4810   15.2810 C.3       9 GLL5        0.0000 
     84 CA         18.0651   27.6609   15.4933 C.3       3 GLC5        0.0000 
     85 CA         15.0927   18.3820   19.7460 C.3       3 GLC5        0.0000 
     86 CA         13.4080   18.8380   18.5870 C.3       9 GLL5        0.0000 
     87 CA         17.0380   18.0550   20.2030 C.3       6 GLP5        0.0000 
     88 CA         12.5412   22.2075   12.4917 C.3       3 GLC5        0.0000 
     89 CA         12.5880   23.0190   11.0310 C.3       6 GLP5        0.0000 
     90 CA         14.4862   19.9192   11.4512 C.3       3 GLC5        0.0000 
     91 CA         14.6700   20.6690   13.0050 C.3       9 GLL5        0.0000 
     92 CA         14.9590   19.3720    9.9950 C.3       6 GLP5        0.0000 
     93 CA         13.3008   21.7428   11.9693 C.3       3 GLC5        0.0000 
     94 CA         16.7707   20.6485   12.9117 C.3       3 GLC5        0.0000 
     95 CA         18.7120   20.0970   12.3950 C.3       6 GLP5        0.0000 
     96 CA         15.5241   19.6039   14.0074 C.3       3 GLC5        0.0000 
     97 CA         14.9890   21.7310   13.8520 C.3       9 GLL5        0.0000 
     98 CA         16.5470   18.1090   14.6350 C.3       6 GLP5        0.0000 
     99 CA         13.5337   22.5322   12.6120 C.3       3 GLC5        0.0000 
    100 CA         15.0078   23.8641   13.3163 C.3       3 GLC5        0.0000 
    101 CA         13.9700   22.3600   14.5340 C.3       9 GLL5        0.0000 
@<TRIPOS>BOND
@<TRIPOS>SUBSTRUCTURE
     1 ALC1       33 GROUP        1 X    ALC  0     ROOT ALC X 1
     2 SEC2       30 GROUP        1 X    SEC  0     **** SEC X 2
     3 GLC5        1 GROUP        1 X    GLC  0     **** GLC X 6
     4 ALP1       35 GROUP        1 Y    ALP  0     ROOT ALP Y 8
     5 SEP2       32 GROUP        1 Y    SEP  0     **** SEP Y 9
     6 GLP5        3 GROUP        1 Y    GLP  0     **** GLP Y 13
     7 ALL1       34 GROUP        1 Z    ALL  0     ROOT ALL Z 15
     8 SEL2       31 GROUP        1 Z    SEL  0     **** SEL Z 16
     9 GLL5        2 GROUP        1 Z    GLL  0     **** GLL Z 20
@<TRIPOS>SET

