#    Name: 3ok9_G52_1_ligand
#    Modification time : Tue Mar 25 04:46:51 2014

@<TRIPOS>MOLECULE
3ok9_G52_1_ligand
   82    86     1     0     0
SMALL
NO_CHARGES


@<TRIPOS>ATOM
      1 C2         21.0010   27.7160   14.7810 C.ar      1 G52401      0.0000 
      2 C3         19.6640   27.6990   14.3900 C.ar      1 G52401      0.0000 
      3 C4         18.8690   26.5780   14.5980 C.ar      1 G52401      0.0000 
      4 C5         19.3900   25.4810   15.2810 C.ar      1 G52401      0.0000 
      5 C6         20.7370   25.4790   15.5860 C.ar      1 G52401      0.0000 
      6 C7         21.5740   26.5580   15.3090 C.ar      1 G52401      0.0000 
      7 S8         18.4030   24.0840   15.6940 S.o2      1 G52401      0.0000 
      8 O9         17.3220   24.0040   14.6670 O.2       1 G52401      0.0000 
      9 O10        19.3150   22.9220   15.8240 O.2       1 G52401      0.0000 
     10 N11        17.7090   24.2840   17.1750 N.pl3     1 G52401      0.0000 
     11 C12        18.6590   24.5440   18.2440 C.3       1 G52401      0.0000 
     12 C13        18.3170   23.8950   19.5820 C.3       1 G52401      0.0000 
     13 C14        18.2110   22.3730   19.5590 C.3       1 G52401      0.0000 
     14 C15        19.3940   24.2920   20.6110 C.3       1 G52401      0.0000 
     15 C16        16.4650   25.0450   17.2430 C.3       1 G52401      0.0000 
     16 C17        15.3120   24.1680   17.7060 C.3       1 G52401      0.0000 
     17 O18        14.1680   24.9750   17.9920 O.3       1 G52401      0.0000 
     18 C19        14.9500   23.0320   16.7540 C.3       1 G52401      0.0000 
     19 N20        14.0210   22.0980   17.3780 N.am      1 G52401      0.0000 
     20 C21        14.2710   20.8360   17.7170 C.2       1 G52401      0.0000 
     21 O22        15.3900   20.3290   17.5120 O.2       1 G52401      0.0000 
     22 O23        13.2150   20.2220   18.3140 O.3       1 G52401      0.0000 
     23 C24        13.4080   18.8380   18.5870 C.3       1 G52401      0.0000 
     24 C25        12.8870   18.5800   19.9910 C.3       1 G52401      0.0000 
     25 O26        11.4590   18.4980   19.8750 O.3       1 G52401      0.0000 
     26 C27        11.1310   18.1540   18.5520 C.3       1 G52401      0.0000 
     27 O28        10.3990   19.2410   17.9550 O.3       1 G52401      0.0000 
     28 C29        10.9390   19.6190   16.7160 C.3       1 G52401      0.0000 
     29 C30        12.0780   18.6490   16.4060 C.3       1 G52401      0.0000 
     30 C31        12.4080   18.0150   17.7440 C.3       1 G52401      0.0000 
     31 C32        14.2820   23.5310   15.4880 C.3       1 G52401      0.0000 
     32 C33        12.6610   21.9310   14.3700 C.ar      1 G52401      0.0000 
     33 C34        12.3280   20.8610   13.5350 C.ar      1 G52401      0.0000 
     34 C35        13.3570   20.2640   12.8100 C.ar      1 G52401      0.0000 
     35 C36        14.6700   20.6690   13.0050 C.ar      1 G52401      0.0000 
     36 C37        14.9890   21.7310   13.8520 C.ar      1 G52401      0.0000 
     37 C38        13.9700   22.3600   14.5340 C.ar      1 G52401      0.0000 
     38 O39        21.7130   28.8620   14.5770 O.3       1 G52401      0.0000 
     39 C40        23.0460   28.7540   15.0250 C.3       1 G52401      0.0000 
     40 O41         9.9220   19.3920   15.7030 O.3       1 G52401      0.0000 
     41 C42         9.9500   17.9520   15.5140 C.3       1 G52401      0.0000 
     42 C43        11.4540   17.6810   15.4100 C.3       1 G52401      0.0000 
     43 H          19.2567   28.5366   13.9367 H         1 G52401      0.0000 
     44 H          17.9042   26.5569   14.2513 H         1 G52401      0.0000 
     45 H          21.1521   24.6325   16.0453 H         1 G52401      0.0000 
     46 H          22.5708   26.5045   15.4855 H         1 G52401      0.0000 
     47 H          18.7608   25.6413   18.4171 H         1 G52401      0.0000 
     48 H          19.6788   24.1988   17.9521 H         1 G52401      0.0000 
     49 H          17.3755   24.3074   19.9434 H         1 G52401      0.0000 
     50 H          16.2088   25.4606   16.2591 H         1 G52401      0.0000 
     51 H          16.5612   25.8862   17.9427 H         1 G52401      0.0000 
     52 H          15.6447   23.6871   18.6619 H         1 G52401      0.0000 
     53 H          15.8552   22.5081   16.4717 H         1 G52401      0.0000 
     54 H          13.0475   22.5172   17.5636 H         1 G52401      0.0000 
     55 H          14.3454   18.4737   18.4784 H         1 G52401      0.0000 
     56 H          13.1929   19.4006   20.6248 H         1 G52401      0.0000 
     57 H          13.3156   17.6545   20.3494 H         1 G52401      0.0000 
     58 H          10.5889   17.2476   18.4809 H         1 G52401      0.0000 
     59 H          11.3024   20.5939   16.6913 H         1 G52401      0.0000 
     60 H          12.8674   19.1665   16.0044 H         1 G52401      0.0000 
     61 H          12.6785   17.0379   17.6801 H         1 G52401      0.0000 
     62 H          14.9389   24.2326   14.9769 H         1 G52401      0.0000 
     63 H          13.3505   24.0361   15.7375 H         1 G52401      0.0000 
     64 H          11.8973   22.4202   14.8848 H         1 G52401      0.0000 
     65 H          11.3755   20.5339   13.4612 H         1 G52401      0.0000 
     66 H          13.1410   19.5228   12.1303 H         1 G52401      0.0000 
     67 H          15.4362   20.1716   12.5099 H         1 G52401      0.0000 
     68 H          15.9584   22.0295   13.9587 H         1 G52401      0.0000 
     69 H           9.4891   17.6628   14.6029 H         1 G52401      0.0000 
     70 H           9.5692   17.4340   16.3583 H         1 G52401      0.0000 
     71 H          11.6567   16.6800   15.7011 H         1 G52401      0.0000 
     72 H          11.7894   17.9049   14.4275 H         1 G52401      0.0000 
     73 H          19.0671   21.9454   19.2686 H         1 G52401      0.0000 
     74 H          17.9896   22.0025   20.4610 H         1 G52401      0.0000 
     75 H          17.4990   22.0598   18.9306 H         1 G52401      0.0000 
     76 H          20.3044   23.9861   20.3325 H         1 G52401      0.0000 
     77 H          19.4427   25.2832   20.7339 H         1 G52401      0.0000 
     78 H          19.2133   23.8936   21.5102 H         1 G52401      0.0000 
     79 H          23.5371   28.0199   14.5560 H         1 G52401      0.0000 
     80 H          23.5600   29.5973   14.8682 H         1 G52401      0.0000 
     81 H          23.0939   28.5594   16.0047 H         1 G52401      0.0000 
     82 H          13.8561   25.3065   17.1015 H         1 G52401      0.0000 
@<TRIPOS>BOND
     1    2    1 ar   
     2    6    1 ar   
     3   38    1 1    
     4    3    2 ar   
     5   43    2 1    
     6    4    3 ar   
     7   44    3 1    
     8    5    4 ar   
     9    7    4 1    
    10    6    5 ar   
    11   45    5 1    
    12   46    6 1    
    13    8    7 2    
    14    9    7 2    
    15   10    7 1    
    16   11   10 1    
    17   15   10 1    
    18   12   11 1    
    19   47   11 1    
    20   48   11 1    
    21   13   12 1    
    22   14   12 1    
    23   49   12 1    
    24   73   13 1    
    25   74   13 1    
    26   75   13 1    
    27   76   14 1    
    28   77   14 1    
    29   78   14 1    
    30   16   15 1    
    31   50   15 1    
    32   51   15 1    
    33   17   16 1    
    34   18   16 1    
    35   52   16 1    
    36   82   17 1    
    37   19   18 1    
    38   31   18 1    
    39   53   18 1    
    40   20   19 am   
    41   54   19 1    
    42   21   20 2    
    43   22   20 1    
    44   23   22 1    
    45   24   23 1    
    46   30   23 1    
    47   55   23 1    
    48   25   24 1    
    49   56   24 1    
    50   57   24 1    
    51   26   25 1    
    52   27   26 1    
    53   30   26 1    
    54   58   26 1    
    55   28   27 1    
    56   29   28 1    
    57   40   28 1    
    58   59   28 1    
    59   30   29 1    
    60   42   29 1    
    61   60   29 1    
    62   61   30 1    
    63   37   31 1    
    64   62   31 1    
    65   63   31 1    
    66   33   32 ar   
    67   37   32 ar   
    68   64   32 1    
    69   34   33 ar   
    70   65   33 1    
    71   35   34 ar   
    72   66   34 1    
    73   36   35 ar   
    74   67   35 1    
    75   37   36 ar   
    76   68   36 1    
    77   39   38 1    
    78   79   39 1    
    79   80   39 1    
    80   81   39 1    
    81   41   40 1    
    82   42   41 1    
    83   69   41 1    
    84   70   41 1    
    85   71   42 1    
    86   72   42 1    
@<TRIPOS>SUBSTRUCTURE
     1 G52401      1 GROUP   
@<TRIPOS>SET

