#    Name: 1OLC_1_CAVITY_N1_6.mol2
#    Modification time : Mon Mar 10 22:36:46 2014

@<TRIPOS>MOLECULE
1OLC_1_CAVITY_N1_6.mol2
   37     0     4     0     0
SMALL
NO_CHARGES


@<TRIPOS>ATOM
      1 O          -2.8209   24.0989   14.5328 O.2       2 ALA2        0.0000 
      2 O          -1.0046   23.1472   16.1281 O.2       2 ALA2        0.0000 
      3 OG         -1.7882   23.0775   14.1581 O.2       1 SER1        0.0000 
      4 O          -2.0584   22.3363   15.4339 O.2       2 ALA2        0.0000 
      5 OG         -3.1122   21.5255   14.7397 O.2       1 SER1        0.0000 
      6 O          -3.3824   20.7843   16.0155 O.2       2 ALA2        0.0000 
      7 N          -4.1661   20.7146   14.0454 N.2       2 ALA2        0.0000 
      8 N          -4.4362   19.9734   15.3212 N.2       2 ALA2        0.0000 
      9 CZ          0.0281   22.1259   15.7534 C.ar      3 PHE5        0.0000 
     10 O          -0.2420   21.3847   17.0292 O.2       2 ALA2        0.0000 
     11 OG         -0.7555   22.0562   13.7834 O.2       1 SER1        0.0000 
     12 OG         -1.0257   21.3150   15.0592 O.2       1 SER1        0.0000 
     13 O          -1.2959   20.5738   16.3350 O.2       2 ALA2        0.0000 
     14 OG         -2.0795   20.5041   14.3650 O.2       1 SER1        0.0000 
     15 OG         -2.3497   19.7629   15.6408 O.2       1 SER1        0.0000 
     16 OG         -3.1334   19.6933   13.6708 O.2       1 SER1        0.0000 
     17 OG         -3.4035   18.9521   14.9466 O.2       1 SER1        0.0000 
     18 N          -4.1872   18.8824   12.9765 N.2       2 ALA2        0.0000 
     19 N          -4.4573   18.1412   14.2523 N.2       2 ALA2        0.0000 
     20 CZ          1.3310   21.8457   14.1030 C.ar      3 PHE5        0.0000 
     21 CZ          1.0608   21.1045   15.3788 C.ar      3 PHE5        0.0000 
     22 CA          0.2772   21.0348   13.4087 C.3       4 GLY6        0.0000 
     23 CA          0.0070   20.2936   14.6845 C.3       4 GLY6        0.0000 
     24 N          -0.2632   19.5525   15.9603 N.2       2 ALA2        0.0000 
     25 OG         -1.0468   19.4828   13.9903 O.2       1 SER1        0.0000 
     26 OG         -1.3170   18.7416   15.2661 O.2       1 SER1        0.0000 
     27 OG         -1.5872   18.0004   16.5419 O.2       1 SER1        0.0000 
     28 OG         -2.1007   18.6719   13.2961 O.2       1 SER1        0.0000 
     29 CZ         -2.3708   17.9307   14.5719 C.ar      3 PHE5        0.0000 
     30 N          -3.1545   17.8610   12.6019 N.2       2 ALA2        0.0000 
     31 CZ         -3.4246   17.1199   13.8777 C.ar      3 PHE5        0.0000 
     32 CA          2.0935   20.0832   15.0041 C.3       4 GLY6        0.0000 
     33 CA          1.0397   19.2723   14.3099 C.3       4 GLY6        0.0000 
     34 N           0.7695   18.5311   15.5857 N.2       2 ALA2        0.0000 
     35 CA         -0.2843   17.7202   14.8914 C.3       4 GLY6        0.0000 
     36 OG         -1.0680   17.6506   12.9214 O.2       1 SER1        0.0000 
     37 CA         -1.3381   16.9094   14.1972 C.3       4 GLY6        0.0000 
@<TRIPOS>BOND
@<TRIPOS>SUBSTRUCTURE
     1 SER1        3 GROUP   
     2 ALA2        1 GROUP   
     3 PHE5        9 GROUP   
     4 GLY6       22 GROUP   
@<TRIPOS>SET

