#    Name: 1olc_LYS_LYS_LYS_ALA_1_INTS_M
#    Modification time : Mon Mar 24 20:17:32 2014

@<TRIPOS>MOLECULE
1olc_LYS_LYS_LYS_ALA_1_INTS_M
  113     0    12     0     0
SMALL
NO_CHARGES


@<TRIPOS>ATOM
      1 OD1         7.5785   16.3265   14.3370 O.co2     3 ASC3        0.0000 
      2 OD1         6.8180   17.0800   15.2630 O.co2    11 ASL3        0.0000 
      3 OD1         8.3390   15.5730   13.4110 O.co2     7 ASP3        0.0000 
      4 OD1         8.3630   16.3655   15.1200 O.co2     3 ASC3        0.0000 
      5 OD1         9.9080   15.6510   14.9770 O.co2     7 ASP3        0.0000 
      6 O           6.1500   15.8795   15.5405 O.2       1 ALC1        0.0000 
      7 O           6.8180   17.0800   15.2630 O.2       9 ALL1        0.0000 
      8 O           5.4820   14.6790   15.8180 O.2       5 ALP1        0.0000 
      9 O           7.5785   16.3265   14.3370 O.2       1 ALC1        0.0000 
     10 O           8.3390   15.5730   13.4110 O.2       5 ALP1        0.0000 
     11 O           8.3630   16.3655   15.1200 O.2       1 ALC1        0.0000 
     12 O           9.9080   15.6510   14.9770 O.2       5 ALP1        0.0000 
     13 CA          8.5350   18.7090   14.5810 C.3       4 GLC5        0.0000 
     14 CA          6.4060   18.3910   14.6950 C.3      12 GLL5        0.0000 
     15 CA         10.6640   19.0270   14.4670 C.3       8 GLP5        0.0000 
     16 CA          7.0360   18.6780   16.4580 C.3       4 GLC5        0.0000 
     17 CA          7.6660   18.9650   18.2210 C.3       8 GLP5        0.0000 
     18 N           3.7935   16.8795   16.5190 N.am      2 SEC2        0.0000 
     19 N           4.3960   18.0550   15.9290 N.am     10 SEL2        0.0000 
     20 N           3.1910   15.7040   17.1090 N.am      6 SEP2        0.0000 
     21 CA          5.5485   20.3720   12.8085 C.3       4 GLC5        0.0000 
     22 CA          6.1210   18.2770   13.1750 C.3      12 GLL5        0.0000 
     23 CA          4.9760   22.4670   12.4420 C.3       8 GLP5        0.0000 
     24 CA          3.9225   15.9410   13.8075 C.3       4 GLC5        0.0000 
     25 CA          5.3480   17.0560   12.7390 C.3      12 GLL5        0.0000 
     26 CA          2.4970   14.8260   14.8760 C.3       8 GLP5        0.0000 
     27 CA          8.4705   16.2075   10.7445 C.3       4 GLC5        0.0000 
     28 CA          6.4020   16.2160   10.5680 C.3      12 GLL5        0.0000 
     29 CA         10.5390   16.1990   10.9210 C.3       8 GLP5        0.0000 
     30 OD1         7.4150   15.2045   12.2575 O.co2     3 ASC3        0.0000 
     31 OD1         6.4910   14.8360   11.1040 O.co2    11 ASL3        0.0000 
     32 O           7.4150   15.2045   12.2575 O.2       1 ALC1        0.0000 
     33 O           6.4910   14.8360   11.1040 O.2       9 ALL1        0.0000 
     34 O           6.0400   20.9370   14.8550 O.2       1 ALC1        0.0000 
     35 O           5.0510   20.1940   15.6680 O.2       9 ALL1        0.0000 
     36 O           7.0290   21.6800   14.0420 O.2       5 ALP1        0.0000 
     37 CA          5.2145   19.6470   17.6120 C.3       4 GLC5        0.0000 
     38 CA          3.9110   20.8350   16.3400 C.3      12 GLL5        0.0000 
     39 CA          6.5180   18.4590   18.8840 C.3       8 GLP5        0.0000 
     40 N           2.9940   21.1160   12.8725 N.am      2 SEC2        0.0000 
     41 N           2.6930   21.1870   14.2620 N.am     10 SEL2        0.0000 
     42 N           3.2950   21.0450   11.4830 N.am      6 SEP2        0.0000 
     43 CA          2.9210   23.4230   15.9925 C.3       4 GLC5        0.0000 
     44 CA          4.3220   22.2890   16.7840 C.3      12 GLL5        0.0000 
     45 CA          1.5200   24.5570   15.2010 C.3       8 GLP5        0.0000 
     46 CA          4.2170   24.4250   17.1490 C.3       4 GLC5        0.0000 
     47 CA          4.1120   26.5610   17.5140 C.3       8 GLP5        0.0000 
     48 CA          7.2760   22.6440   16.8095 C.3       4 GLC5        0.0000 
     49 CA          5.4640   22.1830   17.8060 C.3      12 GLL5        0.0000 
     50 CA          9.0880   23.1050   15.8130 C.3       8 GLP5        0.0000 
     51 CA          6.5650   20.5740   18.0135 C.3       4 GLC5        0.0000 
     52 CA          4.9090   24.8965   18.1535 C.3       4 GLC5        0.0000 
     53 CA          5.7060   23.2320   18.7930 C.3      12 GLL5        0.0000 
     54 CA          7.1285   24.2085   21.3455 C.3       4 GLC5        0.0000 
     55 CA          6.0770   22.8220   20.2340 C.3      12 GLL5        0.0000 
     56 CA          8.1800   25.5950   22.4570 C.3       8 GLP5        0.0000 
     57 OD1         8.6475   22.6070   19.1580 O.co2     3 ASC3        0.0000 
     58 OD1         7.3330   22.0440   20.3070 O.co2    11 ASL3        0.0000 
     59 OD1         9.9620   23.1700   18.0090 O.co2     7 ASP3        0.0000 
     60 O           8.5835   21.8400   21.2340 O.2       1 ALC1        0.0000 
     61 O           7.3330   22.0440   20.3070 O.2       9 ALL1        0.0000 
     62 O           9.8340   21.6360   22.1610 O.2       5 ALP1        0.0000 
     63 O           1.5745   19.7250   17.2920 O.2       1 ALC1        0.0000 
     64 O           1.5380   20.3010   15.9760 O.2       9 ALL1        0.0000 
     65 O           1.6110   19.1490   18.6080 O.2       5 ALP1        0.0000 
     66 N          -1.8545   22.2245   17.4715 N.am      2 SEC2        0.0000 
     67 N          -1.2260   21.4070   16.5200 N.am     10 SEL2        0.0000 
     68 N          -2.4830   23.0420   18.4230 N.am      6 SEP2        0.0000 
     69 N          -1.9690   21.1015   17.6400 N.am      2 SEC2        0.0000 
     70 N          -2.7120   20.7960   18.7600 N.am      6 SEP2        0.0000 
     71 O          -3.2615   19.8655   12.1920 O.2       1 ALC1        0.0000 
     72 O          -4.1530   18.6390   12.8830 O.2       9 ALL1        0.0000 
     73 O          -2.3700   21.0920   11.5010 O.2       5 ALP1        0.0000 
     74 O          -5.5180   17.9695   12.4350 O.2       1 ALC1        0.0000 
     75 O          -6.8830   17.3000   11.9870 O.2       5 ALP1        0.0000 
     76 O          -4.1830   18.1800   11.5090 O.2       1 ALC1        0.0000 
     77 O          -4.2130   17.7210   10.1350 O.2       5 ALP1        0.0000 
     78 O          -5.3820   19.2770   13.4580 O.2       1 ALC1        0.0000 
     79 O          -6.6110   19.9150   14.0330 O.2       5 ALP1        0.0000 
     80 N          -5.3425   22.6705   14.5000 N.am      2 SEC2        0.0000 
     81 N          -4.1080   23.1660   15.2320 N.am     10 SEL2        0.0000 
     82 N          -6.5770   22.1750   13.7680 N.am      6 SEP2        0.0000 
     83 N          -3.8780   24.5970   15.6910 N.am      2 SEC2        0.0000 
     84 N          -3.6480   26.0280   16.1500 N.am      6 SEP2        0.0000 
     85 N          -4.9750   23.2390   16.2360 N.am      2 SEC2        0.0000 
     86 N          -5.8420   23.3120   17.2400 N.am      6 SEP2        0.0000 
     87 CA         -0.7930   23.9495   11.5785 C.3       4 GLC5        0.0000 
     88 CA         -1.7060   24.1110   13.2310 C.3      12 GLL5        0.0000 
     89 CA          0.1200   23.7880    9.9260 C.3       8 GLP5        0.0000 
     90 CA         -2.5240   22.6245   11.8765 C.3       4 GLC5        0.0000 
     91 CA         -3.3420   21.1380   10.5220 C.3       8 GLP5        0.0000 
     92 N          -2.8630   21.3430   12.6875 N.am      2 SEC2        0.0000 
     93 N          -3.3560   21.5940   13.8740 N.am     10 SEL2        0.0000 
     94 N          -2.3700   21.0920   11.5010 N.am      6 SEP2        0.0000 
     95 N          -4.9665   21.8845   13.8210 N.am      2 SEC2        0.0000 
     96 CA          3.7034   17.8394   12.0832 C.3       4 GLC5        0.0000 
     97 CA          1.9380   18.3870   12.0800 C.3       8 GLP5        0.0000 
     98 CA          5.9228   17.8293    9.4115 C.3       4 GLC5        0.0000 
     99 CA          5.2030   16.9170   11.2160 C.3      12 GLL5        0.0000 
    100 CA          6.0430   19.0920    7.9310 C.3       8 GLP5        0.0000 
    101 CA          4.5463   22.0145   14.5020 C.3       4 GLC5        0.0000 
    102 CA          0.6336   18.7264   13.4470 C.3       4 GLC5        0.0000 
    103 CA         -1.2900   18.6270   14.2470 C.3      12 GLL5        0.0000 
    104 CA         -2.8392   15.7703   13.5113 C.3       4 GLC5        0.0000 
    105 CA         -2.4740   17.7770   14.5040 C.3      12 GLL5        0.0000 
    106 CA         -2.8120   13.8970   13.1580 C.3       8 GLP5        0.0000 
    107 CA         -0.4598   16.7749   14.8362 C.3       4 GLC5        0.0000 
    108 CA          0.7560   15.2920   14.9670 C.3       8 GLP5        0.0000 
    109 CA         -3.8148   17.0393   15.3792 C.3       4 GLC5        0.0000 
    110 CA         -4.7630   16.4350   16.8940 C.3       8 GLP5        0.0000 
    111 CA         -0.5722   24.5663   14.8145 C.3       4 GLC5        0.0000 
    112 CA         -1.7810   23.2220   14.4770 C.3      12 GLL5        0.0000 
    113 CA          0.5990   25.4660   15.7750 C.3       8 GLP5        0.0000 
@<TRIPOS>BOND
@<TRIPOS>SUBSTRUCTURE
     1 ALC1        6 GROUP        1 X    ALC  0     ROOT ALC X 1
     2 SEC2       18 GROUP        1 X    SEC  0     **** SEC X 2
     3 ASC3        1 GROUP        1 X    ASC  0     **** ASC X 3
     4 GLC5       13 GROUP        1 X    GLC  0     **** GLC X 6
     5 ALP1        8 GROUP        1 Y    ALP  0     ROOT ALP Y 8
     6 SEP2       20 GROUP        1 Y    SEP  0     **** SEP Y 9
     7 ASP3        3 GROUP        1 Y    ASP  0     **** ASP Y 10
     8 GLP5       15 GROUP        1 Y    GLP  0     **** GLP Y 13
     9 ALL1        7 GROUP        1 Z    ALL  0     ROOT ALL Z 15
    10 SEL2       19 GROUP        1 Z    SEL  0     **** SEL Z 16
    11 ASL3        2 GROUP        1 Z    ASL  0     **** ASL Z 17
    12 GLL5       14 GROUP        1 Z    GLL  0     **** GLL Z 20
@<TRIPOS>SET

