#    Name: 1olc_LYS_LYS_LYS_ALA_1_ligand
#    Modification time : Mon Mar 24 20:17:32 2014

@<TRIPOS>MOLECULE
1olc_LYS_LYS_LYS_ALA_1_ligand
   79    78     4     0     0
SMALL
NO_CHARGES


@<TRIPOS>ATOM
      1 N           6.8180   17.0800   15.2630 N.4       1 LYS1        0.0000
      2 CA          6.4060   18.3910   14.6950 C.3       1 LYS1        0.0000
      3 C           5.1930   18.9020   15.4660 C.2       1 LYS1        0.0000
      4 O           4.3960   18.0550   15.9290 O.2       1 LYS1        0.0000
      5 CB          6.1210   18.2770   13.1750 C.3       1 LYS1        0.0000
      6 CG          5.3480   17.0560   12.7390 C.3       1 LYS1        0.0000
      7 CD          5.2030   16.9170   11.2160 C.3       1 LYS1        0.0000
      8 CE          6.4020   16.2160   10.5680 C.3       1 LYS1        0.0000
      9 NZ          6.4910   14.8360   11.1040 N.4       1 LYS1        0.0000
     10 HA          7.2163   19.1055   14.8302 H         1 LYS1        0.0000
     11 HB2         7.0953   18.3079   12.6426 H         1 LYS1        0.0000
     12 HB3         5.5753   19.1921   12.8613 H         1 LYS1        0.0000
     13 HG2         4.3382   17.0813   13.1845 H         1 LYS1        0.0000
     14 HG3         5.8439   16.1489   13.1263 H         1 LYS1        0.0000
     15 HD2         5.0911   17.9145   10.7769 H         1 LYS1        0.0000
     16 HD3         4.2933   16.3475   10.9959 H         1 LYS1        0.0000
     17 HE2         7.2999   16.7762   10.8039 H         1 LYS1        0.0000
     18 HE3         6.2550   16.2000    9.4939 H         1 LYS1        0.0000
     19 HNCA        7.6141   16.7037   14.7892 H         1 LYS1        0.0000
     20 H           7.0606   17.1541   16.2303 H         1 LYS1        0.0000
     21 H           6.0880   16.3999   15.1951 H         1 LYS1        0.0000
     22 HZ1         6.8881   14.2040   10.4386 H         1 LYS1        0.0000
     23 HZ2         7.0599   14.7925   11.9253 H         1 LYS1        0.0000
     24 HZ3         5.5918   14.4748   11.3509 H         1 LYS1        0.0000
     25 N           5.0510   20.1940   15.6680 N.am      2 LYS2        0.0000
     26 CA          3.9110   20.8350   16.3400 C.3       2 LYS2        0.0000
     27 C           2.6900   20.8210   15.4520 C.2       2 LYS2        0.0000
     28 O           2.6930   21.1870   14.2620 O.2       2 LYS2        0.0000
     29 CB          4.3220   22.2890   16.7840 C.3       2 LYS2        0.0000
     30 CG          5.4640   22.1830   17.8060 C.3       2 LYS2        0.0000
     31 CD          5.7060   23.2320   18.7930 C.3       2 LYS2        0.0000
     32 CE          6.0770   22.8220   20.2340 C.3       2 LYS2        0.0000
     33 NZ          7.3330   22.0440   20.3070 N.4       2 LYS2        0.0000
     34 HNCA        5.7950   20.8876   15.3379 H         2 LYS2        0.0000
     35 HA          3.6841   20.2847   17.2584 H         2 LYS2        0.0000
     36 HB2         3.4694   22.7607   17.2337 H         2 LYS2        0.0000
     37 HB3         4.6537   22.8279   15.9173 H         2 LYS2        0.0000
     38 HG2         6.4208   21.9961   17.2073 H         2 LYS2        0.0000
     39 HG3         5.3303   21.1807   18.3412 H         2 LYS2        0.0000
     40 HD2         4.8044   23.9089   18.8673 H         2 LYS2        0.0000
     41 HD3         6.5215   23.9245   18.4297 H         2 LYS2        0.0000
     42 HE2         5.2385   22.2381   20.6461 H         2 LYS2        0.0000
     43 HE3         6.1581   23.7407   20.8369 H         2 LYS2        0.0000
     44 HZ1         7.1861   21.1379   20.7038 H         2 LYS2        0.0000
     45 HZ2         7.7375   21.9060   19.4030 H         2 LYS2        0.0000
     46 HZ3         8.0214   22.5021   20.8694 H         2 LYS2        0.0000
     47 N           1.5380   20.3010   15.9760 N.am      3 LYS3        0.0000
     48 CA          0.3610   20.1590   15.1950 C.3       3 LYS3        0.0000
     49 C          -0.6230   21.3100   15.4330 C.2       3 LYS3        0.0000
     50 O          -1.2260   21.4070   16.5200 O.2       3 LYS3        0.0000
     51 CB         -0.4640   18.8500   15.5670 C.3       3 LYS3        0.0000
     52 CG         -1.2900   18.6270   14.2470 C.3       3 LYS3        0.0000
     53 CD         -2.4740   17.7770   14.5040 C.3       3 LYS3        0.0000
     54 CE         -3.2590   17.5100   13.2250 C.3       3 LYS3        0.0000
     55 NZ         -4.1530   18.6390   12.8830 N.4       3 LYS3        0.0000
     56 HNCA        1.5012   19.9957   16.9688 H         3 LYS3        0.0000
     57 HA          0.5456   20.1030   14.1385 H         3 LYS3        0.0000
     58 HB2        -1.1087   19.0691   16.3505 H         3 LYS3        0.0000
     59 HB3         0.1976   18.0618   15.7032 H         3 LYS3        0.0000
     60 HG2        -0.6238   18.1631   13.5200 H         3 LYS3        0.0000
     61 HG3        -1.5843   19.6088   13.8767 H         3 LYS3        0.0000
     62 HD2        -3.1413   18.2631   15.2272 H         3 LYS3        0.0000
     63 HD3        -2.1654   16.8140   14.9307 H         3 LYS3        0.0000
     64 HE2        -3.8438   16.5899   13.3611 H         3 LYS3        0.0000
     65 HE3        -2.5451   17.3300   12.4095 H         3 LYS3        0.0000
     66 HZ1        -4.6674   18.4642   12.0434 H         3 LYS3        0.0000
     67 HZ2        -4.8219   18.8151   13.6052 H         3 LYS3        0.0000
     68 HZ3        -3.6427   19.4875   12.7428 H         3 LYS3        0.0000
     69 N          -0.7910   22.1230   14.4010 N.am      4 ALA4        0.0000
     70 CA         -1.7810   23.2220   14.4770 C.3       4 ALA4        0.0000
     71 C          -3.2070   22.6110   14.5690 C.2       4 ALA4        0.0000
     72 O          -4.1080   23.1660   15.2320 O.2       4 ALA4        0.0000
     73 CB         -1.7060   24.1110   13.2310 C.3       4 ALA4        0.0000
     74 OXT        -3.3560   21.5940   13.8740 O.2       4 ALA4        0.0000
     75 H          -0.2703   22.0497   13.5192 H         4 ALA4        0.0000
     76 HA         -1.6216   23.8204   15.3458 H         4 ALA4        0.0000
     77 HB1        -0.8021   24.5252   13.1241 H         4 ALA4        0.0000
     78 HB2        -1.8927   23.5951   12.3949 H         4 ALA4        0.0000
     79 HB3        -2.3686   24.8590   13.2680 H         4 ALA4        0.0000
@<TRIPOS>BOND
     1    2    1 1
     2   19    1 1
     3   20    1 1
     4   21    1 1
     5    3    2 1
     6    5    2 1
     7   10    2 1
     8    4    3 2
     9    6    5 1
    10   11    5 1
    11   12    5 1
    12    7    6 1
    13   13    6 1
    14   14    6 1
    15    8    7 1
    16   15    7 1
    17   16    7 1
    18    9    8 1
    19   17    8 1
    20   18    8 1
    21   22    9 1
    22   23    9 1
    23   24    9 1
    24   26   25 1
    25   34   25 1
    26   27   26 1
    27   29   26 1
    28   35   26 1
    29   28   27 2
    30   30   29 1
    31   36   29 1
    32   37   29 1
    33   31   30 1
    34   38   30 1
    35   39   30 1
    36   32   31 1
    37   40   31 1
    38   41   31 1
    39   33   32 1
    40   42   32 1
    41   43   32 1
    42   44   33 1
    43   45   33 1
    44   46   33 1
    45   48   47 1
    46   56   47 1
    47   49   48 1
    48   51   48 1
    49   57   48 1
    50   50   49 2
    51   52   51 1
    52   58   51 1
    53   59   51 1
    54   53   52 1
    55   60   52 1
    56   61   52 1
    57   54   53 1
    58   62   53 1
    59   63   53 1
    60   55   54 1
    61   64   54 1
    62   65   54 1
    63   66   55 1
    64   67   55 1
    65   68   55 1
    66   70   69 1
    67   75   69 1
    68   71   70 1
    69   73   70 1
    70   76   70 1
    71   72   71 2
    72   74   71 2
    73   77   73 1
    74   78   73 1
    75   79   73 1
    76   25    3 am
    77   47   27 am
    78   69   49 am
@<TRIPOS>SUBSTRUCTURE
     1 LYS1        1 RESIDUE
     2 LYS2       25 RESIDUE
     3 LYS3       47 RESIDUE
     4 ALA4       69 RESIDUE
@<TRIPOS>SET

