#    Name: 2rkg_AB1_1_INTS_M
#    Modification time : Tue Mar 25 00:02:23 2014

@<TRIPOS>MOLECULE
2rkg_AB1_1_INTS_M
   87     0     9     0     0
SMALL
NO_CHARGES


@<TRIPOS>ATOM
      1 N         -13.0880   16.6775    6.2530 N.am      2 SEC2        0.0000 
      2 N         -13.0410   15.5350    5.5690 N.am      8 SEL2        0.0000 
      3 N         -13.1350   17.8200    6.9370 N.am      5 SEP2        0.0000 
      4 CA        -11.3050   16.9250    4.7120 C.3       3 GLC5        0.0000 
      5 CA        -10.4930   15.1880    4.5370 C.3       9 GLL5        0.0000 
      6 CA        -12.1170   18.6620    4.8870 C.3       6 GLP5        0.0000 
      7 O         -12.3585   16.2310    2.5635 O.2       1 ALC1        0.0000 
      8 O         -11.2610   15.2040    2.2700 O.2       7 ALL1        0.0000 
      9 O         -13.4560   17.2580    2.8570 O.2       4 ALP1        0.0000 
     10 CA         -6.8835   17.5800    3.7810 C.3       3 GLC5        0.0000 
     11 CA         -8.3050   16.4700    4.3100 C.3       9 GLL5        0.0000 
     12 CA         -5.4620   18.6900    3.2520 C.3       6 GLP5        0.0000 
     13 CA         -9.6800   16.7185    8.5930 C.3       3 GLC5        0.0000 
     14 CA         -9.3270   16.2580    6.5470 C.3       9 GLL5        0.0000 
     15 CA        -10.0330   17.1790   10.6390 C.3       6 GLP5        0.0000 
     16 CA        -13.9380    9.2350    1.6015 C.3       3 GLC5        0.0000 
     17 CA        -13.4870   10.6420    2.8580 C.3       9 GLL5        0.0000 
     18 CA        -14.3890    7.8280    0.3450 C.3       6 GLP5        0.0000 
     19 CA        -14.5820   15.3240    0.5860 C.3       3 GLC5        0.0000 
     20 CA        -12.6950   14.2280    0.6130 C.3       9 GLL5        0.0000 
     21 CA        -16.4690   16.4200    0.5590 C.3       6 GLP5        0.0000 
     22 CA        -13.1315   14.1195   -1.2840 C.3       3 GLC5        0.0000 
     23 CA        -13.5680   14.0110   -3.1810 C.3       6 GLP5        0.0000 
     24 CA        -12.7155   17.6835    0.8715 C.3       3 GLC5        0.0000 
     25 CA        -11.3160   16.1540    0.0660 C.3       9 GLL5        0.0000 
     26 CA        -14.1150   19.2130    1.6770 C.3       6 GLP5        0.0000 
     27 CA        -12.4420   15.0825   -1.5575 C.3       3 GLC5        0.0000 
     28 CA         -9.5355   13.5850   -3.7335 C.3       3 GLC5        0.0000 
     29 CA         -8.4930   15.2230   -3.4750 C.3       9 GLL5        0.0000 
     30 CA        -10.5780   11.9470   -3.9920 C.3       6 GLP5        0.0000 
     31 N         -11.5330   19.2685   -0.5455 N.am      2 SEC2        0.0000 
     32 N         -10.4980   18.3790   -0.1920 N.am      8 SEL2        0.0000 
     33 N         -12.5680   20.1580   -0.8990 N.am      5 SEP2        0.0000 
     34 O          -9.9510   19.1790    0.8175 O.2       1 ALC1        0.0000 
     35 O         -10.4980   18.3790   -0.1920 O.2       7 ALL1        0.0000 
     36 O          -9.4040   19.9790    1.8270 O.2       4 ALP1        0.0000 
     37 CA         -6.6330   18.2545    1.7900 C.3       3 GLC5        0.0000 
     38 CA         -7.8040   17.8190    0.3280 C.3       9 GLL5        0.0000 
     39 CA        -10.2655   13.5645   -5.1965 C.3       3 GLC5        0.0000 
     40 CA         -9.9530   15.1820   -6.4010 C.3       9 GLL5        0.0000 
     41 CA        -11.4990   14.0675   -6.6770 C.3       3 GLC5        0.0000 
     42 CA        -13.0450   12.9530   -6.9530 C.3       6 GLP5        0.0000 
     43 CA         -8.4135   13.9145   -6.8345 C.3       3 GLC5        0.0000 
     44 CA         -6.8740   12.6470   -7.2680 C.3       6 GLP5        0.0000 
     45 CA        -10.0690   10.3285    5.6845 C.3       3 GLC5        0.0000 
     46 CA        -11.4580   11.9060    6.0230 C.3       9 GLL5        0.0000 
     47 CA         -8.6800    8.7510    5.3460 C.3       6 GLP5        0.0000 
     48 CA         -9.2595   12.3990    6.6677 C.3       3 GLC5        0.0000 
     49 CA         -7.5530   12.3210    7.4360 C.3       6 GLP5        0.0000 
     50 CA         -5.5393   20.4907   -0.8622 C.3       3 GLC5        0.0000 
     51 CA         -5.7590   18.6000   -0.9040 C.3       9 GLL5        0.0000 
     52 CA         -5.9630   22.4790   -0.5680 C.3       6 GLP5        0.0000 
     53 CA         -2.2190   15.8873   -0.3885 C.3       3 GLC5        0.0000 
     54 CA         -3.8230   17.1840   -1.2160 C.3       9 GLL5        0.0000 
     55 CA         -0.2920   15.1020    0.0880 C.3       6 GLP5        0.0000 
     56 CA         -5.0285   14.5045   -1.1572 C.3       3 GLC5        0.0000 
     57 CA         -4.4690   16.1610   -0.5140 C.3       9 GLL5        0.0000 
     58 CA         -4.9430   12.7520   -2.0490 C.3       6 GLP5        0.0000 
     59 CA         -4.7535   15.2605    1.3952 C.3       3 GLC5        0.0000 
     60 CA         -4.3930   14.2640    3.0560 C.3       6 GLP5        0.0000 
     61 CA         -5.6914   17.9551    1.4823 C.3       3 GLC5        0.0000 
     62 CA         -5.7590   16.3530   -0.0170 C.3       9 GLL5        0.0000 
     63 CA         -8.3953   14.1160    6.6543 C.3       3 GLC5        0.0000 
     64 CA         -9.1480   15.5640    5.1980 C.3       9 GLL5        0.0000 
     65 CA         -6.8222   15.4985    4.5145 C.3       3 GLC5        0.0000 
     66 CA         -4.9180   14.9800    4.2750 C.3       6 GLP5        0.0000 
     67 CA         -9.8734   17.7108    5.3347 C.3       3 GLC5        0.0000 
     68 CA        -10.7200   19.2840    5.0190 C.3       6 GLP5        0.0000 
     69 CA        -10.4455   10.9510    1.8220 C.3       3 GLC5        0.0000 
     70 CA        -12.1910   11.8140    1.1890 C.3       9 GLL5        0.0000 
     71 CA         -8.5680   10.6660    2.0890 C.3       6 GLP5        0.0000 
     72 CA        -12.6375    9.5265    0.7695 C.3       3 GLC5        0.0000 
     73 CA        -12.4550   10.6580    1.9210 C.3       9 GLL5        0.0000 
     74 CA        -12.9520    7.8170   -0.0160 C.3       6 GLP5        0.0000 
     75 CA        -10.3080   17.2398   -5.7010 C.3       3 GLC5        0.0000 
     76 CA         -8.7070   16.0230   -6.5230 C.3       9 GLL5        0.0000 
     77 CA        -11.2860   18.8770   -4.9400 C.3       6 GLP5        0.0000 
     78 CA         -6.9872   18.9477   -8.0903 C.3       3 GLC5        0.0000 
     79 CA         -7.0230   16.9640   -7.9790 C.3       9 GLL5        0.0000 
     80 CA         -7.2570   20.6300   -8.7490 C.3       6 GLP5        0.0000 
     81 CA         -8.8164   16.9254   -9.1099 C.3       3 GLC5        0.0000 
     82 CA         -9.9030   17.3150  -10.6510 C.3       6 GLP5        0.0000 
     83 CA         -7.3019   14.5914   -7.4184 C.3       3 GLC5        0.0000 
     84 CA         -8.1660   16.1920   -7.7940 C.3       9 GLL5        0.0000 
     85 CA         -8.4740   18.6926   -4.9201 C.3       3 GLC5        0.0000 
     86 CA         -8.0950   16.6300   -5.4150 C.3       9 GLL5        0.0000 
     87 CA        -10.0690   19.8360   -4.8560 C.3       6 GLP5        0.0000 
@<TRIPOS>BOND
@<TRIPOS>SUBSTRUCTURE
     1 ALC1        7 GROUP        1 X    ALC  0     ROOT ALC X 1
     2 SEC2        1 GROUP        1 X    SEC  0     **** SEC X 2
     3 GLC5        4 GROUP        1 X    GLC  0     **** GLC X 6
     4 ALP1        9 GROUP        1 Y    ALP  0     ROOT ALP Y 8
     5 SEP2        3 GROUP        1 Y    SEP  0     **** SEP Y 9
     6 GLP5        6 GROUP        1 Y    GLP  0     **** GLP Y 13
     7 ALL1        8 GROUP        1 Z    ALL  0     ROOT ALL Z 15
     8 SEL2        2 GROUP        1 Z    SEL  0     **** SEL Z 16
     9 GLL5        5 GROUP        1 Z    GLL  0     **** GLL Z 20
@<TRIPOS>SET

