#    Name: 2rkg_AB1_1_ligand
#    Modification time : Tue Mar 25 00:02:23 2014

@<TRIPOS>MOLECULE
2rkg_AB1_1_ligand
   94    97     1     0     0
SMALL
NO_CHARGES


@<TRIPOS>ATOM
      1 C1        -12.5830   12.3050    6.9680 C.3       1 AB1501      0.0000 
      2 C2        -10.4740   13.0480    5.7760 C.3       1 AB1501      0.0000 
      3 N1        -11.2370   14.2330    5.3870 N.am      1 AB1501      0.0000 
      4 C3        -12.5030   14.4660    5.7490 C.2       1 AB1501      0.0000 
      5 N2        -13.1700   13.4740    6.3330 N.am      1 AB1501      0.0000 
      6 C4         -6.4060   17.5750   -0.2120 C.ar      1 AB1501      0.0000 
      7 C5         -5.7590   18.6000   -0.9040 C.ar      1 AB1501      0.0000 
      8 C6         -4.4720   18.4050   -1.4090 C.ar      1 AB1501      0.0000 
      9 C7         -3.8230   17.1840   -1.2160 C.ar      1 AB1501      0.0000 
     10 C8         -4.4690   16.1610   -0.5140 C.ar      1 AB1501      0.0000 
     11 C9         -5.7590   16.3530   -0.0170 C.ar      1 AB1501      0.0000 
     12 O1        -13.0410   15.5350    5.5690 O.2       1 AB1501      0.0000 
     13 C10       -10.4930   15.1880    4.5370 C.3       1 AB1501      0.0000 
     14 C11       -10.3650   14.6780    3.1150 C.2       1 AB1501      0.0000 
     15 N3        -11.2610   15.2040    2.2700 N.am      1 AB1501      0.0000 
     16 C12       -11.3180   14.8460    0.8530 C.3       1 AB1501      0.0000 
     17 C13        -9.1480   15.5640    5.1980 C.3       1 AB1501      0.0000 
     18 C14        -8.3050   16.4700    4.3100 C.3       1 AB1501      0.0000 
     19 C15        -9.3270   16.2580    6.5470 C.3       1 AB1501      0.0000 
     20 O2         -9.5120   13.8520    2.7810 O.2       1 AB1501      0.0000 
     21 C16       -12.4550   10.6580    1.9210 C.ar      1 AB1501      0.0000 
     22 C17       -13.4870   10.6420    2.8580 C.ar      1 AB1501      0.0000 
     23 C18       -14.2560   11.7860    3.0630 C.ar      1 AB1501      0.0000 
     24 C19       -13.9910   12.9400    2.3270 C.ar      1 AB1501      0.0000 
     25 C20       -12.9520   12.9620    1.3980 C.ar      1 AB1501      0.0000 
     26 C21       -12.1910   11.8140    1.1890 C.ar      1 AB1501      0.0000 
     27 C22       -12.6950   14.2280    0.6130 C.3       1 AB1501      0.0000 
     28 C23       -11.3160   16.1540    0.0660 C.3       1 AB1501      0.0000 
     29 C24       -10.2000   17.1290    0.4250 C.3       1 AB1501      0.0000 
     30 C25        -8.7910   16.6940    0.0160 C.3       1 AB1501      0.0000 
     31 N4         -8.7390   16.5540   -1.4340 N.am      1 AB1501      0.0000 
     32 C26        -8.5640   15.3460   -1.9710 C.2       1 AB1501      0.0000 
     33 C27        -8.4930   15.2230   -3.4750 C.3       1 AB1501      0.0000 
     34 O3         -8.6070   16.4800   -4.1480 O.3       1 AB1501      0.0000 
     35 C28        -8.0950   16.6300   -5.4150 C.ar      1 AB1501      0.0000 
     36 O4        -10.4980   18.3790   -0.1920 O.3       1 AB1501      0.0000 
     37 C29        -7.8040   17.8190    0.3280 C.3       1 AB1501      0.0000 
     38 O5         -8.4640   14.3320   -1.2980 O.2       1 AB1501      0.0000 
     39 C30        -8.7070   16.0230   -6.5230 C.ar      1 AB1501      0.0000 
     40 C31        -8.1660   16.1920   -7.7940 C.ar      1 AB1501      0.0000 
     41 C32        -7.0230   16.9640   -7.9790 C.ar      1 AB1501      0.0000 
     42 C33        -6.4120   17.5670   -6.8840 C.ar      1 AB1501      0.0000 
     43 C34        -6.9410   17.4030   -5.6060 C.ar      1 AB1501      0.0000 
     44 C35        -6.2400   18.0820   -4.4580 C.3       1 AB1501      0.0000 
     45 C36        -9.9530   15.1820   -6.4010 C.3       1 AB1501      0.0000 
     46 C37       -11.4580   11.9060    6.0230 C.3       1 AB1501      0.0000 
     47 H         -13.2824   11.4982    7.0315 H         1 AB1501      0.0000 
     48 H         -12.1632   12.5441    7.9223 H         1 AB1501      0.0000 
     49 H          -9.9162   13.2249    6.6904 H         1 AB1501      0.0000 
     50 H          -9.7896   12.7477    4.9886 H         1 AB1501      0.0000 
     51 H         -14.2416   13.4943    6.3631 H         1 AB1501      0.0000 
     52 H          -6.2319   19.5026   -1.0426 H         1 AB1501      0.0000 
     53 H          -4.0026   19.1600   -1.9226 H         1 AB1501      0.0000 
     54 H          -2.8801   17.0371   -1.5855 H         1 AB1501      0.0000 
     55 H          -3.9899   15.2635   -0.3641 H         1 AB1501      0.0000 
     56 H          -6.2316   15.5973    0.4911 H         1 AB1501      0.0000 
     57 H         -11.0922   16.1312    4.4963 H         1 AB1501      0.0000 
     58 H         -11.9710   15.9039    2.5863 H         1 AB1501      0.0000 
     59 H         -10.5743   14.2257    0.5483 H         1 AB1501      0.0000 
     60 H          -8.5807   14.6456    5.3692 H         1 AB1501      0.0000 
     61 H         -11.8869    9.8140    1.7697 H         1 AB1501      0.0000 
     62 H         -13.6799    9.7894    3.3957 H         1 AB1501      0.0000 
     63 H         -15.0147   11.7793    3.7532 H         1 AB1501      0.0000 
     64 H         -14.5669   13.7820    2.4707 H         1 AB1501      0.0000 
     65 H         -11.4337   11.8195    0.4939 H         1 AB1501      0.0000 
     66 H         -12.8034   14.0162   -0.4663 H         1 AB1501      0.0000 
     67 H         -13.4670   14.9773    0.8663 H         1 AB1501      0.0000 
     68 H         -12.2923   16.6590    0.2120 H         1 AB1501      0.0000 
     69 H         -11.2507   15.9187   -1.0156 H         1 AB1501      0.0000 
     70 H         -10.2084   17.2582    1.5152 H         1 AB1501      0.0000 
     71 H          -8.5074   15.8256    0.5075 H         1 AB1501      0.0000 
     72 H          -8.8417   17.4102   -1.9872 H         1 AB1501      0.0000 
     73 H          -9.2951   14.5239   -3.7975 H         1 AB1501      0.0000 
     74 H          -7.5352   14.7194   -3.7304 H         1 AB1501      0.0000 
     75 H          -8.1951   18.7605   -0.0918 H         1 AB1501      0.0000 
     76 H          -7.7518   17.9519    1.4213 H         1 AB1501      0.0000 
     77 H          -8.6159   15.7413   -8.6057 H         1 AB1501      0.0000 
     78 H          -6.6322   17.0881   -8.9199 H         1 AB1501      0.0000 
     79 H          -5.5650   18.1371   -7.0183 H         1 AB1501      0.0000 
     80 H         -11.8864   11.5902    5.0650 H         1 AB1501      0.0000 
     81 H         -10.9161   11.0530    6.4469 H         1 AB1501      0.0000 
     82 H          -7.4365   16.7109    4.7432 H         1 AB1501      0.0000 
     83 H          -8.0862   16.0348    3.4367 H         1 AB1501      0.0000 
     84 H          -8.7757   17.3271    4.1005 H         1 AB1501      0.0000 
     85 H          -8.4486   16.4923    6.9635 H         1 AB1501      0.0000 
     86 H          -9.8468   17.1080    6.4613 H         1 AB1501      0.0000 
     87 H          -9.8161   15.6799    7.2001 H         1 AB1501      0.0000 
     88 H          -5.9282   17.4245   -3.7721 H         1 AB1501      0.0000 
     89 H          -5.4352   18.5912   -4.7631 H         1 AB1501      0.0000 
     90 H          -6.8382   18.7324   -3.9899 H         1 AB1501      0.0000 
     91 H         -10.2494   14.8265   -7.2874 H         1 AB1501      0.0000 
     92 H          -9.8121   14.3942   -5.8015 H         1 AB1501      0.0000 
     93 H         -10.7180   15.7041   -6.0240 H         1 AB1501      0.0000 
     94 H          -9.8371   19.0223    0.1946 H         1 AB1501      0.0000 
@<TRIPOS>BOND
     1    5    1 1    
     2   46    1 1    
     3   47    1 1    
     4   48    1 1    
     5    3    2 1    
     6   46    2 1    
     7   49    2 1    
     8   50    2 1    
     9    4    3 am   
    10   13    3 1    
    11    5    4 am   
    12   12    4 2    
    13   51    5 1    
    14    7    6 ar   
    15   11    6 ar   
    16   37    6 1    
    17    8    7 ar   
    18   52    7 1    
    19    9    8 ar   
    20   53    8 1    
    21   10    9 ar   
    22   54    9 1    
    23   11   10 ar   
    24   55   10 1    
    25   56   11 1    
    26   14   13 1    
    27   17   13 1    
    28   57   13 1    
    29   15   14 am   
    30   20   14 2    
    31   16   15 1    
    32   58   15 1    
    33   27   16 1    
    34   28   16 1    
    35   59   16 1    
    36   18   17 1    
    37   19   17 1    
    38   60   17 1    
    39   82   18 1    
    40   83   18 1    
    41   84   18 1    
    42   85   19 1    
    43   86   19 1    
    44   87   19 1    
    45   22   21 ar   
    46   26   21 ar   
    47   61   21 1    
    48   23   22 ar   
    49   62   22 1    
    50   24   23 ar   
    51   63   23 1    
    52   25   24 ar   
    53   64   24 1    
    54   26   25 ar   
    55   27   25 1    
    56   65   26 1    
    57   66   27 1    
    58   67   27 1    
    59   29   28 1    
    60   68   28 1    
    61   69   28 1    
    62   30   29 1    
    63   36   29 1    
    64   70   29 1    
    65   31   30 1    
    66   37   30 1    
    67   71   30 1    
    68   32   31 am   
    69   72   31 1    
    70   33   32 1    
    71   38   32 2    
    72   34   33 1    
    73   73   33 1    
    74   74   33 1    
    75   35   34 1    
    76   39   35 ar   
    77   43   35 ar   
    78   94   36 1    
    79   75   37 1    
    80   76   37 1    
    81   40   39 ar   
    82   45   39 1    
    83   41   40 ar   
    84   77   40 1    
    85   42   41 ar   
    86   78   41 1    
    87   43   42 ar   
    88   79   42 1    
    89   44   43 1    
    90   88   44 1    
    91   89   44 1    
    92   90   44 1    
    93   91   45 1    
    94   92   45 1    
    95   93   45 1    
    96   80   46 1    
    97   81   46 1    
@<TRIPOS>SUBSTRUCTURE
     1 AB1501      1 GROUP   
@<TRIPOS>SET

