#    Name: 2qgt_EED_1_INTS_M
#    Modification time : Mon Mar 24 22:08:22 2014

@<TRIPOS>MOLECULE
2qgt_EED_1_INTS_M
   80     0     9     0     0
SMALL
NO_CHARGES


@<TRIPOS>ATOM
      1 CA         22.1755    6.4930    2.5935 C.3       3 GLC5        0.0000 
      2 CA         21.5010    4.8810    1.5050 C.3       9 GLL5        0.0000 
      3 CA         22.8500    8.1050    3.6820 C.3       6 GLP5        0.0000 
      4 CA         24.1385    5.3300    0.8230 C.3       3 GLC5        0.0000 
      5 CA         23.7070    4.2750    2.5810 C.3       9 GLL5        0.0000 
      6 CA         24.5700    6.3850   -0.9350 C.3       6 GLP5        0.0000 
      7 CA         26.3955    4.8095    3.7960 C.3       3 GLC5        0.0000 
      8 CA         24.5160    4.0060    3.7080 C.3       9 GLL5        0.0000 
      9 CA         28.2750    5.6130    3.8840 C.3       6 GLP5        0.0000 
     10 N          25.8280    2.9915    6.9465 N.am      2 SEC2        0.0000 
     11 N          24.6180    3.8240    6.1350 N.am      8 SEL2        0.0000 
     12 N          27.0380    2.1590    7.7580 N.am      5 SEP2        0.0000 
     13 N          25.2075    4.7990    7.1945 N.am      2 SEC2        0.0000 
     14 N          25.7970    5.7740    8.2540 N.am      5 SEP2        0.0000 
     15 O          25.5845    3.1300    5.8695 O.2       1 ALC1        0.0000 
     16 O          24.6180    3.8240    6.1350 O.2       7 ALL1        0.0000 
     17 O          26.5510    2.4360    5.6040 O.2       4 ALP1        0.0000 
     18 CA         19.4920    3.0195    3.8715 C.3       3 GLC5        0.0000 
     19 CA         20.3000    4.9530    4.2970 C.3       9 GLL5        0.0000 
     20 CA         18.6840    1.0860    3.4460 C.3       6 GLP5        0.0000 
     21 CA         18.9380    4.3875    5.4335 C.3       3 GLC5        0.0000 
     22 CA         17.5760    3.8220    6.5700 C.3       6 GLP5        0.0000 
     23 CA         17.9485    4.9850    3.6845 C.3       3 GLC5        0.0000 
     24 CA         19.7280    5.7060    3.0940 C.3       9 GLL5        0.0000 
     25 CA         16.1690    4.2640    4.2750 C.3       6 GLP5        0.0000 
     26 CA         18.6835    7.1710    4.1745 C.3       3 GLC5        0.0000 
     27 CA         17.6390    8.6360    5.2550 C.3       6 GLP5        0.0000 
     28 CA         19.3460    2.9975    2.6335 C.3       3 GLC5        0.0000 
     29 CA         20.0080    4.9090    1.8210 C.3       9 GLL5        0.0000 
     30 CA         16.9980    5.0085    2.4485 C.3       3 GLC5        0.0000 
     31 CA         17.8270    5.7530    0.6220 C.3       9 GLL5        0.0000 
     32 CA         16.3830    6.8465    1.5735 C.3       3 GLC5        0.0000 
     33 CA         14.9390    7.9400    2.5250 C.3       6 GLP5        0.0000 
     34 CA         17.6835    7.9410   -1.2595 C.3       3 GLC5        0.0000 
     35 CA         17.4150    5.7430   -0.8720 C.3       9 GLL5        0.0000 
     36 CA         17.9520   10.1390   -1.6470 C.3       6 GLP5        0.0000 
     37 CA         19.7580    5.0990   -3.3870 C.3       3 GLC5        0.0000 
     38 CA         18.6550    5.2450   -1.6500 C.3       9 GLL5        0.0000 
     39 CA         20.8610    4.9530   -5.1240 C.3       6 GLP5        0.0000 
     40 CA         19.1010    7.3755   -1.8915 C.3       3 GLC5        0.0000 
     41 CA         19.5470    9.5060   -2.1330 C.3       6 GLP5        0.0000 
     42 O          17.3740    5.3145   -3.4715 O.2       1 ALC1        0.0000 
     43 O          18.2540    4.4490   -2.7770 O.2       7 ALL1        0.0000 
     44 O          16.4940    6.1800   -4.1660 O.2       4 ALP1        0.0000 
     45 CA         17.6235    1.8655    0.9740 C.3       3 GLC5        0.0000 
     46 CA         18.7490    3.0970   -0.2970 C.3       9 GLL5        0.0000 
     47 CA         16.4980    0.6340    2.2450 C.3       6 GLP5        0.0000 
     48 CA         18.1550    2.1395   -1.9245 C.3       3 GLC5        0.0000 
     49 CA         17.5610    1.1820   -3.5520 C.3       6 GLP5        0.0000 
     50 CA         20.8935    4.6270   -3.0220 C.3       3 GLC5        0.0000 
     51 CA         20.9260    4.3010   -0.9200 C.3       9 GLL5        0.0000 
     52 CA         22.2560    3.3680   -2.2775 C.3       3 GLC5        0.0000 
     53 CA         23.5860    2.4350   -3.6350 C.3       6 GLP5        0.0000 
     54 CA         23.3805    1.5615    1.1590 C.3       3 GLC5        0.0000 
     55 CA         21.7890    2.4800    0.6630 C.3       9 GLL5        0.0000 
     56 CA         24.9720    0.6430    1.6550 C.3       6 GLP5        0.0000 
     57 CA         20.2365    1.7830    2.0545 C.3       3 GLC5        0.0000 
     58 CA         22.7635    1.4325   -2.0140 C.3       3 GLC5        0.0000 
     59 CA         21.9410    0.4300   -0.3930 C.3       9 GLL5        0.0000 
     60 CA         23.4565    0.5365    0.6310 C.3       3 GLC5        0.0000 
     61 CA         21.2690   -0.8675    0.7795 C.3       3 GLC5        0.0000 
     62 CA         20.5970   -2.1650    1.9520 C.3       6 GLP5        0.0000 
     63 CA         20.6450    0.0320   -1.5415 C.3       3 GLC5        0.0000 
     64 CA         19.3490   -0.3660   -2.6900 C.3       6 GLP5        0.0000 
     65 CA         23.3635   -0.7910   -1.3175 C.3       3 GLC5        0.0000 
     66 CA         24.7860   -2.0120   -2.2420 C.3       6 GLP5        0.0000 
     67 CA         24.5418    2.3918    2.3998 C.3       3 GLC5        0.0000 
     68 CA         22.5487    2.5003    5.7412 C.3       3 GLC5        0.0000 
     69 CA         23.9390    4.0840    4.9670 C.3       9 GLL5        0.0000 
     70 CA         21.8310    0.7670    6.4670 C.3       6 GLP5        0.0000 
     71 CA         21.6457    6.1963    5.5750 C.3       3 GLC5        0.0000 
     72 CA         22.5940    4.3830    5.0640 C.3       9 GLL5        0.0000 
     73 CA         21.1050    7.8890    6.6240 C.3       6 GLP5        0.0000 
     74 CA         20.5595    6.6093    5.1597 C.3       3 GLC5        0.0000 
     75 CA         21.4320    6.7172    3.6887 C.3       3 GLC5        0.0000 
     76 CA         15.9380    4.6240    0.2160 C.3       3 GLC5        0.0000 
     77 CA         14.2550    3.5000    0.5570 C.3       6 GLP5        0.0000 
     78 CA         16.5795    5.8965   -2.6580 C.3       3 GLC5        0.0000 
     79 CA         15.1240    6.2990   -4.0550 C.3       6 GLP5        0.0000 
     80 CA         22.9291    5.3746   -0.4710 C.3       3 GLC5        0.0000 
@<TRIPOS>BOND
@<TRIPOS>SUBSTRUCTURE
     1 ALC1       15 GROUP        1 X    ALC  0     ROOT ALC X 1
     2 SEC2       10 GROUP        1 X    SEC  0     **** SEC X 2
     3 GLC5        1 GROUP        1 X    GLC  0     **** GLC X 6
     4 ALP1       17 GROUP        1 Y    ALP  0     ROOT ALP Y 8
     5 SEP2       12 GROUP        1 Y    SEP  0     **** SEP Y 9
     6 GLP5        3 GROUP        1 Y    GLP  0     **** GLP Y 13
     7 ALL1       16 GROUP        1 Z    ALL  0     ROOT ALL Z 15
     8 SEL2       11 GROUP        1 Z    SEL  0     **** SEL Z 16
     9 GLL5        2 GROUP        1 Z    GLL  0     **** GLL Z 20
@<TRIPOS>SET

