#    Name: 2qgt_EED_1_ligand
#    Modification time : Mon Mar 24 22:08:22 2014

@<TRIPOS>MOLECULE
2qgt_EED_1_ligand
   51    54     1     0     0
SMALL
NO_CHARGES


@<TRIPOS>ATOM
      1 C9         21.5010    4.8810    1.5050 C.3       1 EED701      0.0000 
      2 C10        22.3520    4.5680    2.7300 C.ar      1 EED701      0.0000 
      3 C1         23.7070    4.2750    2.5810 C.ar      1 EED701      0.0000 
      4 C2         24.5160    4.0060    3.7080 C.ar      1 EED701      0.0000 
      5 C3         23.9390    4.0840    4.9670 C.ar      1 EED701      0.0000 
      6 O3         24.6180    3.8240    6.1350 O.3       1 EED701      0.0000 
      7 C4         22.5940    4.3830    5.0640 C.ar      1 EED701      0.0000 
      8 C5         21.7790    4.6240    3.9880 C.ar      1 EED701      0.0000 
      9 C6         20.3000    4.9530    4.2970 C.3       1 EED701      0.0000 
     10 C7         19.7280    5.7060    3.0940 C.3       1 EED701      0.0000 
     11 C8         20.0080    4.9090    1.8210 C.3       1 EED701      0.0000 
     12 C14        19.3220    5.4740    0.5670 C.3       1 EED701      0.0000 
     13 C15        17.8270    5.7530    0.6220 C.3       1 EED701      0.0000 
     14 C16        17.4150    5.7430   -0.8720 C.3       1 EED701      0.0000 
     15 C17        18.6550    5.2450   -1.6500 C.3       1 EED701      0.0000 
     16 O17        18.2540    4.4490   -2.7770 O.3       1 EED701      0.0000 
     17 C13        19.4260    4.4590   -0.5840 C.3       1 EED701      0.0000 
     18 C18        18.7490    3.0970   -0.2970 C.3       1 EED701      0.0000 
     19 C12        20.9260    4.3010   -0.9200 C.3       1 EED701      0.0000 
     20 C11        21.8000    3.9740    0.3070 C.3       1 EED701      0.0000 
     21 C19        21.7890    2.4800    0.6630 C.3       1 EED701      0.0000 
     22 O20        22.1590    1.8380   -0.5450 O.3       1 EED701      0.0000 
     23 C21        21.9410    0.4300   -0.3930 C.3       1 EED701      0.0000 
     24 H          21.7706    5.9243    1.1824 H         1 EED701      0.0000 
     25 H          24.1305    4.2524    1.6433 H         1 EED701      0.0000 
     26 H          25.4926    3.7631    3.5867 H         1 EED701      0.0000 
     27 H          22.1676    4.4282    6.0360 H         1 EED701      0.0000 
     28 H          20.2533    5.5753    5.1707 H         1 EED701      0.0000 
     29 H          19.7590    4.0371    4.4429 H         1 EED701      0.0000 
     30 H          20.1991    6.6773    3.0219 H         1 EED701      0.0000 
     31 H          18.6596    5.8221    3.2186 H         1 EED701      0.0000 
     32 H          19.6814    3.8857    1.9493 H         1 EED701      0.0000 
     33 H          19.8305    6.3647    0.2262 H         1 EED701      0.0000 
     34 H          17.6472    6.7118    1.0252 H         1 EED701      0.0000 
     35 H          17.3262    4.9720    1.1254 H         1 EED701      0.0000 
     36 H          17.1755    6.7330   -1.1795 H         1 EED701      0.0000 
     37 H          16.6095    5.0622   -1.0122 H         1 EED701      0.0000 
     38 H          19.2261    6.1043   -1.9097 H         1 EED701      0.0000 
     39 H          21.2860    5.2318   -1.3755 H         1 EED701      0.0000 
     40 H          21.0396    3.5005   -1.6614 H         1 EED701      0.0000 
     41 H          22.8629    4.2102   -0.0047 H         1 EED701      0.0000 
     42 H          20.7958    2.2246    0.9815 H         1 EED701      0.0000 
     43 H          22.5015    2.3239    1.4512 H         1 EED701      0.0000 
     44 H          18.8413    2.4667   -1.0678 H         1 EED701      0.0000 
     45 H          19.1478    2.6448    0.5008 H         1 EED701      0.0000 
     46 H          17.7706    3.1991   -0.1174 H         1 EED701      0.0000 
     47 H          22.1905   -0.0757   -1.2188 H         1 EED701      0.0000 
     48 H          22.4807    0.0496    0.3580 H         1 EED701      0.0000 
     49 H          20.9823    0.2213   -0.2000 H         1 EED701      0.0000 
     50 H          25.0545    2.9362    5.9884 H         1 EED701      0.0000 
     51 H          17.5755    5.0045   -3.2577 H         1 EED701      0.0000 
@<TRIPOS>BOND
     1    2    1 1    
     2   11    1 1    
     3   20    1 1    
     4   24    1 1    
     5    3    2 ar   
     6    8    2 ar   
     7    4    3 ar   
     8   25    3 1    
     9    5    4 ar   
    10   26    4 1    
    11    6    5 1    
    12    7    5 ar   
    13   50    6 1    
    14    8    7 ar   
    15   27    7 1    
    16    9    8 1    
    17   10    9 1    
    18   28    9 1    
    19   29    9 1    
    20   11   10 1    
    21   30   10 1    
    22   31   10 1    
    23   12   11 1    
    24   32   11 1    
    25   13   12 1    
    26   17   12 1    
    27   33   12 1    
    28   14   13 1    
    29   34   13 1    
    30   35   13 1    
    31   15   14 1    
    32   36   14 1    
    33   37   14 1    
    34   16   15 1    
    35   17   15 1    
    36   38   15 1    
    37   51   16 1    
    38   18   17 1    
    39   19   17 1    
    40   44   18 1    
    41   45   18 1    
    42   46   18 1    
    43   20   19 1    
    44   39   19 1    
    45   40   19 1    
    46   21   20 1    
    47   41   20 1    
    48   22   21 1    
    49   42   21 1    
    50   43   21 1    
    51   23   22 1    
    52   47   23 1    
    53   48   23 1    
    54   49   23 1    
@<TRIPOS>SUBSTRUCTURE
     1 EED701      1 GROUP   
@<TRIPOS>SET

