#    Name: 1hvk_A79_1_INTS_M
#    Modification time : Tue Mar 25 06:17:18 2014

@<TRIPOS>MOLECULE
1hvk_A79_1_INTS_M
  126     0     9     0     0
SMALL
NO_CHARGES


@<TRIPOS>ATOM
      1 N           2.3680    4.9410   12.5345 N.am      2 SEC2        0.0000 
      2 N           3.1030    4.0650   11.6060 N.am      8 SEL2        0.0000 
      3 N           1.6330    5.8170   13.4630 N.am      5 SEP2        0.0000 
      4 CA          2.6800    6.3705   10.6425 C.3       3 GLC5        0.0000 
      5 CA          4.3760    5.3220    9.6130 C.3       9 GLL5        0.0000 
      6 CA          0.9840    7.4190   11.6720 C.3       6 GLP5        0.0000 
      7 CA          8.0505    5.3080   13.5170 C.3       3 GLC5        0.0000 
      8 CA          7.3140    6.0700   11.6630 C.3       9 GLL5        0.0000 
      9 CA          8.7870    4.5460   15.3710 C.3       6 GLP5        0.0000 
     10 CA         10.1380    5.6930   11.4195 C.3       3 GLC5        0.0000 
     11 CA          8.2870    6.4200   10.7470 C.3       9 GLL5        0.0000 
     12 CA         11.9890    4.9660   12.0920 C.3       6 GLP5        0.0000 
     13 O           3.1095    1.1865    9.4695 O.2       1 ALC1        0.0000 
     14 O           3.1570    2.0630   10.6230 O.2       7 ALL1        0.0000 
     15 O           3.0620    0.3100    8.3160 O.2       4 ALP1        0.0000 
     16 CA          1.8945    2.2215   13.5860 C.3       3 GLC5        0.0000 
     17 CA          2.5380    1.3810   11.7760 C.3       9 GLL5        0.0000 
     18 CA          1.2510    3.0620   15.3960 C.3       6 GLP5        0.0000 
     19 CA         -1.2775    3.1630   11.0855 C.3       3 GLC5        0.0000 
     20 CA          0.1900    1.6100   10.7090 C.3       9 GLL5        0.0000 
     21 CA         -2.7450    4.7160   11.4620 C.3       6 GLP5        0.0000 
     22 CA         -1.5830    0.8280   11.3920 C.3       3 GLC5        0.0000 
     23 CA         -3.3560    0.0460   12.0750 C.3       6 GLP5        0.0000 
     24 CA          0.8900    1.5695   14.0355 C.3       3 GLC5        0.0000 
     25 CA          0.5290    0.0770   12.6750 C.3       9 GLL5        0.0000 
     26 CA         -1.4135    0.0615   12.3750 C.3       3 GLC5        0.0000 
     27 CA         -0.3065    0.2330   14.6740 C.3       3 GLC5        0.0000 
     28 CA         -1.1420    0.3890   16.6730 C.3       6 GLP5        0.0000 
     29 CA          7.7230    2.6800   14.7405 C.3       3 GLC5        0.0000 
     30 CA          6.6590    0.8140   14.1100 C.3       9 GLL5        0.0000 
     31 CA          7.9570    3.3720   13.7175 C.3       3 GLC5        0.0000 
     32 CA          7.1270    2.1980   12.0640 C.3       9 GLL5        0.0000 
     33 N           5.5905    1.3570   17.6015 N.am      2 SEC2        0.0000 
     34 N           4.7720    1.3930   16.2230 N.am      8 SEL2        0.0000 
     35 N           6.4090    1.3210   18.9800 N.am      5 SEP2        0.0000 
     36 O           4.1455    1.5800   17.3980 O.2       1 ALC1        0.0000 
     37 O           4.7720    1.3930   16.2230 O.2       7 ALL1        0.0000 
     38 O           3.5190    1.7670   18.5730 O.2       4 ALP1        0.0000 
     39 O           3.5325    0.7715   17.0445 O.2       1 ALC1        0.0000 
     40 O           2.2930    0.1500   17.8660 O.2       4 ALP1        0.0000 
     41 N           5.8270    0.2605   18.4200 N.am      2 SEC2        0.0000 
     42 N           5.2450   -0.8000   17.8600 N.am      8 SEL2        0.0000 
     43 O           3.7690   -0.3250   17.8630 O.2       1 ALC1        0.0000 
     44 O           5.2450   -0.8000   17.8600 O.2       7 ALL1        0.0000 
     45 CA          2.4580   -2.8840   18.6105 C.3       3 GLC5        0.0000 
     46 CA          3.4900   -2.7020   16.6590 C.3       9 GLL5        0.0000 
     47 CA          1.4260   -3.0660   20.5620 C.3       6 GLP5        0.0000 
     48 CA          1.9780   -3.8625   13.2045 C.3       3 GLC5        0.0000 
     49 CA          2.5550   -4.4390   15.0980 C.3       9 GLL5        0.0000 
     50 CA          1.4010   -3.2860   11.3110 C.3       6 GLP5        0.0000 
     51 CA          1.3215   -7.3760   14.0390 C.3       3 GLC5        0.0000 
     52 CA          2.2680   -5.7770   14.7770 C.3       9 GLL5        0.0000 
     53 CA          0.3750   -8.9750   13.3010 C.3       6 GLP5        0.0000 
     54 CA          2.3120   -5.6375   12.6670 C.3       3 GLC5        0.0000 
     55 CA          2.3560   -5.4980   10.5570 C.3       6 GLP5        0.0000 
     56 CA          1.1915   -8.0860   15.1865 C.3       3 GLC5        0.0000 
     57 CA          2.5240   -6.7940   15.7040 C.3       9 GLL5        0.0000 
     58 CA         -0.1410   -9.3780   14.6690 C.3       6 GLP5        0.0000 
     59 CA          2.3790   -4.1095   18.9275 C.3       3 GLC5        0.0000 
     60 CA          3.3320   -5.1530   17.2930 C.3       9 GLL5        0.0000 
     61 O           7.1125   -7.0345   15.5165 O.2       1 ALC1        0.0000 
     62 O           7.0960   -6.2180   16.8450 O.2       7 ALL1        0.0000 
     63 O           7.1290   -7.8510   14.1880 O.2       4 ALP1        0.0000 
     64 CA          8.2700   -3.4855   17.9325 C.3       3 GLC5        0.0000 
     65 CA          7.6370   -4.9150   16.4650 C.3       9 GLL5        0.0000 
     66 CA          8.9030   -2.0560   19.4000 C.3       6 GLP5        0.0000 
     67 CA         11.3565   -6.0345   18.1560 C.3       3 GLC5        0.0000 
     68 CA          9.9270   -5.8680   16.5510 C.3       9 GLL5        0.0000 
     69 CA         12.7860   -6.2010   19.7610 C.3       6 GLP5        0.0000 
     70 CA         11.8380   -5.0670   16.1325 C.3       3 GLC5        0.0000 
     71 CA         13.7490   -4.2660   15.7140 C.3       6 GLP5        0.0000 
     72 CA          9.2295   -2.8420   17.4235 C.3       3 GLC5        0.0000 
     73 CA          9.5560   -3.6280   15.4470 C.3       9 GLL5        0.0000 
     74 CA         11.6525   -3.9470   15.5805 C.3       3 GLC5        0.0000 
     75 CA         10.1945   -1.9210   14.8485 C.3       3 GLC5        0.0000 
     76 CA         10.8330   -0.2140   14.2500 C.3       6 GLP5        0.0000 
     77 N           7.8060   -5.3430   20.2205 N.am      2 SEC2        0.0000 
     78 N           7.2170   -5.9320   19.0590 N.am      8 SEL2        0.0000 
     79 N           8.3950   -4.7540   21.3820 N.am      5 SEP2        0.0000 
     80 CA          7.4930   -7.6570   21.0090 C.3       3 GLC5        0.0000 
     81 CA          6.0170   -8.3880   19.5770 C.3       9 GLL5        0.0000 
     82 CA          8.9690   -6.9260   22.4410 C.3       6 GLP5        0.0000 
     83 CA          0.2730   -6.6505   20.3755 C.3       3 GLC5        0.0000 
     84 CA          2.2070   -7.1250   20.9900 C.3       9 GLL5        0.0000 
     85 CA         -1.6610   -6.1760   19.7610 C.3       6 GLP5        0.0000 
     86 CA          7.3135    7.9464   11.3854 C.3       3 GLC5        0.0000 
     87 CA          6.9080    9.6550   11.9040 C.3       6 GLP5        0.0000 
     88 CA         -0.5098    0.0478    9.7928 C.3       3 GLC5        0.0000 
     89 CA          1.1890    0.6750   11.4320 C.3       9 GLL5        0.0000 
     90 CA         -1.7090   -1.0470    8.5150 C.3       6 GLP5        0.0000 
     91 CA          1.1300   -1.4550   11.6822 C.3       3 GLC5        0.0000 
     92 CA          8.8750    0.3342   13.8290 C.3       3 GLC5        0.0000 
     93 CA          9.2025    1.6058   11.9417 C.3       3 GLC5        0.0000 
     94 CA          7.1750    0.9510   12.7060 C.3       9 GLL5        0.0000 
     95 CA         10.9680    2.8210   11.5080 C.3       6 GLP5        0.0000 
     96 CA          8.5555   -1.8615   11.4758 C.3       3 GLC5        0.0000 
     97 CA          8.1810   -0.0360   10.7380 C.3       9 GLL5        0.0000 
     98 CA          9.1710   -3.6200   11.5600 C.3       6 GLP5        0.0000 
     99 CA          9.3865   -0.1585   12.8208 C.3       3 GLC5        0.0000 
    100 CA          7.6990   -0.1700   12.0450 C.3       9 GLL5        0.0000 
    101 CA          9.5040    0.6218    8.9770 C.3       3 GLC5        0.0000 
    102 CA         10.8550    0.6580    7.5380 C.3       6 GLP5        0.0000 
    103 CA          9.5605    1.7033   10.9620 C.3       3 GLC5        0.0000 
    104 CA          8.1250    1.2070   10.0940 C.3       9 GLL5        0.0000 
    105 CA          6.5682   -0.4535    9.7689 C.3       3 GLC5        0.0000 
    106 CA          5.1040   -1.4590    8.7950 C.3       6 GLP5        0.0000 
    107 CA          9.1662    2.5408   11.4582 C.3       3 GLC5        0.0000 
    108 CA          7.6020    2.3230   10.7530 C.3       9 GLL5        0.0000 
    109 CA          1.1985   -5.0252   16.6938 C.3       3 GLC5        0.0000 
    110 CA          3.0970   -4.1240   16.3490 C.3       9 GLL5        0.0000 
    111 CA         -0.4290   -5.7690   17.6640 C.3       6 GLP5        0.0000 
    112 CA          1.3161   -3.1185   16.5820 C.3       3 GLC5        0.0000 
    113 CA         -0.2920   -2.3110   17.3630 C.3       6 GLP5        0.0000 
    114 CA          0.9835   -6.0272   16.4522 C.3       3 GLC5        0.0000 
    115 CA          3.8889   -6.3855   13.9209 C.3       3 GLC5        0.0000 
    116 CA          5.3100   -6.8200   12.5210 C.3       6 GLP5        0.0000 
    117 CA          1.3805   -5.7935   17.3955 C.3       3 GLC5        0.0000 
    118 CA          3.0480   -6.4830   16.9610 C.3       9 GLL5        0.0000 
    119 CA          9.2145   -3.9718   13.5693 C.3       3 GLC5        0.0000 
    120 CA          8.9600   -5.0190   15.7100 C.3       9 GLL5        0.0000 
    121 CA         10.7474   -5.7519   14.7939 C.3       3 GLC5        0.0000 
    122 CA         11.9950   -6.9680   13.7990 C.3       6 GLP5        0.0000 
    123 CA          2.9735   -7.1885   22.6824 C.3       3 GLC5        0.0000 
    124 CA          3.3660   -6.3450   21.0900 C.3       9 GLL5        0.0000 
    125 CA          3.1370   -7.3290   24.4740 C.3       6 GLP5        0.0000 
    126 CA          2.1063   -4.9005   20.8010 C.3       3 GLC5        0.0000 
@<TRIPOS>BOND
@<TRIPOS>SUBSTRUCTURE
     1 ALC1       13 GROUP        1 X    ALC  0     ROOT ALC X 1
     2 SEC2        1 GROUP        1 X    SEC  0     **** SEC X 2
     3 GLC5        4 GROUP        1 X    GLC  0     **** GLC X 6
     4 ALP1       15 GROUP        1 Y    ALP  0     ROOT ALP Y 8
     5 SEP2        3 GROUP        1 Y    SEP  0     **** SEP Y 9
     6 GLP5        6 GROUP        1 Y    GLP  0     **** GLP Y 13
     7 ALL1       14 GROUP        1 Z    ALL  0     ROOT ALL Z 15
     8 SEL2        2 GROUP        1 Z    SEL  0     **** SEL Z 16
     9 GLL5        5 GROUP        1 Z    GLL  0     **** GLL Z 20
@<TRIPOS>SET

