#    Name: 1hvk_A79_1_ligand
#    Modification time : Tue Mar 25 06:17:18 2014

@<TRIPOS>MOLECULE
1hvk_A79_1_ligand
  116   119     1     0     0
SMALL
NO_CHARGES


@<TRIPOS>ATOM
      1 C1          3.4420    3.3640   10.6640 C.2       1 A79800      0.0000 
      2 O2          3.1030    4.0650   11.6060 O.2       1 A79800      0.0000 
      3 N3          4.1080    3.8760    9.6230 N.am      1 A79800      0.0000 
      4 C4          4.6590    3.0340    8.5660 C.3       1 A79800      0.0000 
      5 C5          4.3760    5.3220    9.6130 C.3       1 A79800      0.0000 
      6 C6          5.7860    5.6900    9.9970 C.ar      1 A79800      0.0000 
      7 C7          6.6870    6.0180    8.9940 C.ar      1 A79800      0.0000 
      8 N8          6.0940    5.7110   11.2940 N.ar      1 A79800      0.0000 
      9 C9          7.9610    6.3910    9.3940 C.ar      1 A79800      0.0000 
     10 C10         7.3140    6.0700   11.6630 C.ar      1 A79800      0.0000 
     11 C11         8.2870    6.4200   10.7470 C.ar      1 A79800      0.0000 
     12 N21         3.1570    2.0630   10.6230 N.am      1 A79800      0.0000 
     13 C22         2.5380    1.3810   11.7760 C.3       1 A79800      0.0000 
     14 C23         3.5500    0.4420   12.4210 C.2       1 A79800      0.0000 
     15 O24         3.6830   -0.7230   12.0840 O.2       1 A79800      0.0000 
     16 C25         1.1890    0.6750   11.4320 C.3       1 A79800      0.0000 
     17 C26         0.1900    1.6100   10.7090 C.3       1 A79800      0.0000 
     18 C27         0.5290    0.0770   12.6750 C.3       1 A79800      0.0000 
     19 N37         4.2870    1.0030   13.3740 N.am      1 A79800      0.0000 
     20 C38         5.2470    0.2310   14.1980 C.3       1 A79800      0.0000 
     21 C39         6.6590    0.8140   14.1100 C.3       1 A79800      0.0000 
     22 C40         7.1750    0.9510   12.7060 C.ar      1 A79800      0.0000 
     23 C41         7.6990   -0.1700   12.0450 C.ar      1 A79800      0.0000 
     24 C42         8.1810   -0.0360   10.7380 C.ar      1 A79800      0.0000 
     25 C43         8.1250    1.2070   10.0940 C.ar      1 A79800      0.0000 
     26 C44         7.6020    2.3230   10.7530 C.ar      1 A79800      0.0000 
     27 C45         7.1270    2.1980   12.0640 C.ar      1 A79800      0.0000 
     28 C46         4.7040    0.1060   15.6470 C.3       1 A79800      0.0000 
     29 O47         4.7720    1.3930   16.2230 O.3       1 A79800      0.0000 
     30 O48         5.2450   -0.8000   17.8600 O.3       1 A79800      0.0000 
     31 C49         5.4110   -0.9690   16.4710 C.3       1 A79800      0.0000 
     32 N50         5.8480   -3.3620   16.5460 N.am      1 A79800      0.0000 
     33 C51         4.8840   -2.3660   16.1080 C.3       1 A79800      0.0000 
     34 C52         3.4900   -2.7020   16.6590 C.3       1 A79800      0.0000 
     35 C53         3.0970   -4.1240   16.3490 C.ar      1 A79800      0.0000 
     36 C54         2.5550   -4.4390   15.0980 C.ar      1 A79800      0.0000 
     37 C55         2.2680   -5.7770   14.7770 C.ar      1 A79800      0.0000 
     38 C56         2.5240   -6.7940   15.7040 C.ar      1 A79800      0.0000 
     39 C57         3.0480   -6.4830   16.9610 C.ar      1 A79800      0.0000 
     40 C58         3.3320   -5.1530   17.2930 C.ar      1 A79800      0.0000 
     41 N81         7.0960   -6.2180   16.8450 N.am      1 A79800      0.0000 
     42 C82         7.6370   -4.9150   16.4650 C.3       1 A79800      0.0000 
     43 C83         6.6290   -4.0560   15.7260 C.2       1 A79800      0.0000 
     44 O84         6.5580   -3.9890   14.5120 O.2       1 A79800      0.0000 
     45 C85         8.9600   -5.0190   15.7100 C.3       1 A79800      0.0000 
     46 C86         9.9270   -5.8680   16.5510 C.3       1 A79800      0.0000 
     47 C87         9.5560   -3.6280   15.4470 C.3       1 A79800      0.0000 
     48 C97         6.8980   -6.6250   18.1010 C.2       1 A79800      0.0000 
     49 O98         7.2170   -5.9320   19.0590 O.2       1 A79800      0.0000 
     50 N99         6.3220   -7.8510   18.2480 N.am      1 A79800      0.0000 
     51 C2          5.8680   -8.6360   17.0970 C.3       1 A79800      0.0000 
     52 C3          6.0170   -8.3880   19.5770 C.3       1 A79800      0.0000 
     53 C8          4.6530   -7.9530   20.0750 C.ar      1 A79800      0.0000 
     54 C12         3.5500   -8.8050   19.9280 C.ar      1 A79800      0.0000 
     55 N10         4.5730   -6.7420   20.6480 N.ar      1 A79800      0.0000 
     56 C13         2.3010   -8.3770   20.3930 C.ar      1 A79800      0.0000 
     57 C14         3.3660   -6.3450   21.0900 C.ar      1 A79800      0.0000 
     58 C15         2.2070   -7.1250   20.9900 C.ar      1 A79800      0.0000 
     59 H           3.6764    5.8410   10.3038 H         1 A79800      0.0000 
     60 H           4.1662    5.7385    8.6038 H         1 A79800      0.0000 
     61 H           6.4271    5.9864    8.0209 H         1 A79800      0.0000 
     62 H           8.6684    6.6472    8.6916 H         1 A79800      0.0000 
     63 H           7.5761    6.0975   12.6858 H         1 A79800      0.0000 
     64 H           9.2200    6.6929   11.0487 H         1 A79800      0.0000 
     65 H           3.3483    1.4679    9.7997 H         1 A79800      0.0000 
     66 H           2.2970    2.1569   12.5436 H         1 A79800      0.0000 
     67 H           1.4160   -0.1534   10.7463 H         1 A79800      0.0000 
     68 H           4.2347    2.0205   13.6000 H         1 A79800      0.0000 
     69 H           5.2867   -0.8011   13.7904 H         1 A79800      0.0000 
     70 H           7.3405    0.1691   14.6932 H         1 A79800      0.0000 
     71 H           6.6603    1.8028   14.6027 H         1 A79800      0.0000 
     72 H           7.7278   -1.0760   12.5152 H         1 A79800      0.0000 
     73 H           8.5754   -0.8474   10.2509 H         1 A79800      0.0000 
     74 H           8.4715    1.2973    9.1298 H         1 A79800      0.0000 
     75 H           7.5658    3.2303   10.2791 H         1 A79800      0.0000 
     76 H           6.7462    3.0114   12.5533 H         1 A79800      0.0000 
     77 H           3.6427   -0.1951   15.5382 H         1 A79800      0.0000 
     78 H           6.4705   -0.9599   16.2005 H         1 A79800      0.0000 
     79 H           5.8921   -3.5065   17.5944 H         1 A79800      0.0000 
     80 H           4.8213   -2.4111   15.0035 H         1 A79800      0.0000 
     81 H           2.7642   -2.0127   16.2183 H         1 A79800      0.0000 
     82 H           3.4950   -2.5468   17.7416 H         1 A79800      0.0000 
     83 H           2.3670   -3.6992   14.4166 H         1 A79800      0.0000 
     84 H           1.8698   -6.0062   13.8600 H         1 A79800      0.0000 
     85 H           2.3256   -7.7712   15.4582 H         1 A79800      0.0000 
     86 H           3.2254   -7.2292   17.6427 H         1 A79800      0.0000 
     87 H           3.7085   -4.9177   18.2133 H         1 A79800      0.0000 
     88 H           6.8586   -6.8514   16.0266 H         1 A79800      0.0000 
     89 H           7.8768   -4.3544   17.4184 H         1 A79800      0.0000 
     90 H           8.7920   -5.5171   14.7764 H         1 A79800      0.0000 
     91 H           6.7755   -8.0588   20.3079 H         1 A79800      0.0000 
     92 H           6.0463   -9.4911   19.5618 H         1 A79800      0.0000 
     93 H           3.6558   -9.7168   19.4916 H         1 A79800      0.0000 
     94 H           1.4826   -8.9723   20.2942 H         1 A79800      0.0000 
     95 H           3.2627   -5.3920   21.5429 H         1 A79800      0.0000 
     96 H           1.3209   -6.7797   21.3468 H         1 A79800      0.0000 
     97 H           5.1261    3.5745    7.8662 H         1 A79800      0.0000 
     98 H           5.3244    2.3782    8.9225 H         1 A79800      0.0000 
     99 H           3.9471    2.5065    8.1023 H         1 A79800      0.0000 
    100 H          -0.0427    2.4071   11.2663 H         1 A79800      0.0000 
    101 H           0.5608    1.9537    9.8462 H         1 A79800      0.0000 
    102 H          -0.6674    1.1424   10.4940 H         1 A79800      0.0000 
    103 H           1.1151   -0.6026   13.1162 H         1 A79800      0.0000 
    104 H           0.3245    0.7764   13.3598 H         1 A79800      0.0000 
    105 H          -0.3335   -0.3786   12.4547 H         1 A79800      0.0000 
    106 H          10.8164   -5.9690   16.1052 H         1 A79800      0.0000 
    107 H          10.0937   -5.4610   17.4491 H         1 A79800      0.0000 
    108 H           9.5717   -6.7894   16.7082 H         1 A79800      0.0000 
    109 H           9.7343   -3.1335   16.2977 H         1 A79800      0.0000 
    110 H          10.4235   -3.6831   14.9526 H         1 A79800      0.0000 
    111 H           8.9425   -3.0585   14.9000 H         1 A79800      0.0000 
    112 H           6.6180   -8.8408   16.4680 H         1 A79800      0.0000 
    113 H           5.4729   -9.5110   17.3768 H         1 A79800      0.0000 
    114 H           5.1679   -8.1531   16.5710 H         1 A79800      0.0000 
    115 H           4.2531    1.3229   17.0750 H         1 A79800      0.0000 
    116 H           4.2554   -0.7655   18.0000 H         1 A79800      0.0000 
@<TRIPOS>BOND
     1    2    1 2    
     2    3    1 am   
     3   12    1 am   
     4    4    3 1    
     5    5    3 1    
     6   97    4 1    
     7   98    4 1    
     8   99    4 1    
     9    6    5 1    
    10   59    5 1    
    11   60    5 1    
    12    7    6 ar   
    13    8    6 ar   
    14    9    7 ar   
    15   61    7 1    
    16   10    8 ar   
    17   11    9 ar   
    18   62    9 1    
    19   11   10 ar   
    20   63   10 1    
    21   64   11 1    
    22   13   12 1    
    23   65   12 1    
    24   14   13 1    
    25   16   13 1    
    26   66   13 1    
    27   15   14 2    
    28   19   14 am   
    29   17   16 1    
    30   18   16 1    
    31   67   16 1    
    32  100   17 1    
    33  101   17 1    
    34  102   17 1    
    35  103   18 1    
    36  104   18 1    
    37  105   18 1    
    38   20   19 1    
    39   68   19 1    
    40   21   20 1    
    41   28   20 1    
    42   69   20 1    
    43   22   21 1    
    44   70   21 1    
    45   71   21 1    
    46   23   22 ar   
    47   27   22 ar   
    48   24   23 ar   
    49   72   23 1    
    50   25   24 ar   
    51   73   24 1    
    52   26   25 ar   
    53   74   25 1    
    54   27   26 ar   
    55   75   26 1    
    56   76   27 1    
    57   29   28 1    
    58   31   28 1    
    59   77   28 1    
    60  115   29 1    
    61   31   30 1    
    62  116   30 1    
    63   33   31 1    
    64   78   31 1    
    65   33   32 1    
    66   43   32 am   
    67   79   32 1    
    68   34   33 1    
    69   80   33 1    
    70   35   34 1    
    71   81   34 1    
    72   82   34 1    
    73   36   35 ar   
    74   40   35 ar   
    75   37   36 ar   
    76   83   36 1    
    77   38   37 ar   
    78   84   37 1    
    79   39   38 ar   
    80   85   38 1    
    81   40   39 ar   
    82   86   39 1    
    83   87   40 1    
    84   42   41 1    
    85   48   41 am   
    86   88   41 1    
    87   43   42 1    
    88   45   42 1    
    89   89   42 1    
    90   44   43 2    
    91   46   45 1    
    92   47   45 1    
    93   90   45 1    
    94  106   46 1    
    95  107   46 1    
    96  108   46 1    
    97  109   47 1    
    98  110   47 1    
    99  111   47 1    
   100   49   48 2    
   101   50   48 am   
   102   51   50 1    
   103   52   50 1    
   104  112   51 1    
   105  113   51 1    
   106  114   51 1    
   107   53   52 1    
   108   91   52 1    
   109   92   52 1    
   110   54   53 ar   
   111   55   53 ar   
   112   56   54 ar   
   113   93   54 1    
   114   57   55 ar   
   115   58   56 ar   
   116   94   56 1    
   117   58   57 ar   
   118   95   57 1    
   119   96   58 1    
@<TRIPOS>SUBSTRUCTURE
     1 A79800      1 GROUP   
@<TRIPOS>SET

