#    Name: 3GC5_1_CAVITY_N1_6.mol2
#    Modification time : Mon Mar 10 18:44:32 2014

@<TRIPOS>MOLECULE
3GC5_1_CAVITY_N1_6.mol2
   74     0     6     0     0
SMALL
NO_CHARGES


@<TRIPOS>ATOM
      1 O          18.7369   16.5356   22.9536 O.2       2 ALA2        0.0000 
      2 O          19.1998   17.4472   21.0950 O.2       2 ALA2        0.0000 
      3 CA         17.9480   17.2519   21.8979 C.3       5 GLY6        0.0000 
      4 CA         16.6961   17.0565   22.7009 C.3       5 GLY6        0.0000 
      5 CZ         18.4109   18.1635   20.0393 C.ar      4 PHE5        0.0000 
      6 CA         18.9538   16.1439   20.3944 C.3       5 GLY6        0.0000 
      7 CA         17.7020   15.9485   21.1974 C.3       5 GLY6        0.0000 
      8 CA         16.4501   15.7532   22.0004 C.3       5 GLY6        0.0000 
      9 N          19.4167   17.0555   18.5358 N.2       2 ALA2        0.0000 
     10 N          18.1649   16.8602   19.3387 N.2       2 ALA2        0.0000 
     11 CZ         16.9130   16.6648   20.1417 C.ar      4 PHE5        0.0000 
     12 CA         15.6612   16.4695   20.9447 C.3       5 GLY6        0.0000 
     13 N          18.6278   17.7718   17.4801 N.2       2 ALA2        0.0000 
     14 CZ         17.3760   17.5765   18.2830 C.ar      4 PHE5        0.0000 
     15 CZ         16.1241   17.3812   19.0860 C.ar      4 PHE5        0.0000 
     16 OG         17.8389   18.4882   16.4244 O.2       1 SER1        0.0000 
     17 N          18.3018   19.3998   14.5657 N.2       2 ALA2        0.0000 
     18 OG         14.2203   20.4418   14.0603 O.2       1 SER1        0.0000 
     19 CZ         12.9684   20.2465   14.8633 C.ar      4 PHE5        0.0000 
     20 CA         16.6671   15.3615   19.4412 C.3       5 GLY6        0.0000 
     21 NZ         15.4152   15.1662   20.2441 N.2       3 LYS4        0.0000 
     22 CA         18.3818   16.4685   16.7795 C.3       5 GLY6        0.0000 
     23 CA         17.1300   16.2732   17.5825 C.3       5 GLY6        0.0000 
     24 CA         15.8781   16.0778   18.3855 C.3       5 GLY6        0.0000 
     25 NZ         14.6263   15.8825   19.1884 N.2       3 LYS4        0.0000 
     26 N          18.8447   17.3802   14.9209 N.2       2 ALA2        0.0000 
     27 CA         17.5929   17.1848   15.7238 C.3       5 GLY6        0.0000 
     28 CA         16.3411   16.9895   16.5268 C.3       5 GLY6        0.0000 
     29 CZ         15.0892   16.7941   17.3298 C.ar      4 PHE5        0.0000 
     30 N          13.8374   16.5988   18.1327 N.2       2 ALA2        0.0000 
     31 N          18.0558   18.0965   13.8652 N.2       2 ALA2        0.0000 
     32 OG         16.8040   17.9011   14.6682 O.2       1 SER1        0.0000 
     33 OG         15.5521   17.7058   15.4711 O.2       1 SER1        0.0000 
     34 CZ         14.3003   17.5105   16.2741 C.ar      4 PHE5        0.0000 
     35 DU         17.2669   18.8128   12.8095 H         6 CUB7        0.0000 
     36 OG         16.0150   18.6175   13.6125 O.2       1 SER1        0.0000 
     37 OG         14.7632   18.4221   14.4154 O.2       1 SER1        0.0000 
     38 N          13.5114   18.2268   15.2184 N.2       2 ALA2        0.0000 
     39 DU         15.2261   19.3338   12.5568 H         6 CUB7        0.0000 
     40 DU         13.9743   19.1385   13.3597 H         6 CUB7        0.0000 
     41 N          12.7224   18.9431   14.1627 N.2       2 ALA2        0.0000 
     42 N          11.4706   18.7478   14.9657 N.2       2 ALA2        0.0000 
     43 O          13.1854   19.8548   12.3041 O.2       2 ALA2        0.0000 
     44 CA         15.6322   14.7745   17.6849 C.3       5 GLY6        0.0000 
     45 NZ         14.3803   14.5791   18.4879 N.2       3 LYS4        0.0000 
     46 CA         16.0951   15.6861   15.8263 C.3       5 GLY6        0.0000 
     47 NZ         14.8432   15.4908   16.6292 N.2       3 LYS4        0.0000 
     48 NZ         13.5914   15.2955   17.4322 N.2       3 LYS4        0.0000 
     49 N          12.3396   15.1001   18.2352 N.2       2 ALA2        0.0000 
     50 N          17.8098   16.7931   13.1646 N.2       2 ALA2        0.0000 
     51 N          16.5580   16.5978   13.9676 N.2       2 ALA2        0.0000 
     52 CA         15.3061   16.4025   14.7706 C.3       5 GLY6        0.0000 
     53 N          14.0543   16.2071   15.5735 N.2       2 ALA2        0.0000 
     54 DU         17.0209   17.5094   12.1090 H         6 CUB7        0.0000 
     55 CA         15.7691   17.3141   12.9119 C.3       5 GLY6        0.0000 
     56 CA         14.5172   17.1188   13.7149 C.3       5 GLY6        0.0000 
     57 N          13.2654   16.9234   14.5178 N.2       2 ALA2        0.0000 
     58 N          12.0136   16.7281   15.3208 N.2       2 ALA2        0.0000 
     59 CA         16.2320   18.2258   11.0533 C.3       5 GLY6        0.0000 
     60 CA         14.9801   18.0304   11.8562 C.3       5 GLY6        0.0000 
     61 CA         13.7283   17.8351   12.6592 C.3       5 GLY6        0.0000 
     62 CA         12.4765   17.6398   13.4622 C.3       5 GLY6        0.0000 
     63 N          11.2246   17.4444   14.2651 N.2       2 ALA2        0.0000 
     64 N           9.9728   17.2491   15.0681 N.2       2 ALA2        0.0000 
     65 N          16.3120   15.2944   13.2671 N.2       2 ALA2        0.0000 
     66 CA         15.0602   15.0991   14.0700 C.3       5 GLY6        0.0000 
     67 NZ         13.8083   14.9038   14.8730 N.2       3 LYS4        0.0000 
     68 NZ         12.5565   14.7084   15.6760 N.2       3 LYS4        0.0000 
     69 O          11.3047   14.5131   16.4789 O.2       2 ALA2        0.0000 
     70 CA         16.7749   16.2061   11.4084 C.3       5 GLY6        0.0000 
     71 CA         15.5231   16.0108   12.2114 C.3       5 GLY6        0.0000 
     72 O          14.2712   15.8154   13.0143 O.2       2 ALA2        0.0000 
     73 CA         13.0194   15.6201   13.8173 C.3       5 GLY6        0.0000 
     74 CA         11.7676   15.4248   14.6203 C.3       5 GLY6        0.0000 
@<TRIPOS>BOND
@<TRIPOS>SUBSTRUCTURE
     1 SER1       16 GROUP   
     2 ALA2        1 GROUP   
     3 LYS4       21 GROUP   
     4 PHE5        5 GROUP   
     5 GLY6        3 GROUP   
     6 CUB7       35 GROUP   
@<TRIPOS>SET

