#    Name: 3gc5_2MQ_1_INTS_M
#    Modification time : Tue Mar 25 07:27:22 2014

@<TRIPOS>MOLECULE
3gc5_2MQ_1_INTS_M
   54     0    12     0     0
SMALL
NO_CHARGES


@<TRIPOS>ATOM
      1 N          19.3255   17.4450   25.0710 N.am      2 SEC2        0.0000 
      2 N          18.8610   17.3540   23.6670 N.am     10 SEL2        0.0000 
      3 N          19.7900   17.5360   26.4750 N.am      6 SEP2        0.0000 
      4 N          20.2485   17.3670   23.3830 N.am      2 SEC2        0.0000 
      5 N          21.6360   17.3800   23.0990 N.am      6 SEP2        0.0000 
      6 O          16.9060   16.7960   25.3135 O.2       1 ALC1        0.0000 
      7 O          16.7300   16.6860   23.9790 O.2       9 ALL1        0.0000 
      8 O          17.0820   16.9060   26.6480 O.2       5 ALP1        0.0000 
      9 O          13.6635   15.5240   22.8805 O.2       1 ALC1        0.0000 
     10 O          14.5810   15.9940   24.2690 O.2       9 ALL1        0.0000 
     11 O          12.7460   15.0540   21.4920 O.2       5 ALP1        0.0000 
     12 O          13.5935   15.1140   23.8895 O.2       1 ALC1        0.0000 
     13 O          12.6060   14.2340   23.5100 O.2       5 ALP1        0.0000 
     14 O          14.7210   16.4925   25.6220 O.2       1 ALC1        0.0000 
     15 O          14.8610   16.9910   26.9750 O.2       5 ALP1        0.0000 
     16 CA         14.4120   17.8010   19.1755 C.3       4 GLC5        0.0000 
     17 CA         14.7760   16.0480   19.2000 C.3      12 GLL5        0.0000 
     18 CA         14.0480   19.5540   19.1510 C.3       8 GLP5        0.0000 
     19 CA         16.5975   13.8895   19.5755 C.3       4 GLC5        0.0000 
     20 CA         14.9090   14.5750   18.6350 C.3      12 GLL5        0.0000 
     21 CA         18.2860   13.2040   20.5160 C.3       8 GLP5        0.0000 
     22 CA         16.4685   14.2900   17.3005 C.3       4 GLC5        0.0000 
     23 CA         18.0280   14.0050   15.9660 C.3       8 GLP5        0.0000 
     24 OD1        14.8495   12.7705   17.5030 O.co2     3 ASC3        0.0000 
     25 OD1        13.8940   14.3930   17.5800 O.co2    11 ASL3        0.0000 
     26 OD1        15.8050   11.1480   17.4260 O.co2     7 ASP3        0.0000 
     27 OD1        14.1835   13.2840   16.8240 O.co2     3 ASC3        0.0000 
     28 OD1        14.4730   12.1750   16.0680 O.co2     7 ASP3        0.0000 
     29 O          14.1835   13.2840   16.8240 O.2       1 ALC1        0.0000 
     30 O          13.8940   14.3930   17.5800 O.2       9 ALL1        0.0000 
     31 O          14.4730   12.1750   16.0680 O.2       5 ALP1        0.0000 
     32 O          12.7180   14.7945   18.3060 O.2       1 ALC1        0.0000 
     33 O          11.5420   15.1960   19.0320 O.2       5 ALP1        0.0000 
     34 CA         17.5745   15.4660   17.4890 C.3       4 GLC5        0.0000 
     35 CA         17.1210   16.9270   19.0120 C.3      12 GLL5        0.0000 
     36 O          19.9185   18.6490   15.9375 O.2       1 ALC1        0.0000 
     37 O          18.7880   17.7640   16.1430 O.2       9 ALL1        0.0000 
     38 O          21.0490   19.5340   15.7320 O.2       5 ALP1        0.0000 
     39 CA         20.1255   17.2895   15.2235 C.3       4 GLC5        0.0000 
     40 CA         18.0510   17.6040   14.9130 C.3      12 GLL5        0.0000 
     41 CA         22.2000   16.9750   15.5340 C.3       8 GLP5        0.0000 
     42 CA         18.0395   15.8045   15.4395 C.3       4 GLC5        0.0000 
     43 CA         20.5340   17.9370   21.8755 C.3       4 GLC5        0.0000 
     44 CA         18.6570   17.2870   20.8440 C.3      12 GLL5        0.0000 
     45 CA         22.4110   18.5870   22.9070 C.3       8 GLP5        0.0000 
     46 CA         17.2660   14.8278   20.5345 C.3       4 GLC5        0.0000 
     47 CA         16.3800   16.4370   21.2420 C.3      12 GLL5        0.0000 
     48 CA         18.0230   15.1408   19.8800 C.3       4 GLC5        0.0000 
     49 CA         18.6412   18.8547   21.8560 C.3       4 GLC5        0.0000 
     50 CA         19.1510   20.6030   22.4360 C.3       8 GLP5        0.0000 
     51 CA         18.2088   15.1552   20.8960 C.3       4 GLC5        0.0000 
     52 CA         15.5465   17.9129   21.3937 C.3       4 GLC5        0.0000 
     53 CA         17.6060   16.9260   21.7080 C.3      12 GLL5        0.0000 
     54 CA         14.1670   19.1370   21.6570 C.3       8 GLP5        0.0000 
@<TRIPOS>BOND
@<TRIPOS>SUBSTRUCTURE
     1 ALC1        6 GROUP        1 X    ALC  0     ROOT ALC X 1
     2 SEC2        1 GROUP        1 X    SEC  0     **** SEC X 2
     3 ASC3       24 GROUP        1 X    ASC  0     **** ASC X 3
     4 GLC5       16 GROUP        1 X    GLC  0     **** GLC X 6
     5 ALP1        8 GROUP        1 Y    ALP  0     ROOT ALP Y 8
     6 SEP2        3 GROUP        1 Y    SEP  0     **** SEP Y 9
     7 ASP3       26 GROUP        1 Y    ASP  0     **** ASP Y 10
     8 GLP5       18 GROUP        1 Y    GLP  0     **** GLP Y 13
     9 ALL1        7 GROUP        1 Z    ALL  0     ROOT ALL Z 15
    10 SEL2        2 GROUP        1 Z    SEL  0     **** SEL Z 16
    11 ASL3       25 GROUP        1 Z    ASL  0     **** ASL Z 17
    12 GLL5       17 GROUP        1 Z    GLL  0     **** GLL Z 20
@<TRIPOS>SET

