#    Name: 3gc5_2MQ_1_ligand
#    Modification time : Tue Mar 25 07:27:22 2014

@<TRIPOS>MOLECULE
3gc5_2MQ_1_ligand
   36    38     1     0     0
SMALL
NO_CHARGES


@<TRIPOS>ATOM
      1 C2         17.7530   17.0200   23.2150 C.2       1 2MQ400      0.0000 
      2 O19        18.8610   17.3540   23.6670 O.2       1 2MQ400      0.0000 
      3 N3         16.7300   16.6860   23.9790 N.am      1 2MQ400      0.0000 
      4 C4         15.5830   16.2690   23.4620 C.2       1 2MQ400      0.0000 
      5 N20        14.5810   15.9940   24.2690 N.pl3     1 2MQ400      0.0000 
      6 N5         15.4180   16.1260   22.1830 N.2       1 2MQ400      0.0000 
      7 C6         16.3800   16.4370   21.2420 C.ar      1 2MQ400      0.0000 
      8 C10        16.1120   16.4660   19.8640 C.ar      1 2MQ400      0.0000 
      9 C16        14.7760   16.0480   19.2000 C.3       1 2MQ400      0.0000 
     10 C17        14.9090   14.5750   18.6350 C.3       1 2MQ400      0.0000 
     11 N18        13.8940   14.3930   17.5800 N.4       1 2MQ400      0.0000 
     12 C9         17.1210   16.9270   19.0120 C.ar      1 2MQ400      0.0000 
     13 N11        17.1880   17.0350   17.6650 N.pl3     1 2MQ400      0.0000 
     14 C12        18.3380   17.5260   17.3620 C.2       1 2MQ400      0.0000 
     15 N14        18.7880   17.7640   16.1430 N.pl3     1 2MQ400      0.0000 
     16 C15        18.0510   17.6040   14.9130 C.3       1 2MQ400      0.0000 
     17 N13        19.1160   17.6320   18.4150 N.2       1 2MQ400      0.0000 
     18 C8         18.3990   17.2280   19.4760 C.ar      1 2MQ400      0.0000 
     19 C7         18.6570   17.2870   20.8440 C.ar      1 2MQ400      0.0000 
     20 C1         17.6060   16.9260   21.7080 C.ar      1 2MQ400      0.0000 
     21 H          16.8257   16.7521   25.0345 H         1 2MQ400      0.0000 
     22 H          13.7460   15.6562   23.8345 H         1 2MQ400      0.0000 
     23 H          14.7457   16.1478   25.2433 H         1 2MQ400      0.0000 
     24 H          14.5561   16.7068   18.3806 H         1 2MQ400      0.0000 
     25 H          13.9880   16.0613   19.9299 H         1 2MQ400      0.0000 
     26 H          14.7508   13.8993   19.4604 H         1 2MQ400      0.0000 
     27 H          15.9096   14.4693   18.2471 H         1 2MQ400      0.0000 
     28 H          16.4673   16.7746   17.0618 H         1 2MQ400      0.0000 
     29 H          19.7978   18.1131   16.0045 H         1 2MQ400      0.0000 
     30 H          19.5494   17.5730   21.2038 H         1 2MQ400      0.0000 
     31 H          14.0189   15.0410   16.8287 H         1 2MQ400      0.0000 
     32 H          13.9299   13.4752   17.1845 H         1 2MQ400      0.0000 
     33 H          12.9667   14.5253   17.9300 H         1 2MQ400      0.0000 
     34 H          18.6023   17.8482   14.1152 H         1 2MQ400      0.0000 
     35 H          17.7477   16.6602   14.7819 H         1 2MQ400      0.0000 
     36 H          17.2339   18.1801   14.8920 H         1 2MQ400      0.0000 
@<TRIPOS>BOND
     1    2    1 2    
     2    3    1 am   
     3   20    1 1    
     4    4    3 1    
     5   21    3 1    
     6    5    4 1    
     7    6    4 2    
     8   22    5 1    
     9   23    5 1    
    10    7    6 1    
    11    8    7 ar   
    12   20    7 ar   
    13    9    8 1    
    14   12    8 ar   
    15   10    9 1    
    16   24    9 1    
    17   25    9 1    
    18   11   10 1    
    19   26   10 1    
    20   27   10 1    
    21   31   11 1    
    22   32   11 1    
    23   33   11 1    
    24   13   12 1    
    25   18   12 ar   
    26   14   13 1    
    27   28   13 1    
    28   15   14 1    
    29   17   14 2    
    30   16   15 1    
    31   29   15 1    
    32   34   16 1    
    33   35   16 1    
    34   36   16 1    
    35   18   17 1    
    36   19   18 ar   
    37   20   19 ar   
    38   30   19 1    
@<TRIPOS>SUBSTRUCTURE
     1 2MQ400      1 GROUP   
@<TRIPOS>SET

