#    Name: 4FSE_4_CAVITY_N1_ALL.mol2
#    Modification time : Mon Mar 10 20:55:10 2014

@<TRIPOS>MOLECULE
4FSE_4_CAVITY_N1_ALL.mol2
   96     0     6     0     0
SMALL
NO_CHARGES


@<TRIPOS>ATOM
      1 CA         35.7771   17.8515   71.3873 C.3       5 GLY6        0.0000 
      2 CA         35.9840   16.4573   71.9005 C.3       5 GLY6        0.0000 
      3 DU         37.4352   14.9426   71.5846 H         6 CUB7        0.0000 
      4 CA         36.1910   15.0631   72.4137 C.3       5 GLY6        0.0000 
      5 CA         34.9468   15.1836   73.2428 C.3       5 GLY6        0.0000 
      6 O          33.7025   15.3042   74.0719 O.2       2 ALA2        0.0000 
      7 O          32.4583   15.4247   74.9010 O.2       2 ALA2        0.0000 
      8 CZ         31.2141   15.5452   75.7301 C.ar      4 PHE5        0.0000 
      9 DU         37.6421   13.5484   72.0978 H         6 CUB7        0.0000 
     10 N          36.3979   13.6689   72.9269 N.2       2 ALA2        0.0000 
     11 N          35.1537   13.7894   73.7560 N.2       2 ALA2        0.0000 
     12 DU         33.9095   13.9100   74.5851 H         6 CUB7        0.0000 
     13 CZ         32.6652   14.0305   75.4142 C.ar      4 PHE5        0.0000 
     14 CZ         31.4210   14.1510   76.2433 C.ar      4 PHE5        0.0000 
     15 CA         37.8490   12.1542   72.6110 C.3       5 GLY6        0.0000 
     16 N          36.6048   12.2747   73.4401 N.2       2 ALA2        0.0000 
     17 N          35.3606   12.3952   74.2692 N.2       2 ALA2        0.0000 
     18 N          34.1164   12.5158   75.0983 N.2       2 ALA2        0.0000 
     19 DU         36.5890   18.3916   72.5271 H         6 CUB7        0.0000 
     20 O          35.3448   18.5121   73.3562 O.2       2 ALA2        0.0000 
     21 O          31.6121   18.8737   75.8435 O.2       2 ALA2        0.0000 
     22 CZ         30.3679   18.9942   76.6726 C.ar      4 PHE5        0.0000 
     23 CA         35.3791   14.5230   71.2739 C.3       5 GLY6        0.0000 
     24 N          35.5860   13.1288   71.7871 N.2       2 ALA2        0.0000 
     25 N          34.3418   13.2494   72.6162 N.2       2 ALA2        0.0000 
     26 N          33.0976   13.3699   73.4453 N.2       2 ALA2        0.0000 
     27 CZ         31.8534   13.4904   74.2744 C.ar      4 PHE5        0.0000 
     28 N          37.0372   11.6141   71.4712 N.2       2 ALA2        0.0000 
     29 N          36.0184   12.4682   69.8181 N.2       2 ALA2        0.0000 
     30 CA         35.9497   20.4464   73.9828 C.3       5 GLY6        0.0000 
     31 O          37.4008   18.9316   73.6669 O.2       2 ALA2        0.0000 
     32 CA         36.1566   19.0522   74.4960 C.3       5 GLY6        0.0000 
     33 OG         34.9124   19.1727   75.3251 O.2       1 SER1        0.0000 
     34 OG         33.6682   19.2932   76.1542 O.2       1 SER1        0.0000 
     35 NZ         32.4240   19.4138   76.9833 N.2       3 LYS4        0.0000 
     36 N          31.1798   19.5343   77.8124 N.2       2 ALA2        0.0000 
     37 OG         40.0962   17.2964   72.5219 O.2       1 SER1        0.0000 
     38 OG         38.8520   17.4169   73.3510 O.2       1 SER1        0.0000 
     39 N          37.6078   17.5374   74.1801 N.2       2 ALA2        0.0000 
     40 N          36.3635   17.6580   75.0092 N.2       2 ALA2        0.0000 
     41 N          33.8751   17.8990   76.6674 N.2       2 ALA2        0.0000 
     42 N          32.6309   18.0196   77.4965 N.2       2 ALA2        0.0000 
     43 NZ         31.3867   18.1401   78.3256 N.2       3 LYS4        0.0000 
     44 N          40.3031   15.9022   73.0352 N.2       2 ALA2        0.0000 
     45 N          39.0589   16.0227   73.8643 N.2       2 ALA2        0.0000 
     46 DU         37.8147   16.1432   74.6934 H         6 CUB7        0.0000 
     47 N          36.5705   16.2638   75.5224 N.2       2 ALA2        0.0000 
     48 N          35.3263   16.3843   76.3515 N.2       2 ALA2        0.0000 
     49 N          34.0820   16.5048   77.1806 N.2       2 ALA2        0.0000 
     50 NZ         32.8378   16.6254   78.0097 N.2       3 LYS4        0.0000 
     51 CA         39.2658   14.6285   74.3775 C.3       5 GLY6        0.0000 
     52 CA         38.0216   14.7490   75.2066 C.3       5 GLY6        0.0000 
     53 N          36.7774   14.8696   76.0357 N.2       2 ALA2        0.0000 
     54 N          35.5332   14.9901   76.8648 N.2       2 ALA2        0.0000 
     55 N          34.2890   15.1106   77.6939 N.2       2 ALA2        0.0000 
     56 CA         33.0447   15.2312   78.5229 C.3       5 GLY6        0.0000 
     57 CA         36.9843   13.4754   76.5489 C.3       5 GLY6        0.0000 
     58 CA         35.7401   13.5959   77.3780 C.3       5 GLY6        0.0000 
     59 CA         34.4959   13.7164   78.2071 C.3       5 GLY6        0.0000 
     60 O          38.4196   18.0775   75.3200 O.2       2 ALA2        0.0000 
     61 N          33.4428   18.5596   78.6364 N.2       2 ALA2        0.0000 
     62 OG         39.8708   16.5628   75.0041 O.2       1 SER1        0.0000 
     63 OG         38.6265   16.6833   75.8332 O.2       1 SER1        0.0000 
     64 NZ         33.6497   17.1654   79.1496 N.2       3 LYS4        0.0000 
     65 CA         38.8335   15.2891   76.3464 C.3       5 GLY6        0.0000 
     66 N          37.5892   15.4096   77.1755 N.2       2 ALA2        0.0000 
     67 N          36.3450   15.5302   78.0046 N.2       2 ALA2        0.0000 
     68 CA         35.1008   15.6507   78.8337 C.3       5 GLY6        0.0000 
     69 CZ         37.7962   14.0154   77.6887 C.ar      4 PHE5        0.0000 
     70 OG         39.4384   17.2234   76.9730 O.2       1 SER1        0.0000 
     71 O          39.6453   15.8292   77.4862 O.2       2 ALA2        0.0000 
     72 N          38.4011   15.9497   78.3153 N.2       2 ALA2        0.0000 
     73 N          37.1569   16.0702   79.1444 N.2       2 ALA2        0.0000 
     74 CA         38.6080   14.5555   78.8285 C.3       5 GLY6        0.0000 
     75 DU         38.0401   16.8768   72.2112 H         6 CUB7        0.0000 
     76 CA         36.7959   16.9974   73.0403 C.3       5 GLY6        0.0000 
     77 O          35.5517   17.1179   73.8694 O.2       2 ALA2        0.0000 
     78 O          31.8190   17.4795   76.3567 O.2       2 ALA2        0.0000 
     79 DU         38.2470   15.4826   72.7244 H         6 CUB7        0.0000 
     80 DU         37.0028   15.6032   73.5535 H         6 CUB7        0.0000 
     81 O          35.7586   15.7237   74.3826 O.2       2 ALA2        0.0000 
     82 O          34.5144   15.8442   75.2117 O.2       2 ALA2        0.0000 
     83 O          33.2702   15.9648   76.0408 O.2       2 ALA2        0.0000 
     84 CZ         32.0260   16.0853   76.8699 C.ar      4 PHE5        0.0000 
     85 CZ         30.7818   16.2058   77.6990 C.ar      4 PHE5        0.0000 
     86 CA         38.4540   14.0884   73.2376 C.3       5 GLY6        0.0000 
     87 CA         37.2097   14.2090   74.0667 C.3       5 GLY6        0.0000 
     88 DU         35.9655   14.3295   74.8958 H         6 CUB7        0.0000 
     89 DU         34.7213   14.4500   75.7249 H         6 CUB7        0.0000 
     90 CZ         33.4771   14.5706   76.5540 C.ar      4 PHE5        0.0000 
     91 CZ         32.2329   14.6911   77.3831 C.ar      4 PHE5        0.0000 
     92 CA         37.4167   12.8148   74.5799 C.3       5 GLY6        0.0000 
     93 N          36.1725   12.9353   75.4090 N.2       2 ALA2        0.0000 
     94 N          34.9282   13.0558   76.2381 N.2       2 ALA2        0.0000 
     95 CZ         33.6840   13.1764   77.0672 C.ar      4 PHE5        0.0000 
     96 N          35.1352   11.6616   76.7513 N.2       2 ALA2        0.0000 
@<TRIPOS>BOND
@<TRIPOS>SUBSTRUCTURE
     1 SER1       33 GROUP   
     2 ALA2        6 GROUP   
     3 LYS4       35 GROUP   
     4 PHE5        8 GROUP   
     5 GLY6        1 GROUP   
     6 CUB7        3 GROUP   
@<TRIPOS>SET

