#    Name: 4fse_0VA_4_INTS_M
#    Modification time : Mon Mar 24 20:40:00 2014

@<TRIPOS>MOLECULE
4fse_0VA_4_INTS_M
   77     0    12     0     0
SMALL
NO_CHARGES


@<TRIPOS>ATOM
      1 CA         35.3370   22.3120   71.7980 C.3       4 GLC5        0.0000 
      2 CA         34.9360   20.2110   71.2150 C.3      12 GLL5        0.0000 
      3 CA         35.7380   24.4130   72.3810 C.3       8 GLP5        0.0000 
      4 OD1        32.7490   18.8850   79.9065 O.co2     3 ASC3        0.0000 
      5 OD1        32.3070   19.0800   78.1550 O.co2    11 ASL3        0.0000 
      6 OD1        33.1910   18.6900   81.6580 O.co2     7 ASP3        0.0000 
      7 OD1        32.4440   17.9105   80.2950 O.co2     3 ASC3        0.0000 
      8 OD1        31.8510   17.0410   81.1960 O.co2     7 ASP3        0.0000 
      9 OD1        33.0920   20.8815   78.8700 O.co2     3 ASC3        0.0000 
     10 OD1        33.9840   21.3700   80.2220 O.co2     7 ASP3        0.0000 
     11 OD1        33.1790   22.3740   78.4360 O.co2     7 ASP3        0.0000 
     12 CA         28.3250   23.0295   78.2810 C.3       4 GLC5        0.0000 
     13 CA         29.6620   22.7770   77.4710 C.3      12 GLL5        0.0000 
     14 CA         26.9880   23.2820   79.0910 C.3       8 GLP5        0.0000 
     15 CA         35.1255   17.5335   70.3725 C.3       4 GLC5        0.0000 
     16 CA         36.7610   18.5010   70.7820 C.3      12 GLL5        0.0000 
     17 CA         33.4900   16.5660   69.9630 C.3       8 GLP5        0.0000 
     18 CA         30.0350   16.5815   77.1470 C.3       4 GLC5        0.0000 
     19 CA         31.5800   16.6380   77.8980 C.3      12 GLL5        0.0000 
     20 CA         28.4900   16.5250   76.3960 C.3       8 GLP5        0.0000 
     21 CA         31.6975   15.2730   79.4350 C.3       4 GLC5        0.0000 
     22 CA         31.8150   13.9080   80.9720 C.3       8 GLP5        0.0000 
     23 O          33.0920   20.8815   78.8700 O.2       1 ALC1        0.0000 
     24 O          32.2000   20.3930   77.5180 O.2       9 ALL1        0.0000 
     25 O          33.9840   21.3700   80.2220 O.2       5 ALP1        0.0000 
     26 O          32.6895   21.3835   77.9770 O.2       1 ALC1        0.0000 
     27 O          33.1790   22.3740   78.4360 O.2       5 ALP1        0.0000 
     28 O          35.2255   11.2695   74.8345 O.2       1 ALC1        0.0000 
     29 O          34.9140   12.7720   74.5070 O.2       9 ALL1        0.0000 
     30 O          35.5370    9.7670   75.1620 O.2       5 ALP1        0.0000 
     31 O          32.4440   17.9105   80.2950 O.2       1 ALC1        0.0000 
     32 O          33.0370   18.7800   79.3940 O.2       9 ALL1        0.0000 
     33 O          31.8510   17.0410   81.1960 O.2       5 ALP1        0.0000 
     34 O          33.5105   20.0750   79.8080 O.2       1 ALC1        0.0000 
     35 N          31.7625   18.6270   74.5380 N.am      2 SEC2        0.0000 
     36 N          30.8290   19.4000   75.7570 N.am     10 SEL2        0.0000 
     37 N          32.6960   17.8540   73.3190 N.am      6 SEP2        0.0000 
     38 CA         30.6115   24.8635   76.8465 C.3       4 GLC5        0.0000 
     39 CA         30.2110   24.2220   74.9650 C.3      12 GLL5        0.0000 
     40 CA         31.0120   25.5050   78.7280 C.3       8 GLP5        0.0000 
     41 CA         29.2330   25.2840   73.2835 C.3       4 GLC5        0.0000 
     42 CA         28.2550   26.3460   71.6020 C.3       8 GLP5        0.0000 
     43 CA         31.8120   25.3075   75.0590 C.3       4 GLC5        0.0000 
     44 CA         33.4130   26.3930   75.1530 C.3       8 GLP5        0.0000 
     45 CA         30.4435   14.2255   73.8875 C.3       4 GLC5        0.0000 
     46 CA         32.0060   13.7300   73.4430 C.3      12 GLL5        0.0000 
     47 CA         28.8810   14.7210   74.3320 C.3       8 GLP5        0.0000 
     48 CA         31.4885   13.2170   71.9740 C.3       4 GLC5        0.0000 
     49 CA         30.9710   12.7040   70.5050 C.3       8 GLP5        0.0000 
     50 CA         31.9495   12.2165   74.8525 C.3       4 GLC5        0.0000 
     51 CA         31.8930   10.7030   76.2620 C.3       8 GLP5        0.0000 
     52 CA         35.9825   13.7975   79.0295 C.3       4 GLC5        0.0000 
     53 CA         36.2180   13.6950   77.2330 C.3      12 GLL5        0.0000 
     54 CA         35.7470   13.9000   80.8260 C.3       8 GLP5        0.0000 
     55 CA         37.9770   12.8955   76.3390 C.3       4 GLC5        0.0000 
     56 CA         39.7360   12.0960   75.4450 C.3       8 GLP5        0.0000 
     57 CA         36.9985   12.2350   77.8755 C.3       4 GLC5        0.0000 
     58 CA         37.7790   10.7750   78.5180 C.3       8 GLP5        0.0000 
     59 CA         31.9158   20.5373   69.9640 C.3       4 GLC5        0.0000 
     60 CA         33.6760   20.7910   70.5480 C.3      12 GLL5        0.0000 
     61 CA         30.7120   19.9370   68.9730 C.3       8 GLP5        0.0000 
     62 CA         34.1595   23.0023   72.2535 C.3       4 GLC5        0.0000 
     63 CA         32.5630   21.4840   71.3620 C.3      12 GLL5        0.0000 
     64 CA         35.7193   21.6943   74.3840 C.3       4 GLC5        0.0000 
     65 CA         33.8830   21.0820   73.4930 C.3      12 GLL5        0.0000 
     66 CA         36.9920   22.6570   75.6560 C.3       8 GLP5        0.0000 
     67 CA         35.0922   22.5723   72.7465 C.3       4 GLC5        0.0000 
     68 CA         33.8980   18.5335   70.4222 C.3       4 GLC5        0.0000 
     69 CA         35.0035   14.3015   78.9870 C.3       4 GLC5        0.0000 
     70 CA         34.6330   14.2230   76.6960 C.3      12 GLL5        0.0000 
     71 CA         32.5053   14.6665   79.1880 C.3       4 GLC5        0.0000 
     72 CA         33.8870   15.1830   77.6000 C.3      12 GLL5        0.0000 
     73 CA         32.8287   15.1898   72.8360 C.3       4 GLC5        0.0000 
     74 CA         32.7630   14.2370   74.9730 C.3      12 GLL5        0.0000 
     75 CA         33.2730   16.3960   71.4640 C.3       8 GLP5        0.0000 
     76 CA         30.5070   24.1620   77.7580 C.3       4 GLC5        0.0000 
     77 CA         30.3420   22.8610   76.1050 C.3      12 GLL5        0.0000 
@<TRIPOS>BOND
@<TRIPOS>SUBSTRUCTURE
     1 ALC1       23 GROUP        1 X    ALC  0     ROOT ALC X 1
     2 SEC2       35 GROUP        1 X    SEC  0     **** SEC X 2
     3 ASC3        4 GROUP        1 X    ASC  0     **** ASC X 3
     4 GLC5        1 GROUP        1 X    GLC  0     **** GLC X 6
     5 ALP1       25 GROUP        1 Y    ALP  0     ROOT ALP Y 8
     6 SEP2       37 GROUP        1 Y    SEP  0     **** SEP Y 9
     7 ASP3        6 GROUP        1 Y    ASP  0     **** ASP Y 10
     8 GLP5        3 GROUP        1 Y    GLP  0     **** GLP Y 13
     9 ALL1       24 GROUP        1 Z    ALL  0     ROOT ALL Z 15
    10 SEL2       36 GROUP        1 Z    SEL  0     **** SEL Z 16
    11 ASL3        5 GROUP        1 Z    ASL  0     **** ASL Z 17
    12 GLL5        2 GROUP        1 Z    GLL  0     **** GLL Z 20
@<TRIPOS>SET

