#    Name: 4fse_0VA_4_ligand
#    Modification time : Mon Mar 24 20:40:00 2014

@<TRIPOS>MOLECULE
4fse_0VA_4_ligand
   50    52     1     0     0
SMALL
NO_CHARGES


@<TRIPOS>ATOM
      1 C01        32.5630   21.4840   71.3620 C.ar      1 0VA501      0.0000 
      2 C02        33.8830   21.0820   73.4930 C.ar      1 0VA501      0.0000 
      3 C03        33.6760   20.7910   70.5480 C.ar      1 0VA501      0.0000 
      4 C04        35.0100   20.3810   72.7310 C.ar      1 0VA501      0.0000 
      5 C05        31.9790   15.1890   75.8620 C.ar      1 0VA501      0.0000 
      6 C06        33.8870   15.1830   77.6000 C.ar      1 0VA501      0.0000 
      7 C07        32.5990   21.6990   72.8900 C.ar      1 0VA501      0.0000 
      8 C08        31.1810   21.8330   75.3890 C.2       1 0VA501      0.0000 
      9 C09        32.5040   15.6670   77.2080 C.ar      1 0VA501      0.0000 
     10 C10        34.1360   13.7050   75.3570 C.ar      1 0VA501      0.0000 
     11 C11        34.9360   20.2110   71.2150 C.ar      1 0VA501      0.0000 
     12 C12        32.7630   14.2370   74.9730 C.ar      1 0VA501      0.0000 
     13 C13        34.6330   14.2230   76.6960 C.ar      1 0VA501      0.0000 
     14 C14        31.7640   22.2570   74.0490 C.2       1 0VA501      0.0000 
     15 C15        30.3420   22.8610   76.1050 C.2       1 0VA501      0.0000 
     16 C16        31.4760   20.5960   76.2280 C.2       1 0VA501      0.0000 
     17 C17        32.3070   19.0800   78.1550 C.cat     1 0VA501      0.0000 
     18 C18        29.6620   22.7770   77.4710 C.3       1 0VA501      0.0000 
     19 C19        36.7610   18.5010   70.7820 C.3       1 0VA501      0.0000 
     20 C20        31.5800   16.6380   77.8980 C.3       1 0VA501      0.0000 
     21 N21        31.1520   23.5880   73.7820 N.2       1 0VA501      0.0000 
     22 N22        32.2000   20.3930   77.5180 N.am      1 0VA501      0.0000 
     23 N23        34.9140   12.7720   74.5070 N.pl3     1 0VA501      0.0000 
     24 N24        33.0370   18.7800   79.3940 N.pl3     1 0VA501      0.0000 
     25 N25        31.5700   18.0370   77.4470 N.pl3     1 0VA501      0.0000 
     26 O26        30.8290   19.4000   75.7570 O.2       1 0VA501      0.0000 
     27 O27        35.9110   19.5830   70.3740 O.3       1 0VA501      0.0000 
     28 S28        30.2110   24.2220   74.9650 S.3       1 0VA501      0.0000 
     29 CL1        32.0060   13.7300   73.4430 Cl        1 0VA501      0.0000 
     30 CL2        36.2180   13.6950   77.2330 Cl        1 0VA501      0.0000 
     31 H          31.7512   21.8218   70.8578 H         1 0VA501      0.0000 
     32 H          33.9848   21.1538   74.5185 H         1 0VA501      0.0000 
     33 H          33.5743   20.7177   69.5616 H         1 0VA501      0.0000 
     34 H          35.7916   20.0359   73.2252 H         1 0VA501      0.0000 
     35 H          31.0825   15.5144   75.5504 H         1 0VA501      0.0000 
     36 H          34.2982   15.4923   78.4399 H         1 0VA501      0.0000 
     37 H          31.8073   16.6045   79.0057 H         1 0VA501      0.0000 
     38 H          30.5308   16.2191   77.8386 H         1 0VA501      0.0000 
     39 H          32.6287   21.2018   77.9587 H         1 0VA501      0.0000 
     40 H          35.1342   11.8855   74.9140 H         1 0VA501      0.0000 
     41 H          35.1556   13.1046   73.5954 H         1 0VA501      0.0000 
     42 H          33.0379   17.8228   79.6834 H         1 0VA501      0.0000 
     43 H          33.4734   19.5575   79.8468 H         1 0VA501      0.0000 
     44 H          31.0335   18.2812   76.6181 H         1 0VA501      0.0000 
     45 H          30.3222   22.6197   78.2055 H         1 0VA501      0.0000 
     46 H          29.1708   23.6191   77.6938 H         1 0VA501      0.0000 
     47 H          28.9973   22.0309   77.5097 H         1 0VA501      0.0000 
     48 H          37.3720   18.2107   70.0455 H         1 0VA501      0.0000 
     49 H          37.3378   18.7543   71.5586 H         1 0VA501      0.0000 
     50 H          36.2331   17.6980   71.0586 H         1 0VA501      0.0000 
@<TRIPOS>BOND
     1    3    1 ar   
     2    7    1 ar   
     3   31    1 1    
     4    4    2 ar   
     5    7    2 ar   
     6   32    2 1    
     7   11    3 ar   
     8   33    3 1    
     9   11    4 ar   
    10   34    4 1    
    11    9    5 ar   
    12   12    5 ar   
    13   35    5 1    
    14    9    6 ar   
    15   13    6 ar   
    16   36    6 1    
    17   14    7 1    
    18   14    8 1    
    19   15    8 2    
    20   16    8 1    
    21   20    9 1    
    22   12   10 ar   
    23   13   10 ar   
    24   23   10 1    
    25   27   11 1    
    26   29   12 1    
    27   30   13 1    
    28   21   14 2    
    29   18   15 1    
    30   28   15 1    
    31   22   16 am   
    32   26   16 2    
    33   22   17 1    
    34   24   17 ar   
    35   25   17 ar   
    36   45   18 1    
    37   46   18 1    
    38   47   18 1    
    39   27   19 1    
    40   48   19 1    
    41   49   19 1    
    42   50   19 1    
    43   25   20 1    
    44   37   20 1    
    45   38   20 1    
    46   28   21 1    
    47   39   22 1    
    48   40   23 1    
    49   41   23 1    
    50   42   24 1    
    51   43   24 1    
    52   44   25 1    
@<TRIPOS>SUBSTRUCTURE
     1 0VA501      1 GROUP   
@<TRIPOS>SET

