#    Name: 4a4o_664_1_INTS_M
#    Modification time : Tue Mar 25 04:54:55 2014

@<TRIPOS>MOLECULE
4a4o_664_1_INTS_M
  101     0    12     0     0
SMALL
NO_CHARGES


@<TRIPOS>ATOM
      1 N          10.8325   41.8605    6.8795 N.am      2 SEC2        0.0000 
      2 N          10.6770   42.6400    8.1170 N.am     10 SEL2        0.0000 
      3 N          10.9880   41.0810    5.6420 N.am      6 SEP2        0.0000 
      4 CA         12.7865   44.2015    8.9435 C.3       4 GLC5        0.0000 
      5 CA         10.8770   44.0220    8.3330 C.3      12 GLL5        0.0000 
      6 CA         14.6960   44.3810    9.5540 C.3       8 GLP5        0.0000 
      7 CA         11.9100   42.4275    9.4570 C.3       4 GLC5        0.0000 
      8 CA         12.9430   40.8330   10.5810 C.3       8 GLP5        0.0000 
      9 CA          9.9510   43.1965    6.6870 C.3       4 GLC5        0.0000 
     10 CA          9.0250   42.3710    5.0410 C.3       8 GLP5        0.0000 
     11 CA         11.1040   40.5765    7.8360 C.3       4 GLC5        0.0000 
     12 CA         10.0820   41.9210    9.0040 C.3      12 GLL5        0.0000 
     13 CA         12.1260   39.2320    6.6680 C.3       8 GLP5        0.0000 
     14 CA          9.5535   42.1460    7.0225 C.3       4 GLC5        0.0000 
     15 O          11.4915   44.3270    5.9665 O.2       1 ALC1        0.0000 
     16 O          11.5380   44.7730    7.3180 O.2       9 ALL1        0.0000 
     17 O          11.4450   43.8810    4.6150 O.2       5 ALP1        0.0000 
     18 CA          9.4900   41.2620   11.9915 C.3       4 GLC5        0.0000 
     19 CA          9.6000   42.5410   10.2550 C.3      12 GLL5        0.0000 
     20 CA          9.3800   39.9830   13.7280 C.3       8 GLP5        0.0000 
     21 CA         13.2790   45.2760    8.4710 C.3       4 GLC5        0.0000 
     22 CA         11.8620   46.1710    7.3880 C.3      12 GLL5        0.0000 
     23 CA         14.7135   46.3280    7.8595 C.3       4 GLC5        0.0000 
     24 CA         13.1030   46.5870    6.9840 C.3      12 GLL5        0.0000 
     25 CA         16.3240   46.0690    8.7350 C.3       8 GLP5        0.0000 
     26 CA         12.4980   47.8010    5.4040 C.3       4 GLC5        0.0000 
     27 CA         11.8930   49.0150    3.8240 C.3       8 GLP5        0.0000 
     28 CA         10.7995   48.7675    6.0300 C.3       4 GLC5        0.0000 
     29 CA         11.1980   48.4970    7.9410 C.3      12 GLL5        0.0000 
     30 CA         10.4010   49.0380    4.1190 C.3       8 GLP5        0.0000 
     31 CA          9.3310   48.4010    6.2740 C.3       4 GLC5        0.0000 
     32 CA          8.7950   49.1770    8.2200 C.3      12 GLL5        0.0000 
     33 CA          9.8670   47.6250    4.3280 C.3       8 GLP5        0.0000 
     34 CA          5.7245   50.3570    9.0585 C.3       4 GLC5        0.0000 
     35 CA          7.9090   49.9670    9.2000 C.3      12 GLL5        0.0000 
     36 CA          3.5400   50.7470    8.9170 C.3       8 GLP5        0.0000 
     37 OD1         8.2420   51.2905    7.4915 O.co2     3 ASC3        0.0000 
     38 OD1         8.4090   51.3520    9.3020 O.co2    11 ASL3        0.0000 
     39 OD1         8.0750   51.2290    5.6810 O.co2     7 ASP3        0.0000 
     40 OD1         8.4930   52.1000    8.1950 O.co2     3 ASC3        0.0000 
     41 OD1         8.5770   52.8480    7.0880 O.co2     7 ASP3        0.0000 
     42 O           8.4930   52.1000    8.1950 O.2       1 ALC1        0.0000 
     43 O           8.4090   51.3520    9.3020 O.2       9 ALL1        0.0000 
     44 O           8.5770   52.8480    7.0880 O.2       5 ALP1        0.0000 
     45 CA          6.4495   53.4075    9.3805 C.3       4 GLC5        0.0000 
     46 CA          7.4900   52.1480   10.1110 C.3      12 GLL5        0.0000 
     47 CA          5.4090   54.6670    8.6500 C.3       8 GLP5        0.0000 
     48 CA          5.5150   51.4475    9.5140 C.3       4 GLC5        0.0000 
     49 CA         12.0225   45.9835    2.6265 C.3       4 GLC5        0.0000 
     50 CA         13.2590   45.8580    4.2880 C.3      12 GLL5        0.0000 
     51 CA         10.7860   46.1090    0.9650 C.3       8 GLP5        0.0000 
     52 CA         15.2280   42.4685    5.0510 C.3       4 GLC5        0.0000 
     53 CA         14.9710   44.4510    4.7260 C.3      12 GLL5        0.0000 
     54 CA         15.4850   40.4860    5.3760 C.3       8 GLP5        0.0000 
     55 CA          8.8910   42.0265   13.1430 C.3       4 GLC5        0.0000 
     56 CA          8.4020   44.0700   12.5580 C.3      12 GLL5        0.0000 
     57 CA          8.4600   44.0365   15.4770 C.3       4 GLC5        0.0000 
     58 CA          8.2460   45.0960   13.6040 C.3      12 GLL5        0.0000 
     59 CA          8.6740   42.9770   17.3500 C.3       8 GLP5        0.0000 
     60 CA         10.9055   48.5095   13.5070 C.3       4 GLC5        0.0000 
     61 CA          9.1450   47.3680   14.2190 C.3      12 GLL5        0.0000 
     62 CA         12.6660   49.6510   12.7950 C.3       8 GLP5        0.0000 
     63 CA          7.8545   48.6275   16.5445 C.3       4 GLC5        0.0000 
     64 CA          8.0320   47.3960   15.3420 C.3      12 GLL5        0.0000 
     65 CA          7.6770   49.8590   17.7470 C.3       8 GLP5        0.0000 
     66 N           6.4795   44.0535   16.3735 N.am      2 SEC2        0.0000 
     67 N           6.5320   44.1890   14.9290 N.am     10 SEL2        0.0000 
     68 N           6.4270   43.9180   17.8180 N.am      6 SEP2        0.0000 
     69 CA         12.7030   46.7455   11.0140 C.3       4 GLC5        0.0000 
     70 CA         10.7230   46.7590   11.5760 C.3      12 GLL5        0.0000 
     71 CA         14.6830   46.7320   10.4520 C.3       8 GLP5        0.0000 
     72 CA         11.6945   48.2050   12.1855 C.3       4 GLC5        0.0000 
     73 CA         11.7755   46.0545   13.0905 C.3       4 GLC5        0.0000 
     74 CA         12.8280   45.3500   14.6050 C.3       8 GLP5        0.0000 
     75 CA          8.9750   46.3625   10.4315 C.3       4 GLC5        0.0000 
     76 CA          7.2270   45.9660    9.2870 C.3       8 GLP5        0.0000 
     77 CA         10.9825   44.0070   12.4430 C.3       4 GLC5        0.0000 
     78 CA          9.8000   43.8630   10.4470 C.3      12 GLL5        0.0000 
     79 CA         12.4020   43.8010   13.8140 C.3       8 GLP5        0.0000 
     80 CA         11.3818   41.9400   10.3096 C.3       4 GLC5        0.0000 
     81 CA         10.6193   47.1482    5.9820 C.3       4 GLC5        0.0000 
     82 CA         13.8440   47.6163    8.8647 C.3       4 GLC5        0.0000 
     83 CA         12.5550   48.9470    7.5030 C.3      12 GLL5        0.0000 
     84 CA         12.8110   49.3878    5.7632 C.3       4 GLC5        0.0000 
     85 CA         13.4550   48.0540    7.0520 C.3      12 GLL5        0.0000 
     86 CA         12.6170   50.2750    4.2490 C.3       8 GLP5        0.0000 
     87 CA          7.0850   49.2650    7.4775 C.3       4 GLC5        0.0000 
     88 CA          5.8180   48.9580    6.2450 C.3       8 GLP5        0.0000 
     89 CA          7.7895   47.7690    8.9985 C.3       4 GLC5        0.0000 
     90 CA         11.4483   50.3305   11.1445 C.3       4 GLC5        0.0000 
     91 CA          9.7140   51.3240    9.9620 C.3      12 GLL5        0.0000 
     92 CA         15.5873   46.1170    6.8520 C.3       4 GLC5        0.0000 
     93 CA         14.3900   45.6570    5.0820 C.3      12 GLL5        0.0000 
     94 CA         12.9739   47.5132    4.2263 C.3       4 GLC5        0.0000 
     95 CA         13.6759   44.2126    3.5323 C.3       4 GLC5        0.0000 
     96 CA         12.9540   43.3210    2.3590 C.3       8 GLP5        0.0000 
     97 CA         10.3630   44.1920   13.4475 C.3       4 GLC5        0.0000 
     98 CA         10.9627   46.0487   14.1947 C.3       4 GLC5        0.0000 
     99 CA          9.0500   46.1270   13.3500 C.3      12 GLL5        0.0000 
    100 CA          9.8412   48.5885   15.4848 C.3       4 GLC5        0.0000 
    101 CA         11.0940   49.7950   16.1890 C.3       8 GLP5        0.0000 
@<TRIPOS>BOND
@<TRIPOS>SUBSTRUCTURE
     1 ALC1       15 GROUP        1 X    ALC  0     ROOT ALC X 1
     2 SEC2        1 GROUP        1 X    SEC  0     **** SEC X 2
     3 ASC3       37 GROUP        1 X    ASC  0     **** ASC X 3
     4 GLC5        4 GROUP        1 X    GLC  0     **** GLC X 6
     5 ALP1       17 GROUP        1 Y    ALP  0     ROOT ALP Y 8
     6 SEP2        3 GROUP        1 Y    SEP  0     **** SEP Y 9
     7 ASP3       39 GROUP        1 Y    ASP  0     **** ASP Y 10
     8 GLP5        6 GROUP        1 Y    GLP  0     **** GLP Y 13
     9 ALL1       16 GROUP        1 Z    ALL  0     ROOT ALL Z 15
    10 SEL2        2 GROUP        1 Z    SEL  0     **** SEL Z 16
    11 ASL3       38 GROUP        1 Z    ASL  0     **** ASL Z 17
    12 GLL5        5 GROUP        1 Z    GLL  0     **** GLL Z 20
@<TRIPOS>SET

