#    Name: 4a4o_664_1_ligand
#    Modification time : Tue Mar 25 04:54:55 2014

@<TRIPOS>MOLECULE
4a4o_664_1_ligand
   63    67     1     0     0
SMALL
NO_CHARGES


@<TRIPOS>ATOM
      1 N1         10.6770   42.6400    8.1170 N.ar      1 6641332     0.0000 
      2 C2         10.8770   44.0220    8.3330 C.ar      1 6641332     0.0000 
      3 C6         10.0820   41.9210    9.0040 C.ar      1 6641332     0.0000 
      4 N3         10.4630   44.5850    9.4260 N.ar      1 6641332     0.0000 
      5 N7         11.5380   44.7730    7.3180 N.pl3     1 6641332     0.0000 
      6 C4          9.8000   43.8630   10.4470 C.ar      1 6641332     0.0000 
      7 C5          9.6000   42.5410   10.2550 C.ar      1 6641332     0.0000 
      8 C26         9.3260   44.5630   11.6970 C.2       1 6641332     0.0000 
      9 C8         11.8620   46.1710    7.3880 C.ar      1 6641332     0.0000 
     10 C10        13.4550   48.0540    7.0520 C.ar      1 6641332     0.0000 
     11 C9         13.1030   46.5870    6.9840 C.ar      1 6641332     0.0000 
     12 C11        12.5550   48.9470    7.5030 C.ar      1 6641332     0.0000 
     13 C13        10.8810   47.1720    7.8840 C.ar      1 6641332     0.0000 
     14 C12        11.1980   48.4970    7.9410 C.ar      1 6641332     0.0000 
     15 O14        14.0210   45.5940    6.5010 O.3       1 6641332     0.0000 
     16 N15        10.2500   49.4520    8.4050 N.3       1 6641332     0.0000 
     17 C16         8.7950   49.1770    8.2200 C.3       1 6641332     0.0000 
     18 C17         7.9090   49.9670    9.2000 C.3       1 6641332     0.0000 
     19 N18         8.4090   51.3520    9.3020 N.4       1 6641332     0.0000 
     20 C19         9.7140   51.3240    9.9620 C.3       1 6641332     0.0000 
     21 C20        10.7470   50.6960    9.0260 C.3       1 6641332     0.0000 
     22 C21         7.4900   52.1480   10.1110 C.3       1 6641332     0.0000 
     23 C22        14.3900   45.6570    5.0820 C.3       1 6641332     0.0000 
     24 F23        15.3110   46.6730    4.8560 F         1 6641332     0.0000 
     25 F24        13.2590   45.8580    4.2880 F         1 6641332     0.0000 
     26 F25        14.9710   44.4510    4.7260 F         1 6641332     0.0000 
     27 N27         9.7520   45.8590   12.1770 N.pl3     1 6641332     0.0000 
     28 C28         8.4020   44.0700   12.5580 C.2       1 6641332     0.0000 
     29 C29         8.2460   45.0960   13.6040 C.2       1 6641332     0.0000 
     30 C30         9.0500   46.1270   13.3500 C.2       1 6641332     0.0000 
     31 C31         9.1450   47.3680   14.2190 C.3       1 6641332     0.0000 
     32 C32         8.0320   47.3960   15.3420 C.3       1 6641332     0.0000 
     33 N33         7.4530   46.0730   15.6860 N.am      1 6641332     0.0000 
     34 C34         7.3580   45.0780   14.7740 C.2       1 6641332     0.0000 
     35 O35         6.5320   44.1890   14.9290 O.2       1 6641332     0.0000 
     36 C36        10.7230   46.7590   11.5760 C.3       1 6641332     0.0000 
     37 H           9.9010   40.9058    8.9211 H         1 6641332     0.0000 
     38 H          11.8154   44.2618    6.4366 H         1 6641332     0.0000 
     39 H           9.1340   41.9358   10.9221 H         1 6641332     0.0000 
     40 H          14.3955   48.2957    6.7388 H         1 6641332     0.0000 
     41 H          12.7362   49.9515    7.5717 H         1 6641332     0.0000 
     42 H           9.9679   46.8076    8.1749 H         1 6641332     0.0000 
     43 H           8.5924   48.1050    8.3612 H         1 6641332     0.0000 
     44 H           8.4892   49.4354    7.1954 H         1 6641332     0.0000 
     45 H           7.9432   49.4711   10.1669 H         1 6641332     0.0000 
     46 H           6.8882   49.9507    8.8264 H         1 6641332     0.0000 
     47 H           8.5045   51.7744    8.3231 H         1 6641332     0.0000 
     48 H           9.6762   50.7319   10.8773 H         1 6641332     0.0000 
     49 H          10.0467   52.3322   10.2126 H         1 6641332     0.0000 
     50 H          11.0046   51.4337    8.2519 H         1 6641332     0.0000 
     51 H          11.6606   50.4962    9.6050 H         1 6641332     0.0000 
     52 H           7.9324   43.2746   12.5532 H         1 6641332     0.0000 
     53 H           9.0243   48.2641   13.6104 H         1 6641332     0.0000 
     54 H          10.1156   47.4083   14.7133 H         1 6641332     0.0000 
     55 H           7.2423   48.0889   14.9938 H         1 6641332     0.0000 
     56 H           8.4881   47.8662   16.2341 H         1 6641332     0.0000 
     57 H           7.1301   45.9647   16.6615 H         1 6641332     0.0000 
     58 H           7.3996   51.7832   11.0377 H         1 6641332     0.0000 
     59 H           7.7971   53.0957   10.1977 H         1 6641332     0.0000 
     60 H           6.5722   52.1724    9.7148 H         1 6641332     0.0000 
     61 H          11.6250   46.3342   11.4987 H         1 6641332     0.0000 
     62 H          10.4506   47.0380   10.6552 H         1 6641332     0.0000 
     63 H          10.8375   47.5944   12.1136 H         1 6641332     0.0000 
@<TRIPOS>BOND
     1    2    1 ar   
     2    3    1 ar   
     3    4    2 ar   
     4    5    2 1    
     5    7    3 ar   
     6   37    3 1    
     7    6    4 ar   
     8    9    5 1    
     9   38    5 1    
    10    7    6 ar   
    11    8    6 1    
    12   39    7 1    
    13   27    8 1    
    14   28    8 2    
    15   11    9 ar   
    16   13    9 ar   
    17   11   10 ar   
    18   12   10 ar   
    19   40   10 1    
    20   15   11 1    
    21   14   12 ar   
    22   41   12 1    
    23   14   13 ar   
    24   42   13 1    
    25   16   14 1    
    26   23   15 1    
    27   17   16 1    
    28   21   16 1    
    29   18   17 1    
    30   43   17 1    
    31   44   17 1    
    32   19   18 1    
    33   45   18 1    
    34   46   18 1    
    35   20   19 1    
    36   22   19 1    
    37   47   19 1    
    38   21   20 1    
    39   48   20 1    
    40   49   20 1    
    41   50   21 1    
    42   51   21 1    
    43   58   22 1    
    44   59   22 1    
    45   60   22 1    
    46   24   23 1    
    47   25   23 1    
    48   26   23 1    
    49   30   27 1    
    50   36   27 1    
    51   29   28 1    
    52   52   28 1    
    53   30   29 2    
    54   34   29 1    
    55   31   30 1    
    56   32   31 1    
    57   53   31 1    
    58   54   31 1    
    59   33   32 1    
    60   55   32 1    
    61   56   32 1    
    62   34   33 am   
    63   57   33 1    
    64   35   34 2    
    65   61   36 1    
    66   62   36 1    
    67   63   36 1    
@<TRIPOS>SUBSTRUCTURE
     1 6641332     1 GROUP   
@<TRIPOS>SET

