#    Name: 3clh_NAD_2_INTS_M
#    Modification time : Mon Mar 24 21:50:11 2014

@<TRIPOS>MOLECULE
3clh_NAD_2_INTS_M
   82     0     9     0     0
SMALL
NO_CHARGES


@<TRIPOS>ATOM
      1 N          -7.7590  -23.4355   21.3230 N.am      2 SEC2        0.0000 
      2 N          -9.1550  -23.1930   20.4080 N.am      8 SEL2        0.0000 
      3 N          -6.3630  -23.6780   22.2380 N.am      5 SEP2        0.0000 
      4 CA        -12.0345  -24.2380   18.1455 C.3       3 GLC5        0.0000 
      5 CA        -11.6450  -22.2160   17.6480 C.3       9 GLL5        0.0000 
      6 CA        -12.4240  -26.2600   18.6430 C.3       6 GLP5        0.0000 
      7 O         -13.4675  -18.6580   20.2490 O.2       1 ALC1        0.0000 
      8 O         -12.9970  -19.4200   19.2740 O.2       7 ALL1        0.0000 
      9 O         -13.9380  -17.8960   21.2240 O.2       4 ALP1        0.0000 
     10 O         -14.2750  -19.1730   21.1130 O.2       1 ALC1        0.0000 
     11 O         -14.6120  -20.4500   21.0020 O.2       7 ALL1        0.0000 
     12 N         -14.5535  -26.3455   21.8360 N.am      2 SEC2        0.0000 
     13 N         -15.1750  -25.4470   21.0080 N.am      8 SEL2        0.0000 
     14 N         -13.9320  -27.2440   22.6640 N.am      5 SEP2        0.0000 
     15 CA        -18.6110  -26.8045   22.2505 C.3       3 GLC5        0.0000 
     16 CA        -17.5930  -26.0090   20.6310 C.3       9 GLL5        0.0000 
     17 CA        -19.6290  -27.6000   23.8700 C.3       6 GLP5        0.0000 
     18 O         -18.0945  -28.5345   20.5840 O.2       1 ALC1        0.0000 
     19 O         -17.5250  -27.2790   21.0170 O.2       7 ALL1        0.0000 
     20 O         -18.6640  -29.7900   20.1510 O.2       4 ALP1        0.0000 
     21 O         -19.1440  -27.3645   20.6725 O.2       1 ALC1        0.0000 
     22 O         -20.7630  -27.4500   20.3280 O.2       4 ALP1        0.0000 
     23 N         -19.7590  -26.4945   20.1870 N.am      2 SEC2        0.0000 
     24 N         -18.7550  -25.5390   20.0460 N.am      8 SEL2        0.0000 
     25 N         -20.7630  -27.4500   20.3280 N.am      5 SEP2        0.0000 
     26 CA        -18.7895  -22.5845   20.4515 C.3       3 GLC5        0.0000 
     27 CA        -18.7580  -24.3240   19.3840 C.3       9 GLL5        0.0000 
     28 CA        -18.8210  -20.8450   21.5190 C.3       6 GLP5        0.0000 
     29 CA        -20.1405  -23.9400   20.7415 C.3       3 GLC5        0.0000 
     30 CA        -21.5230  -23.5560   22.0990 C.3       6 GLP5        0.0000 
     31 CA        -20.3790  -25.6905   19.5530 C.3       3 GLC5        0.0000 
     32 CA        -22.0000  -27.0570   19.7220 C.3       6 GLP5        0.0000 
     33 CA        -18.8705  -25.4340   17.7610 C.3       3 GLC5        0.0000 
     34 CA        -18.9830  -26.5440   16.1380 C.3       6 GLP5        0.0000 
     35 CA        -17.6340  -22.4365   20.6985 C.3       3 GLC5        0.0000 
     36 CA        -16.4470  -24.0280   19.8780 C.3       9 GLL5        0.0000 
     37 N          -8.3845  -25.7190   20.0665 N.am      2 SEC2        0.0000 
     38 N          -9.0710  -25.5000   18.7430 N.am      8 SEL2        0.0000 
     39 N          -7.6980  -25.9380   21.3900 N.am      5 SEP2        0.0000 
     40 N          -9.8320  -26.6160   18.9545 N.am      2 SEC2        0.0000 
     41 N         -10.5930  -27.7320   19.1660 N.am      5 SEP2        0.0000 
     42 N          -7.2045  -25.3220   19.9305 N.am      2 SEC2        0.0000 
     43 N          -6.7110  -24.7060   18.4710 N.am      8 SEL2        0.0000 
     44 CA         -5.7545  -25.8710   17.3060 C.3       3 GLC5        0.0000 
     45 CA         -5.6450  -24.0390   17.8290 C.3       9 GLL5        0.0000 
     46 CA         -5.8640  -27.7030   16.7830 C.3       6 GLP5        0.0000 
     47 N          -2.3975  -21.9255   20.1820 N.am      2 SEC2        0.0000 
     48 N          -3.2710  -21.7120   18.8140 N.am      8 SEL2        0.0000 
     49 N          -1.5240  -22.1390   21.5500 N.am      5 SEP2        0.0000 
     50 O          -4.0700  -20.6510   18.5390 O.2       1 ALC1        0.0000 
     51 O          -3.2710  -21.7120   18.8140 O.2       7 ALL1        0.0000 
     52 O          -4.8690  -19.5900   18.2640 O.2       4 ALP1        0.0000 
     53 N           0.2770  -22.7190   19.1210 N.am      2 SEC2        0.0000 
     54 N          -1.1110  -23.0650   19.0050 N.am      8 SEL2        0.0000 
     55 N           1.6650  -22.3730   19.2370 N.am      5 SEP2        0.0000 
     56 CA         -4.4200  -25.4640   20.4555 C.3       3 GLC5        0.0000 
     57 CA         -2.5930  -24.9320   19.3590 C.3       9 GLL5        0.0000 
     58 CA         -6.2470  -25.9960   21.5520 C.3       6 GLP5        0.0000 
     59 CA         -2.7540  -28.0270   20.1930 C.3       3 GLC5        0.0000 
     60 CA         -1.1620  -26.8830   19.7730 C.3       9 GLL5        0.0000 
     61 CA         -4.3460  -29.1710   20.6130 C.3       6 GLP5        0.0000 
     62 CA        -15.8928  -27.0097   21.7067 C.3       3 GLC5        0.0000 
     63 CA        -16.4280  -25.2480   20.5480 C.3       9 GLL5        0.0000 
     64 CA        -14.7750  -28.3910   22.8240 C.3       6 GLP5        0.0000 
     65 CA        -16.2324  -24.4661   22.1414 C.3       3 GLC5        0.0000 
     66 CA        -15.7360  -24.1040   24.0490 C.3       6 GLP5        0.0000 
     67 CA        -16.3114  -25.6506   18.7134 C.3       3 GLC5        0.0000 
     68 CA        -15.8940  -26.4730   17.1930 C.3       6 GLP5        0.0000 
     69 CA         -5.6697  -24.9437   19.9425 C.3       3 GLC5        0.0000 
     70 CA         -5.7917  -22.4253   19.6505 C.3       3 GLC5        0.0000 
     71 CA         -4.5400  -23.7440   18.8370 C.3       9 GLL5        0.0000 
     72 CA         -6.4910  -20.9590   20.9680 C.3       6 GLP5        0.0000 
     73 CA         -2.1830  -29.4445   19.7447 C.3       3 GLC5        0.0000 
     74 CA         -0.6280  -28.1230   19.4200 C.3       9 GLL5        0.0000 
     75 CA         -3.5510  -30.4720   20.6730 C.3       6 GLP5        0.0000 
     76 CA         -2.4315  -30.2395   17.2468 C.3       3 GLC5        0.0000 
     77 CA         -1.0020  -28.7110   18.2130 C.3       9 GLL5        0.0000 
     78 CA         -3.4100  -32.0950   16.6990 C.3       6 GLP5        0.0000 
     79 CA         -4.0135  -27.5707   17.1745 C.3       3 GLC5        0.0000 
     80 CA         -1.9040  -28.0570   17.3760 C.3       9 GLL5        0.0000 
     81 CA         -3.2545  -28.3047   19.0895 C.3       3 GLC5        0.0000 
     82 CA         -2.4220  -26.8200   17.7560 C.3       9 GLL5        0.0000 
@<TRIPOS>BOND
@<TRIPOS>SUBSTRUCTURE
     1 ALC1        7 GROUP        1 X    ALC  0     ROOT ALC X 1
     2 SEC2        1 GROUP        1 X    SEC  0     **** SEC X 2
     3 GLC5        4 GROUP        1 X    GLC  0     **** GLC X 6
     4 ALP1        9 GROUP        1 Y    ALP  0     ROOT ALP Y 8
     5 SEP2        3 GROUP        1 Y    SEP  0     **** SEP Y 9
     6 GLP5        6 GROUP        1 Y    GLP  0     **** GLP Y 13
     7 ALL1        8 GROUP        1 Z    ALL  0     ROOT ALL Z 15
     8 SEL2        2 GROUP        1 Z    SEL  0     **** SEL Z 16
     9 GLL5        5 GROUP        1 Z    GLL  0     **** GLL Z 20
@<TRIPOS>SET

