#    Name: 3clh_NAD_2_ligand
#    Modification time : Mon Mar 24 21:50:12 2014

@<TRIPOS>MOLECULE
3clh_NAD_2_ligand
   70    74     1     0     0
SMALL
NO_CHARGES


@<TRIPOS>ATOM
      1 PA         -9.5010  -22.5420   19.1240 P.3       1 NAD401      0.0000 
      2 O1A        -9.1550  -23.1930   20.4080 O.co2     1 NAD401      0.0000 
      3 O2A        -9.3140  -21.0770   19.2140 O.co2     1 NAD401      0.0000 
      4 O5B       -11.0200  -22.8970   18.7160 O.3       1 NAD401      0.0000 
      5 C5B       -11.6450  -22.2160   17.6480 C.3       1 NAD401      0.0000 
      6 C4B       -12.9240  -21.5060   18.0930 C.3       1 NAD401      0.0000 
      7 O4B       -13.9870  -22.4370   18.1970 O.3       1 NAD401      0.0000 
      8 C3B       -12.7890  -20.8030   19.4400 C.3       1 NAD401      0.0000 
      9 O3B       -12.9970  -19.4200   19.2740 O.3       1 NAD401      0.0000 
     10 C2B       -13.8570  -21.4260   20.3240 C.3       1 NAD401      0.0000 
     11 O2B       -14.6120  -20.4500   21.0020 O.3       1 NAD401      0.0000 
     12 C1B       -14.7440  -22.2150   19.3710 C.3       1 NAD401      0.0000 
     13 N9A       -15.1790  -23.5020   19.9530 N.pl3     1 NAD401      0.0000 
     14 C8A       -14.4080  -24.3920   20.6550 C.2       1 NAD401      0.0000 
     15 N7A       -15.1750  -25.4470   21.0080 N.2       1 NAD401      0.0000 
     16 C5A       -16.4280  -25.2480   20.5480 C.ar      1 NAD401      0.0000 
     17 C6A       -17.5930  -26.0090   20.6310 C.ar      1 NAD401      0.0000 
     18 N6A       -17.5250  -27.2790   21.0170 N.pl3     1 NAD401      0.0000 
     19 N1A       -18.7550  -25.5390   20.0460 N.ar      1 NAD401      0.0000 
     20 C2A       -18.7580  -24.3240   19.3840 C.ar      1 NAD401      0.0000 
     21 N3A       -17.5960  -23.5770   19.3070 N.ar      1 NAD401      0.0000 
     22 C4A       -16.4470  -24.0280   19.8780 C.ar      1 NAD401      0.0000 
     23 O3         -8.6190  -23.1550   17.9210 O.3       1 NAD401      0.0000 
     24 PN         -8.1980  -24.7100   17.8460 P.3       1 NAD401      0.0000 
     25 O1N        -9.0710  -25.5000   18.7430 O.co2     1 NAD401      0.0000 
     26 O2N        -8.1040  -25.0870   16.4170 O.co2     1 NAD401      0.0000 
     27 O5D        -6.7110  -24.7060   18.4710 O.3       1 NAD401      0.0000 
     28 C5D        -5.6450  -24.0390   17.8290 C.3       1 NAD401      0.0000 
     29 C4D        -4.5400  -23.7440   18.8370 C.3       1 NAD401      0.0000 
     30 O4D        -4.0090  -24.9510   19.3500 O.3       1 NAD401      0.0000 
     31 C3D        -3.3950  -22.9720   18.1970 C.3       1 NAD401      0.0000 
     32 O3D        -3.2710  -21.7120   18.8140 O.3       1 NAD401      0.0000 
     33 C2D        -2.1530  -23.8150   18.4220 C.3       1 NAD401      0.0000 
     34 O2D        -1.1110  -23.0650   19.0050 O.3       1 NAD401      0.0000 
     35 C1D        -2.5930  -24.9320   19.3590 C.3       1 NAD401      0.0000 
     36 N1N        -2.0480  -26.2430   18.9450 N.pl3     1 NAD401      0.0000 
     37 C2N        -1.1620  -26.8830   19.7730 C.ar      1 NAD401      0.0000 
     38 C3N        -0.6280  -28.1230   19.4200 C.ar      1 NAD401      0.0000 
     39 C7N         0.0860  -28.9430   20.4540 C.2       1 NAD401      0.0000 
     40 O7N        -0.4950  -29.1090   21.7280 O.2       1 NAD401      0.0000 
     41 N7N         1.2560  -29.4980   20.1410 N.am      1 NAD401      0.0000 
     42 C4N        -1.0020  -28.7110   18.2130 C.ar      1 NAD401      0.0000 
     43 C5N        -1.9040  -28.0570   17.3760 C.ar      1 NAD401      0.0000 
     44 C6N        -2.4220  -26.8200   17.7560 C.ar      1 NAD401      0.0000 
     45 H         -11.9208  -22.9035   16.8249 H         1 NAD401      0.0000 
     46 H         -10.9819  -21.4490   17.2029 H         1 NAD401      0.0000 
     47 H         -13.1653  -20.7454   17.3477 H         1 NAD401      0.0000 
     48 H         -11.8327  -21.0462   19.8414 H         1 NAD401      0.0000 
     49 H         -13.3799  -22.1266   20.9784 H         1 NAD401      0.0000 
     50 H         -15.6102  -21.6012   19.1505 H         1 NAD401      0.0000 
     51 H         -13.4736  -24.2742   20.8575 H         1 NAD401      0.0000 
     52 H         -16.8182  -27.4971   21.6900 H         1 NAD401      0.0000 
     53 H         -18.1868  -27.9017   20.5997 H         1 NAD401      0.0000 
     54 H         -19.6245  -23.9760   18.9490 H         1 NAD401      0.0000 
     55 H          -5.9596  -23.0814   17.3920 H         1 NAD401      0.0000 
     56 H          -5.2058  -24.6419   17.0224 H         1 NAD401      0.0000 
     57 H          -4.9511  -23.1338   19.6288 H         1 NAD401      0.0000 
     58 H          -3.5807  -22.9142   17.1489 H         1 NAD401      0.0000 
     59 H          -1.8806  -24.2634   17.4875 H         1 NAD401      0.0000 
     60 H          -2.2260  -24.6827   20.3513 H         1 NAD401      0.0000 
     61 H          -0.8799  -26.4513   20.6704 H         1 NAD401      0.0000 
     62 H           1.7030  -30.0211   20.8666 H         1 NAD401      0.0000 
     63 H           1.5818  -29.3415   19.2086 H         1 NAD401      0.0000 
     64 H          -0.6150  -29.6210   17.9421 H         1 NAD401      0.0000 
     65 H          -2.1846  -28.4822   16.4876 H         1 NAD401      0.0000 
     66 H          -3.0925  -26.3403   17.1317 H         1 NAD401      0.0000 
     67 H         -12.9015  -19.0322   20.1908 H         1 NAD401      0.0000 
     68 H         -14.1397  -19.5870   20.8228 H         1 NAD401      0.0000 
     69 H          -3.9764  -21.1451   18.3886 H         1 NAD401      0.0000 
     70 H          -1.3784  -22.1096   18.8796 H         1 NAD401      0.0000 
@<TRIPOS>BOND
     1    2    1 ar   
     2    3    1 ar   
     3    4    1 1    
     4   23    1 1    
     5    5    4 1    
     6    6    5 1    
     7   45    5 1    
     8   46    5 1    
     9    7    6 1    
    10    8    6 1    
    11   47    6 1    
    12   12    7 1    
    13    9    8 1    
    14   10    8 1    
    15   48    8 1    
    16   67    9 1    
    17   11   10 1    
    18   12   10 1    
    19   49   10 1    
    20   68   11 1    
    21   13   12 1    
    22   50   12 1    
    23   14   13 1    
    24   22   13 1    
    25   15   14 2    
    26   51   14 1    
    27   16   15 1    
    28   17   16 ar   
    29   22   16 ar   
    30   18   17 1    
    31   19   17 ar   
    32   52   18 1    
    33   53   18 1    
    34   20   19 ar   
    35   21   20 ar   
    36   54   20 1    
    37   22   21 ar   
    38   24   23 1    
    39   25   24 ar   
    40   26   24 ar   
    41   27   24 1    
    42   28   27 1    
    43   29   28 1    
    44   55   28 1    
    45   56   28 1    
    46   30   29 1    
    47   31   29 1    
    48   57   29 1    
    49   35   30 1    
    50   32   31 1    
    51   33   31 1    
    52   58   31 1    
    53   69   32 1    
    54   34   33 1    
    55   35   33 1    
    56   59   33 1    
    57   70   34 1    
    58   36   35 1    
    59   60   35 1    
    60   37   36 ar   
    61   44   36 ar   
    62   38   37 ar   
    63   61   37 1    
    64   39   38 1    
    65   42   38 ar   
    66   40   39 2    
    67   41   39 am   
    68   62   41 1    
    69   63   41 1    
    70   43   42 ar   
    71   64   42 1    
    72   44   43 ar   
    73   65   43 1    
    74   66   44 1    
@<TRIPOS>SUBSTRUCTURE
     1 NAD401      1 GROUP   
@<TRIPOS>SET

