#    Name: 4ir7_1ZZ_1_INTS_M
#    Modification time : Tue Mar 25 04:16:50 2014

@<TRIPOS>MOLECULE
4ir7_1ZZ_1_INTS_M
   81     0     9     0     0
SMALL
NO_CHARGES


@<TRIPOS>ATOM
      1 CA        -56.8290   11.2235    3.4325 C.3       3 GLC5        0.0000 
      2 CA        -57.9570   12.4680    4.1750 C.3       9 GLL5        0.0000 
      3 CA        -55.7010    9.9790    2.6900 C.3       6 GLP5        0.0000 
      4 CA        -56.3550   13.2670    5.5345 C.3       3 GLC5        0.0000 
      5 CA        -54.7530   14.0660    6.8940 C.3       6 GLP5        0.0000 
      6 CA        -59.5090   14.2735    5.5495 C.3       3 GLC5        0.0000 
      7 CA        -58.3830   12.5700    5.6230 C.3       9 GLL5        0.0000 
      8 CA        -60.6350   15.9770    5.4760 C.3       6 GLP5        0.0000 
      9 CA        -57.1045   10.0275    4.3105 C.3       3 GLC5        0.0000 
     10 CA        -58.5080   10.0760    5.9310 C.3       9 GLL5        0.0000 
     11 N         -61.1890   12.2605   17.5985 N.am      2 SEC2        0.0000 
     12 N         -60.7160   10.7590   18.1940 N.am      8 SEL2        0.0000 
     13 N         -61.6620   13.7620   17.0030 N.am      5 SEP2        0.0000 
     14 CA        -56.4355    8.8325    8.3735 C.3       3 GLC5        0.0000 
     15 CA        -58.0800    9.5880    7.3080 C.3       9 GLL5        0.0000 
     16 CA        -54.7910    8.0770    9.4390 C.3       6 GLP5        0.0000 
     17 O         -50.6885    9.3545   11.5125 O.2       1 ALC1        0.0000 
     18 O         -51.9800    9.7730   12.3570 O.2       7 ALL1        0.0000 
     19 O         -49.3970    8.9360   10.6680 O.2       4 ALP1        0.0000 
     20 O         -52.9625   10.6360   11.4740 O.2       1 ALC1        0.0000 
     21 O         -53.9450   11.4990   10.5910 O.2       4 ALP1        0.0000 
     22 CA        -57.0275   11.2025    9.2920 C.3       3 GLC5        0.0000 
     23 CA        -58.3090   10.2560   10.4330 C.3       9 GLL5        0.0000 
     24 CA        -55.7460   12.1490    8.1510 C.3       6 GLP5        0.0000 
     25 N         -54.6365   10.3020   20.4630 N.am      2 SEC2        0.0000 
     26 N         -55.7870    9.2040   20.4740 N.am      8 SEL2        0.0000 
     27 N         -53.4860   11.4000   20.4520 N.am      5 SEP2        0.0000 
     28 CA        -61.2010   10.9685   12.6085 C.3       3 GLC5        0.0000 
     29 CA        -59.2840   10.5940   11.5520 C.3       9 GLL5        0.0000 
     30 CA        -63.1180   11.3430   13.6650 C.3       6 GLP5        0.0000 
     31 CA        -61.0855   10.7180   10.4210 C.3       3 GLC5        0.0000 
     32 CA        -62.8870   10.8420    9.2900 C.3       6 GLP5        0.0000 
     33 CA        -59.8290   12.4240   10.6625 C.3       3 GLC5        0.0000 
     34 CA        -60.3740   14.2540    9.7730 C.3       6 GLP5        0.0000 
     35 CA        -57.5145    8.7595   12.7950 C.3       3 GLC5        0.0000 
     36 CA        -58.5920   10.5010   12.9060 C.3       9 GLL5        0.0000 
     37 CA        -56.4370    7.0180   12.6840 C.3       6 GLP5        0.0000 
     38 CA        -61.3225   11.1505   13.8405 C.3       3 GLC5        0.0000 
     39 CA        -59.5270   10.9580   14.0160 C.3       9 GLL5        0.0000 
     40 CA        -59.3850   12.3780   15.4335 C.3       3 GLC5        0.0000 
     41 CA        -59.2430   13.7980   16.8510 C.3       6 GLP5        0.0000 
     42 CA        -57.8140   11.8545   18.4735 C.3       3 GLC5        0.0000 
     43 CA        -57.8350   10.1860   17.8770 C.3       9 GLL5        0.0000 
     44 CA        -57.7930   13.5230   19.0700 C.3       6 GLP5        0.0000 
     45 CA        -56.7705   11.5405   19.0790 C.3       3 GLC5        0.0000 
     46 CA        -55.7480    9.5580   19.0880 C.3       9 GLL5        0.0000 
     47 CA        -53.4150   10.5910   17.6405 C.3       3 GLC5        0.0000 
     48 CA        -54.5530    8.9130   18.4160 C.3       9 GLL5        0.0000 
     49 CA        -52.2770   12.2690   16.8650 C.3       6 GLP5        0.0000 
     50 CA        -53.3060   11.2560   13.4145 C.3       3 GLC5        0.0000 
     51 CA        -53.2750    9.1740   14.2630 C.3       9 GLL5        0.0000 
     52 CA        -53.3370   13.3380   12.5660 C.3       6 GLP5        0.0000 
     53 CA        -53.5705    6.5335   14.6645 C.3       3 GLC5        0.0000 
     54 CA        -53.3910    8.4290   15.4230 C.3       9 GLL5        0.0000 
     55 CA        -53.7500    4.6380   13.9060 C.3       6 GLP5        0.0000 
     56 CA        -52.5140    6.0740   14.4700 C.3       3 GLC5        0.0000 
     57 CA        -51.2780    7.5100   15.0340 C.3       9 GLL5        0.0000 
     58 CA        -50.6790    5.6360   14.2250 C.3       3 GLC5        0.0000 
     59 CA        -50.0800    3.7620   13.4160 C.3       6 GLP5        0.0000 
     60 CA        -50.4755    8.2550   16.5495 C.3       3 GLC5        0.0000 
     61 CA        -49.6730    9.0000   18.0650 C.3       6 GLP5        0.0000 
     62 CA        -50.1240    9.8535   13.8715 C.3       3 GLC5        0.0000 
     63 CA        -52.1220    9.0570   13.4980 C.3       9 GLL5        0.0000 
     64 CA        -48.1260   10.6500   14.2450 C.3       6 GLP5        0.0000 
     65 CA        -59.5660   13.0120    3.6325 C.3       3 GLC5        0.0000 
     66 CA        -60.9620   13.5050    2.3660 C.3       6 GLP5        0.0000 
     67 CA        -57.2855   12.0655    6.9863 C.3       3 GLC5        0.0000 
     68 CA        -59.8568    9.8625    4.7677 C.3       3 GLC5        0.0000 
     69 CA        -59.2670   11.3940    6.0200 C.3       9 GLL5        0.0000 
     70 CA        -60.8260    8.9900    3.5600 C.3       6 GLP5        0.0000 
     71 CA        -56.5540    8.8090    6.1362 C.3       3 GLC5        0.0000 
     72 CA        -54.8140    7.7860    5.6530 C.3       6 GLP5        0.0000 
     73 CA        -60.4502    8.1943    8.0152 C.3       3 GLC5        0.0000 
     74 CA        -59.2700    9.4780    8.2530 C.3       9 GLL5        0.0000 
     75 CA        -61.8660    7.1230    7.0850 C.3       6 GLP5        0.0000 
     76 CA        -60.9608   10.0538    9.1177 C.3       3 GLC5        0.0000 
     77 CA        -57.2640   10.9020    7.7936 C.3       3 GLC5        0.0000 
     78 CA        -56.6725    8.8658    9.7372 C.3       3 GLC5        0.0000 
     79 CA        -57.4955    8.3362   11.3597 C.3       3 GLC5        0.0000 
     80 CA        -58.7990    9.0530    9.6380 C.3       9 GLL5        0.0000 
     81 CA        -54.8850    7.9097   13.7635 C.3       3 GLC5        0.0000 
@<TRIPOS>BOND
@<TRIPOS>SUBSTRUCTURE
     1 ALC1       17 GROUP        1 X    ALC  0     ROOT ALC X 1
     2 SEC2       11 GROUP        1 X    SEC  0     **** SEC X 2
     3 GLC5        1 GROUP        1 X    GLC  0     **** GLC X 6
     4 ALP1       19 GROUP        1 Y    ALP  0     ROOT ALP Y 8
     5 SEP2       13 GROUP        1 Y    SEP  0     **** SEP Y 9
     6 GLP5        3 GROUP        1 Y    GLP  0     **** GLP Y 13
     7 ALL1       18 GROUP        1 Z    ALL  0     ROOT ALL Z 15
     8 SEL2       12 GROUP        1 Z    SEL  0     **** SEL Z 16
     9 GLL5        2 GROUP        1 Z    GLL  0     **** GLL Z 20
@<TRIPOS>SET

