#    Name: 4ir7_1ZZ_1_ligand
#    Modification time : Tue Mar 25 04:16:50 2014

@<TRIPOS>MOLECULE
4ir7_1ZZ_1_ligand
   71    73     1     0     0
SMALL
NO_CHARGES


@<TRIPOS>ATOM
      1 P         -60.3460    9.6320   17.2580 P.3       1 1ZZ601      0.0000 
      2 C1        -57.9570   12.4680    4.1750 C.3       1 1ZZ601      0.0000 
      3 N1        -54.5760    8.7140   15.9720 N.pl3     1 1ZZ601      0.0000 
      4 O1        -60.1430    8.6580   14.1010 O.2       1 1ZZ601      0.0000 
      5 C2        -58.3830   12.5700    5.6230 C.3       1 1ZZ601      0.0000 
      6 N2        -54.4040    9.9000   14.1350 N.2       1 1ZZ601      0.0000 
      7 O2        -61.0160    9.9290   15.8270 O.3       1 1ZZ601      0.0000 
      8 C3        -59.2670   11.3940    6.0200 C.3       1 1ZZ601      0.0000 
      9 N3        -52.3800    7.6050   15.7890 N.ar      1 1ZZ601      0.0000 
     10 O3        -60.6140    8.1980   17.6480 O.co2     1 1ZZ601      0.0000 
     11 C4        -58.5080   10.0760    5.9310 C.3       1 1ZZ601      0.0000 
     12 N4        -51.1430    8.2210   13.9060 N.ar      1 1ZZ601      0.0000 
     13 O4        -60.7160   10.7590   18.1940 O.co2     1 1ZZ601      0.0000 
     14 C5        -58.0800    9.5880    7.3080 C.3       1 1ZZ601      0.0000 
     15 N5        -51.9800    9.7730   12.3570 N.pl3     1 1ZZ601      0.0000 
     16 O5        -58.7800    9.7580   16.9010 O.3       1 1ZZ601      0.0000 
     17 C6        -59.2700    9.4780    8.2530 C.3       1 1ZZ601      0.0000 
     18 O6        -56.5310    8.2220   17.2770 O.3       1 1ZZ601      0.0000 
     19 C7        -58.7990    9.0530    9.6380 C.3       1 1ZZ601      0.0000 
     20 O7        -53.8970    8.0280   19.3280 O.3       1 1ZZ601      0.0000 
     21 C8        -58.3090   10.2560   10.4330 C.3       1 1ZZ601      0.0000 
     22 O8        -55.7870    9.2040   20.4740 O.3       1 1ZZ601      0.0000 
     23 C9        -59.2840   10.5940   11.5520 C.3       1 1ZZ601      0.0000 
     24 C10       -58.5920   10.5010   12.9060 C.3       1 1ZZ601      0.0000 
     25 C11       -59.5270   10.9580   14.0160 C.3       1 1ZZ601      0.0000 
     26 C12       -60.2290    9.7610   14.6160 C.2       1 1ZZ601      0.0000 
     27 C13       -57.8350   10.1860   17.8770 C.3       1 1ZZ601      0.0000 
     28 C14       -56.9790    9.0290   18.3710 C.3       1 1ZZ601      0.0000 
     29 C15       -55.7480    9.5580   19.0880 C.3       1 1ZZ601      0.0000 
     30 C16       -54.5530    8.9130   18.4160 C.3       1 1ZZ601      0.0000 
     31 C17       -55.1020    8.1330   17.2330 C.3       1 1ZZ601      0.0000 
     32 C18       -55.1980    9.6110   15.1930 C.2       1 1ZZ601      0.0000 
     33 C19       -53.2750    9.1740   14.2630 C.ar      1 1ZZ601      0.0000 
     34 C20       -53.3910    8.4290   15.4230 C.ar      1 1ZZ601      0.0000 
     35 C21       -51.2780    7.5100   15.0340 C.ar      1 1ZZ601      0.0000 
     36 C22       -52.1220    9.0570   13.4980 C.ar      1 1ZZ601      0.0000 
     37 H         -58.9353   13.4997    5.7764 H         1 1ZZ601      0.0000 
     38 H         -57.4985   12.5841    6.2636 H         1 1ZZ601      0.0000 
     39 H         -60.1338   11.3557    5.3574 H         1 1ZZ601      0.0000 
     40 H         -59.6193   11.5381    7.0432 H         1 1ZZ601      0.0000 
     41 H         -57.6229   10.2123    5.3058 H         1 1ZZ601      0.0000 
     42 H         -59.1477    9.3235    5.4647 H         1 1ZZ601      0.0000 
     43 H         -57.3513   10.2853    7.7271 H         1 1ZZ601      0.0000 
     44 H         -57.6054    8.6090    7.2120 H         1 1ZZ601      0.0000 
     45 H         -51.1218    9.6436   11.8602 H         1 1ZZ601      0.0000 
     46 H         -52.7459   10.3676   12.1125 H         1 1ZZ601      0.0000 
     47 H         -59.9689    8.7408    7.8680 H         1 1ZZ601      0.0000 
     48 H         -59.7664   10.4419    8.3211 H         1 1ZZ601      0.0000 
     49 H         -57.9879    8.3330    9.5373 H         1 1ZZ601      0.0000 
     50 H         -59.6243    8.5814   10.1700 H         1 1ZZ601      0.0000 
     51 H         -58.2131   11.1128    9.7672 H         1 1ZZ601      0.0000 
     52 H         -57.3328   10.0315   10.8609 H         1 1ZZ601      0.0000 
     53 H         -60.1190    9.8969   11.5259 H         1 1ZZ601      0.0000 
     54 H         -59.6610   11.6047   11.4091 H         1 1ZZ601      0.0000 
     55 H         -57.7038   11.1305   12.9001 H         1 1ZZ601      0.0000 
     56 H         -58.2932    9.4699   13.0873 H         1 1ZZ601      0.0000 
     57 H         -60.2619   11.6449   13.6056 H         1 1ZZ601      0.0000 
     58 H         -58.9505   11.4664   14.7838 H         1 1ZZ601      0.0000 
     59 H         -58.3334   10.6330   18.7557 H         1 1ZZ601      0.0000 
     60 H         -57.1550   10.9570   17.4726 H         1 1ZZ601      0.0000 
     61 H         -57.5507    8.4479   19.0732 H         1 1ZZ601      0.0000 
     62 H         -55.6952   10.6127   18.9361 H         1 1ZZ601      0.0000 
     63 H         -53.9114    9.6782   18.0509 H         1 1ZZ601      0.0000 
     64 H         -54.7750    7.1140   17.3289 H         1 1ZZ601      0.0000 
     65 H         -56.0739    9.9948   15.3546 H         1 1ZZ601      0.0000 
     66 H         -50.5010    6.8632   15.3325 H         1 1ZZ601      0.0000 
     67 H         -57.3792   13.2374    3.9028 H         1 1ZZ601      0.0000 
     68 H         -57.4353   11.6331    3.9993 H         1 1ZZ601      0.0000 
     69 H         -58.7427   12.4583    3.5565 H         1 1ZZ601      0.0000 
     70 H         -54.4537    8.0530   20.1584 H         1 1ZZ601      0.0000 
     71 H         -56.7112    9.4388   20.7750 H         1 1ZZ601      0.0000 
@<TRIPOS>BOND
     1    7    1 1    
     2   10    1 ar   
     3   13    1 ar   
     4   16    1 1    
     5    5    2 1    
     6   67    2 1    
     7   68    2 1    
     8   69    2 1    
     9   31    3 1    
    10   32    3 1    
    11   34    3 1    
    12   26    4 2    
    13    8    5 1    
    14   37    5 1    
    15   38    5 1    
    16   32    6 2    
    17   33    6 1    
    18   26    7 1    
    19   11    8 1    
    20   39    8 1    
    21   40    8 1    
    22   34    9 ar   
    23   35    9 ar   
    24   14   11 1    
    25   41   11 1    
    26   42   11 1    
    27   35   12 ar   
    28   36   12 ar   
    29   17   14 1    
    30   43   14 1    
    31   44   14 1    
    32   36   15 1    
    33   45   15 1    
    34   46   15 1    
    35   27   16 1    
    36   19   17 1    
    37   47   17 1    
    38   48   17 1    
    39   28   18 1    
    40   31   18 1    
    41   21   19 1    
    42   49   19 1    
    43   50   19 1    
    44   30   20 1    
    45   70   20 1    
    46   23   21 1    
    47   51   21 1    
    48   52   21 1    
    49   29   22 1    
    50   71   22 1    
    51   24   23 1    
    52   53   23 1    
    53   54   23 1    
    54   25   24 1    
    55   55   24 1    
    56   56   24 1    
    57   26   25 1    
    58   57   25 1    
    59   58   25 1    
    60   28   27 1    
    61   59   27 1    
    62   60   27 1    
    63   29   28 1    
    64   61   28 1    
    65   30   29 1    
    66   62   29 1    
    67   31   30 1    
    68   63   30 1    
    69   64   31 1    
    70   65   32 1    
    71   34   33 ar   
    72   36   33 ar   
    73   66   35 1    
@<TRIPOS>SUBSTRUCTURE
     1 1ZZ601      1 GROUP   
@<TRIPOS>SET

