#    Name: 4dk5_0KO_1_INTS_M
#    Modification time : Tue Mar 25 09:47:30 2014

@<TRIPOS>MOLECULE
4dk5_0KO_1_INTS_M
   80     0     9     0     0
SMALL
NO_CHARGES


@<TRIPOS>ATOM
      1 CA         29.4535   10.1705   19.7040 C.3       3 GLC5        0.0000 
      2 CA         28.8560   11.6840   20.6950 C.3       9 GLL5        0.0000 
      3 CA         30.0510    8.6570   18.7130 C.3       6 GLP5        0.0000 
      4 CA         28.9095   12.9220   22.3435 C.3       3 GLC5        0.0000 
      5 CA         28.9630   14.1600   23.9920 C.3       6 GLP5        0.0000 
      6 N          28.6780   13.1235   18.4270 N.am      2 SEC2        0.0000 
      7 N          27.9590   12.3380   19.7860 N.am      8 SEL2        0.0000 
      8 N          29.3970   13.9090   17.0680 N.am      5 SEP2        0.0000 
      9 CA         26.2060   10.7700   19.8535 C.3       3 GLC5        0.0000 
     10 CA         26.8160   12.7730   20.3880 C.3       9 GLL5        0.0000 
     11 CA         25.5960    8.7670   19.3190 C.3       6 GLP5        0.0000 
     12 CA         27.7165   14.0755   21.7560 C.3       3 GLC5        0.0000 
     13 CA         28.6170   15.3780   23.1240 C.3       6 GLP5        0.0000 
     14 CA         23.4675   14.5320   18.8510 C.3       3 GLC5        0.0000 
     15 CA         24.6990   13.8920   20.2200 C.3       9 GLL5        0.0000 
     16 CA         22.2360   15.1720   17.4820 C.3       6 GLP5        0.0000 
     17 CA         25.4120   13.8925   24.2010 C.3       3 GLC5        0.0000 
     18 CA         25.4880   12.9610   22.2990 C.3       9 GLL5        0.0000 
     19 CA         25.3360   14.8240   26.1030 C.3       6 GLP5        0.0000 
     20 CA         27.0525   14.1695   22.7115 C.3       3 GLC5        0.0000 
     21 CA         24.5155   15.2055   23.1045 C.3       3 GLC5        0.0000 
     22 CA         24.5090   13.6480   21.5850 C.3       9 GLL5        0.0000 
     23 CA         24.5220   16.7630   24.6240 C.3       6 GLP5        0.0000 
     24 CA         22.6065   16.2970   19.3355 C.3       3 GLC5        0.0000 
     25 CA         22.9770   17.4220   21.1890 C.3       9 GLL5        0.0000 
     26 CA         20.6170   21.1385   16.5560 C.3       3 GLC5        0.0000 
     27 CA         20.1100   20.0580   18.0590 C.3       9 GLL5        0.0000 
     28 CA         21.1240   22.2190   15.0530 C.3       6 GLP5        0.0000 
     29 CA         17.7115   16.7720   19.6420 C.3       3 GLC5        0.0000 
     30 CA         18.2580   18.8820   19.2120 C.3       9 GLL5        0.0000 
     31 CA         17.1650   14.6620   20.0720 C.3       6 GLP5        0.0000 
     32 CA         19.0595   21.6830   15.7105 C.3       3 GLC5        0.0000 
     33 CA         16.9950   21.1470   16.3680 C.3       9 GLL5        0.0000 
     34 N          15.6610   18.1370   17.0930 N.am      2 SEC2        0.0000 
     35 N          16.9860   18.5030   16.8520 N.am      8 SEL2        0.0000 
     36 N          14.3360   17.7710   17.3340 N.am      5 SEP2        0.0000 
     37 N          20.0390   19.6535   15.0615 N.am      2 SEC2        0.0000 
     38 N          18.9830   19.4420   15.7710 N.am      8 SEL2        0.0000 
     39 N          21.0950   19.8650   14.3520 N.am      5 SEP2        0.0000 
     40 CA         21.0600   12.3470   22.2740 C.3       3 GLC5        0.0000 
     41 CA         21.0850   12.4900   24.5150 C.3       9 GLL5        0.0000 
     42 CA         21.0350   12.2040   20.0330 C.3       6 GLP5        0.0000 
     43 CA         19.5045   11.0785   23.8590 C.3       3 GLC5        0.0000 
     44 CA         17.9240    9.6670   23.2030 C.3       6 GLP5        0.0000 
     45 CA         20.8365   14.4685   25.3210 C.3       3 GLC5        0.0000 
     46 CA         20.5880   16.4470   26.1270 C.3       6 GLP5        0.0000 
     47 CA         22.9220    9.8830   25.3500 C.3       3 GLC5        0.0000 
     48 CA         21.9120   11.2920   24.9580 C.3       9 GLL5        0.0000 
     49 CA         23.9320    8.4740   25.7420 C.3       6 GLP5        0.0000 
     50 CA         22.6000   10.1625   23.6055 C.3       3 GLC5        0.0000 
     51 CA         23.2880    9.0330   22.2530 C.3       6 GLP5        0.0000 
     52 CA         20.5640   10.7365   26.4860 C.3       3 GLC5        0.0000 
     53 CA         19.2160   10.1810   28.0140 C.3       6 GLP5        0.0000 
     54 N          18.7165   11.4765   25.1775 N.am      2 SEC2        0.0000 
     55 N          19.7920   12.5920   24.8550 N.am      8 SEL2        0.0000 
     56 N          17.6410   10.3610   25.5000 N.am      5 SEP2        0.0000 
     57 CA         17.6535   12.5480   23.5395 C.3       3 GLC5        0.0000 
     58 CA         19.0870   13.6600   24.4660 C.3       9 GLL5        0.0000 
     59 CA         16.2200   11.4360   22.6130 C.3       6 GLP5        0.0000 
     60 CA         18.5140   12.3275   26.1800 C.3       3 GLC5        0.0000 
     61 CA         17.9410   10.9950   27.8940 C.3       6 GLP5        0.0000 
     62 CA         19.8375   15.0535   25.2965 C.3       3 GLC5        0.0000 
     63 O          16.7910   13.0655   25.5355 O.2       1 ALC1        0.0000 
     64 O          17.8080   13.7610   24.8110 O.2       7 ALL1        0.0000 
     65 O          15.7740   12.3700   26.2600 O.2       4 ALP1        0.0000 
     66 CA         27.1207   12.5783   18.1385 C.3       3 GLC5        0.0000 
     67 CA         25.8730   13.4540   19.6180 C.3       9 GLL5        0.0000 
     68 CA         27.8970   12.0430   16.2740 C.3       6 GLP5        0.0000 
     69 CA         22.8195   12.9870   20.4678 C.3       3 GLC5        0.0000 
     70 CA         23.4392   17.1693   23.0452 C.3       3 GLC5        0.0000 
     71 CA         21.2928   19.4080   23.3978 C.3       3 GLC5        0.0000 
     72 CA         21.7360   17.7290   21.7440 C.3       9 GLL5        0.0000 
     73 CA         21.1460   20.3900   25.1520 C.3       6 GLP5        0.0000 
     74 CA         21.3159   13.5749   21.4471 C.3       3 GLC5        0.0000 
     75 CA         22.8560   15.2520   22.0660 C.3       9 GLL5        0.0000 
     76 CA         20.8655   15.8851   24.5452 C.3       3 GLC5        0.0000 
     77 CA         20.9620   14.5150   23.3740 C.3       9 GLL5        0.0000 
     78 CA         22.9106   16.0276   23.7584 C.3       3 GLC5        0.0000 
     79 CA         22.7752   13.0775   25.7093 C.3       3 GLC5        0.0000 
     80 CA         24.0520   14.2640   26.6820 C.3       6 GLP5        0.0000 
@<TRIPOS>BOND
@<TRIPOS>SUBSTRUCTURE
     1 ALC1       63 GROUP        1 X    ALC  0     ROOT ALC X 1
     2 SEC2        6 GROUP        1 X    SEC  0     **** SEC X 2
     3 GLC5        1 GROUP        1 X    GLC  0     **** GLC X 6
     4 ALP1       65 GROUP        1 Y    ALP  0     ROOT ALP Y 8
     5 SEP2        8 GROUP        1 Y    SEP  0     **** SEP Y 9
     6 GLP5        3 GROUP        1 Y    GLP  0     **** GLP Y 13
     7 ALL1       64 GROUP        1 Z    ALL  0     ROOT ALL Z 15
     8 SEL2        7 GROUP        1 Z    SEL  0     **** SEL Z 16
     9 GLL5        2 GROUP        1 Z    GLL  0     **** GLL Z 20
@<TRIPOS>SET

