#    Name: 4dk5_0KO_1_ligand
#    Modification time : Tue Mar 25 09:47:30 2014

@<TRIPOS>MOLECULE
4dk5_0KO_1_ligand
   62    65     1     0     0
SMALL
NO_CHARGES


@<TRIPOS>ATOM
      1 C31        28.8560   11.6840   20.6950 C.3       1 0KO1204     0.0000 
      2 O30        27.9590   12.3380   19.7860 O.3       1 0KO1204     0.0000 
      3 C27        26.8160   12.7730   20.3880 C.ar      1 0KO1204     0.0000 
      4 C28        25.8730   13.4540   19.6180 C.ar      1 0KO1204     0.0000 
      5 C29        24.6990   13.8920   20.2200 C.ar      1 0KO1204     0.0000 
      6 N26        26.5930   12.5470   21.6990 N.ar      1 0KO1204     0.0000 
      7 C25        25.4880   12.9610   22.2990 C.ar      1 0KO1204     0.0000 
      8 C24        24.5090   13.6480   21.5850 C.ar      1 0KO1204     0.0000 
      9 N7         23.4060   14.0430   22.2200 N.pl3     1 0KO1204     0.0000 
     10 C2         22.8560   15.2520   22.0660 C.ar      1 0KO1204     0.0000 
     11 N1         23.4940   16.2190   21.3690 N.ar      1 0KO1204     0.0000 
     12 C6         22.9770   17.4220   21.1890 C.ar      1 0KO1204     0.0000 
     13 C5         21.7360   17.7290   21.7440 C.ar      1 0KO1204     0.0000 
     14 C9         21.1430   19.1230   21.5430 C.3       1 0KO1204     0.0000 
     15 N10        20.4110   19.1080   20.2730 N.4       1 0KO1204     0.0000 
     16 C15        20.8160   20.2310   19.4090 C.3       1 0KO1204     0.0000 
     17 C14        20.1100   20.0580   18.0590 C.3       1 0KO1204     0.0000 
     18 C11        18.9620   19.1440   20.5410 C.3       1 0KO1204     0.0000 
     19 C12        18.2580   18.8820   19.2120 C.3       1 0KO1204     0.0000 
     20 N13        18.6450   19.9420   18.2570 N.pl3     1 0KO1204     0.0000 
     21 S16        17.9230   19.6880   16.8060 S.o2      1 0KO1204     0.0000 
     22 C32        16.9950   21.1470   16.3680 C.3       1 0KO1204     0.0000 
     23 O34        16.9860   18.5030   16.8520 O.2       1 0KO1204     0.0000 
     24 O33        18.9830   19.4420   15.7710 O.2       1 0KO1204     0.0000 
     25 C4         21.0410   16.7620   22.4750 C.ar      1 0KO1204     0.0000 
     26 C3         21.6070   15.5010   22.6310 C.ar      1 0KO1204     0.0000 
     27 C8         20.9620   14.5150   23.3740 C.ar      1 0KO1204     0.0000 
     28 N21        19.6700   14.6190   23.7270 N.ar      1 0KO1204     0.0000 
     29 N17        21.6660   13.4480   23.7830 N.ar      1 0KO1204     0.0000 
     30 C18        21.0850   12.4900   24.5150 C.ar      1 0KO1204     0.0000 
     31 C22        21.9120   11.2920   24.9580 C.3       1 0KO1204     0.0000 
     32 N19        19.7920   12.5920   24.8550 N.ar      1 0KO1204     0.0000 
     33 C20        19.0870   13.6600   24.4660 C.ar      1 0KO1204     0.0000 
     34 N23        17.8080   13.7610   24.8110 N.pl3     1 0KO1204     0.0000 
     35 H          26.0446   13.6272   18.6265 H         1 0KO1204     0.0000 
     36 H          23.9871   14.3822   19.6811 H         1 0KO1204     0.0000 
     37 H          25.3201   12.7864   23.3139 H         1 0KO1204     0.0000 
     38 H          22.9324   13.3553   22.8913 H         1 0KO1204     0.0000 
     39 H          23.4662   18.1560   20.6432 H         1 0KO1204     0.0000 
     40 H          21.9514   19.8411   21.5181 H         1 0KO1204     0.0000 
     41 H          20.4817   19.3389   22.3712 H         1 0KO1204     0.0000 
     42 H          20.6382   18.1668   19.7528 H         1 0KO1204     0.0000 
     43 H          21.8844   20.2249   19.2418 H         1 0KO1204     0.0000 
     44 H          20.5134   21.1770   19.8367 H         1 0KO1204     0.0000 
     45 H          20.5022   19.1618   17.5763 H         1 0KO1204     0.0000 
     46 H          20.3436   20.9209   17.4338 H         1 0KO1204     0.0000 
     47 H          18.6620   20.1133   20.9079 H         1 0KO1204     0.0000 
     48 H          18.6804   18.3730   21.2413 H         1 0KO1204     0.0000 
     49 H          17.1857   18.8896   19.3786 H         1 0KO1204     0.0000 
     50 H          18.5599   17.9066   18.8445 H         1 0KO1204     0.0000 
     51 H          20.1339   16.9800   22.8862 H         1 0KO1204     0.0000 
     52 H          17.4445   13.0195   25.3750 H         1 0KO1204     0.0000 
     53 H          17.3243   14.5694   24.4755 H         1 0KO1204     0.0000 
     54 H          29.6859   11.3683   20.2351 H         1 0KO1204     0.0000 
     55 H          29.1441   12.2923   21.4346 H         1 0KO1204     0.0000 
     56 H          28.4345   10.8835   21.1212 H         1 0KO1204     0.0000 
     57 H          17.5818   21.9539   16.3001 H         1 0KO1204     0.0000 
     58 H          16.5353   21.0438   15.4860 H         1 0KO1204     0.0000 
     59 H          16.2883   21.3546   17.0444 H         1 0KO1204     0.0000 
     60 H          22.2839   10.7886   24.1781 H         1 0KO1204     0.0000 
     61 H          22.6875   11.5660   25.5268 H         1 0KO1204     0.0000 
     62 H          21.3701   10.6442   25.4935 H         1 0KO1204     0.0000 
@<TRIPOS>BOND
     1    2    1 1    
     2   54    1 1    
     3   55    1 1    
     4   56    1 1    
     5    3    2 1    
     6    4    3 ar   
     7    6    3 ar   
     8    5    4 ar   
     9   35    4 1    
    10    8    5 ar   
    11   36    5 1    
    12    7    6 ar   
    13    8    7 ar   
    14   37    7 1    
    15    9    8 1    
    16   10    9 1    
    17   38    9 1    
    18   11   10 ar   
    19   26   10 ar   
    20   12   11 ar   
    21   13   12 ar   
    22   39   12 1    
    23   14   13 1    
    24   25   13 ar   
    25   15   14 1    
    26   40   14 1    
    27   41   14 1    
    28   16   15 1    
    29   18   15 1    
    30   42   15 1    
    31   17   16 1    
    32   43   16 1    
    33   44   16 1    
    34   20   17 1    
    35   45   17 1    
    36   46   17 1    
    37   19   18 1    
    38   47   18 1    
    39   48   18 1    
    40   20   19 1    
    41   49   19 1    
    42   50   19 1    
    43   21   20 1    
    44   22   21 1    
    45   23   21 2    
    46   24   21 2    
    47   57   22 1    
    48   58   22 1    
    49   59   22 1    
    50   26   25 ar   
    51   51   25 1    
    52   27   26 1    
    53   28   27 ar   
    54   29   27 ar   
    55   33   28 ar   
    56   30   29 ar   
    57   31   30 1    
    58   32   30 ar   
    59   60   31 1    
    60   61   31 1    
    61   62   31 1    
    62   33   32 ar   
    63   34   33 1    
    64   52   34 1    
    65   53   34 1    
@<TRIPOS>SUBSTRUCTURE
     1 0KO1204     1 GROUP   
@<TRIPOS>SET

