#    Name: 1N3I_3_CAVITY_N1_ALL.mol2
#    Modification time : Mon Mar 10 18:21:24 2014

@<TRIPOS>MOLECULE
1N3I_3_CAVITY_N1_ALL.mol2
   57     0     6     0     0
SMALL
NO_CHARGES


@<TRIPOS>ATOM
      1 OG         57.9098   52.3936   44.1393 O.2       1 SER1        0.0000 
      2 CA         58.7702   51.6679   42.3412 C.3       5 GLY6        0.0000 
      3 O          57.3882   52.0600   42.7730 O.2       2 ALA2        0.0000 
      4 CA         61.0125   50.5500   40.1113 C.3       5 GLY6        0.0000 
      5 O          61.7945   49.8083   43.2876 O.2       2 ALA2        0.0000 
      6 OG         60.4125   50.2004   43.7194 O.2       1 SER1        0.0000 
      7 OG         57.6486   50.9847   44.5829 O.2       1 SER1        0.0000 
      8 CA         62.6549   49.0826   41.4895 C.3       5 GLY6        0.0000 
      9 CA         61.2729   49.4747   41.9213 C.3       5 GLY6        0.0000 
     10 OG         59.8910   49.8669   42.3531 O.2       1 SER1        0.0000 
     11 OG         58.5090   50.2590   42.7849 O.2       1 SER1        0.0000 
     12 N          57.1271   50.6511   43.2167 N.2       2 ALA2        0.0000 
     13 OG         55.7451   51.0433   43.6485 O.2       1 SER1        0.0000 
     14 CA         62.1333   48.7490   40.1232 C.3       5 GLY6        0.0000 
     15 CA         60.7514   49.1411   40.5550 C.3       5 GLY6        0.0000 
     16 N          59.3694   49.5333   40.9868 N.2       2 ALA2        0.0000 
     17 N          56.6055   50.3176   41.8504 N.2       2 ALA2        0.0000 
     18 N          61.6118   48.4154   38.7569 N.2       2 ALA2        0.0000 
     19 CA         60.2298   48.8076   39.1887 C.3       5 GLY6        0.0000 
     20 O          61.0902   48.0818   37.3907 O.2       2 ALA2        0.0000 
     21 O          62.0549   48.7330   45.0975 O.2       2 ALA2        0.0000 
     22 OG         60.6729   49.1251   45.5293 O.2       1 SER1        0.0000 
     23 OG         59.2910   49.5173   45.9611 O.2       1 SER1        0.0000 
     24 OG         62.9153   48.0073   43.2994 O.2       1 SER1        0.0000 
     25 O          61.5333   48.3994   43.7312 O.2       2 ALA2        0.0000 
     26 OG         60.1514   48.7916   44.1630 O.2       1 SER1        0.0000 
     27 OG         58.7694   49.1837   44.5948 O.2       1 SER1        0.0000 
     28 N          57.3875   49.5758   45.0266 N.2       2 ALA2        0.0000 
     29 CZ         61.0118   48.0658   42.3650 C.ar      4 PHE5        0.0000 
     30 DU         59.6298   48.4580   42.7968 H         6 CUB7        0.0000 
     31 O          58.2479   48.8501   43.2285 O.2       2 ALA2        0.0000 
     32 O          56.8659   49.2423   43.6603 O.2       2 ALA2        0.0000 
     33 CZ         61.8722   47.3401   40.5669 C.ar      4 PHE5        0.0000 
     34 CZ         60.4902   47.7323   40.9987 C.ar      4 PHE5        0.0000 
     35 N          59.1083   48.1244   41.4305 N.2       2 ALA2        0.0000 
     36 O          57.7263   48.5165   41.8623 O.2       2 ALA2        0.0000 
     37 CZ         62.7326   46.6144   38.7688 C.ar      4 PHE5        0.0000 
     38 CZ         61.3506   47.0065   39.2006 C.ar      4 PHE5        0.0000 
     39 N          59.9687   47.3987   39.6324 N.2       2 ALA2        0.0000 
     40 CA         58.5867   47.7908   40.0642 C.3       5 GLY6        0.0000 
     41 O          62.2110   46.2808   37.4025 O.2       2 ALA2        0.0000 
     42 O          60.8291   46.6730   37.8343 O.2       2 ALA2        0.0000 
     43 N          59.4471   47.0651   38.2661 N.2       2 ALA2        0.0000 
     44 O          61.6894   45.9472   36.0363 O.2       2 ALA2        0.0000 
     45 CA         59.8902   47.3827   44.6067 C.3       5 GLY6        0.0000 
     46 CZ         58.5083   47.7748   45.0385 C.ar      4 PHE5        0.0000 
     47 CA         60.7506   46.6570   42.8086 C.3       5 GLY6        0.0000 
     48 CA         59.3687   47.0491   43.2404 C.3       5 GLY6        0.0000 
     49 CA         57.9867   47.4412   43.6722 C.3       5 GLY6        0.0000 
     50 CA         60.2291   46.3234   41.4424 C.3       5 GLY6        0.0000 
     51 CA         58.8471   46.7155   41.8742 C.3       5 GLY6        0.0000 
     52 CZ         61.0894   45.5977   39.6443 C.ar      4 PHE5        0.0000 
     53 CA         59.7075   45.9898   40.0761 C.3       5 GLY6        0.0000 
     54 CA         58.3256   46.3819   40.5079 C.3       5 GLY6        0.0000 
     55 NZ         61.9498   44.8719   37.8462 N.2       3 LYS4        0.0000 
     56 NZ         60.5679   45.2641   38.2780 N.2       3 LYS4        0.0000 
     57 N          59.1859   45.6562   38.7098 N.2       2 ALA2        0.0000 
@<TRIPOS>BOND
@<TRIPOS>SUBSTRUCTURE
     1 SER1        1 GROUP   
     2 ALA2        3 GROUP   
     3 LYS4       55 GROUP   
     4 PHE5       29 GROUP   
     5 GLY6        2 GROUP   
     6 CUB7       30 GROUP   
@<TRIPOS>SET

