#    Name: 1n3i_DIH_3_INTS_M
#    Modification time : Tue Mar 25 12:22:11 2014

@<TRIPOS>MOLECULE
1n3i_DIH_3_INTS_M
   55     0     9     0     0
SMALL
NO_CHARGES


@<TRIPOS>ATOM
      1 N          64.4640   47.8930   42.8930 N.am      2 SEC2        0.0000 
      2 N          63.6400   48.7420   43.3590 N.am      8 SEL2        0.0000 
      3 N          65.2880   47.0440   42.4270 N.am      5 SEP2        0.0000 
      4 N          64.1050   49.6215   44.2460 N.am      2 SEC2        0.0000 
      5 N          64.5700   50.5010   45.1330 N.am      5 SEP2        0.0000 
      6 CA         62.7380   46.8780   45.0910 C.3       3 GLC5        0.0000 
      7 CA         62.4050   48.2060   43.8070 C.3       9 GLL5        0.0000 
      8 CA         63.0710   45.5500   46.3750 C.3       6 GLP5        0.0000 
      9 CA         63.0495   46.9530   42.5155 C.3       3 GLC5        0.0000 
     10 CA         63.6940   45.7000   41.2240 C.3       6 GLP5        0.0000 
     11 CA         64.0820   49.2095   44.7880 C.3       3 GLC5        0.0000 
     12 CA         65.7590   50.2130   45.7690 C.3       6 GLP5        0.0000 
     13 CA         60.2460   51.2930   41.4965 C.3       3 GLC5        0.0000 
     14 CA         60.7490   49.6120   42.8090 C.3       9 GLL5        0.0000 
     15 CA         59.7430   52.9740   40.1840 C.3       6 GLP5        0.0000 
     16 CA         62.0895   50.9560   41.8715 C.3       3 GLC5        0.0000 
     17 CA         63.4300   52.3000   40.9340 C.3       6 GLP5        0.0000 
     18 CA         59.0980   47.1110   46.0085 C.3       3 GLC5        0.0000 
     19 CA         60.0060   48.1110   44.5120 C.3       9 GLL5        0.0000 
     20 CA         58.1900   46.1110   47.5050 C.3       6 GLP5        0.0000 
     21 O          59.3085   48.3560   46.8425 O.2       1 ALC1        0.0000 
     22 O          59.1890   48.6530   45.5480 O.2       7 ALL1        0.0000 
     23 O          59.4280   48.0590   48.1370 O.2       4 ALP1        0.0000 
     24 CA         57.4305   47.9815   40.3805 C.3       3 GLC5        0.0000 
     25 CA         59.1440   49.2040   41.1090 C.3       9 GLL5        0.0000 
     26 CA         55.7170   46.7590   39.6520 C.3       6 GLP5        0.0000 
     27 CA         62.8105   49.7755   39.6990 C.3       3 GLC5        0.0000 
     28 CA         60.8260   49.2350   39.1210 C.3       9 GLL5        0.0000 
     29 CA         64.7950   50.3160   40.2770 C.3       6 GLP5        0.0000 
     30 O          62.3325   48.8995   37.4065 O.2       1 ALC1        0.0000 
     31 O          61.3580   48.4400   38.2220 O.2       7 ALL1        0.0000 
     32 O          63.3070   49.3590   36.5910 O.2       4 ALP1        0.0000 
     33 CA         60.4240   47.6205   36.5780 C.3       3 GLC5        0.0000 
     34 CA         60.7940   47.1980   38.4810 C.3       9 GLL5        0.0000 
     35 CA         60.0540   48.0430   34.6750 C.3       6 GLP5        0.0000 
     36 N          62.7035   46.5695   36.1545 N.am      2 SEC2        0.0000 
     37 N          61.7170   45.6690   36.8670 N.am      8 SEL2        0.0000 
     38 N          63.6900   47.4700   35.4420 N.am      5 SEP2        0.0000 
     39 O          60.1625   43.5915   37.9665 O.2       1 ALC1        0.0000 
     40 O          60.2100   44.8290   38.3890 O.2       7 ALL1        0.0000 
     41 O          60.1150   42.3540   37.5440 O.2       4 ALP1        0.0000 
     42 CA         57.8090   47.0210   39.6145 C.3       3 GLC5        0.0000 
     43 CA         59.9010   47.2830   39.5770 C.3       9 GLL5        0.0000 
     44 CA         61.3542   47.3735   45.7272 C.3       3 GLC5        0.0000 
     45 CA         62.1290   46.2110   47.1690 C.3       6 GLP5        0.0000 
     46 CA         60.7610   51.3222   43.6800 C.3       3 GLC5        0.0000 
     47 CA         61.1530   48.9610   44.0590 C.3       9 GLL5        0.0000 
     48 CA         60.5710   53.3580   43.9260 C.3       6 GLP5        0.0000 
     49 CA         59.3888   46.2837   43.9685 C.3       3 GLC5        0.0000 
     50 CA         59.0510   44.5640   44.1020 C.3       6 GLP5        0.0000 
     51 CA         59.9620   51.0246   40.0095 C.3       3 GLC5        0.0000 
     52 CA         59.1240   49.6666   38.4085 C.3       3 GLC5        0.0000 
     53 CA         58.0670   50.2580   36.9820 C.3       6 GLP5        0.0000 
     54 CA         59.2073   48.7493   38.0055 C.3       3 GLC5        0.0000 
     55 CA         62.0207   46.4703   40.1265 C.3       3 GLC5        0.0000 
@<TRIPOS>BOND
@<TRIPOS>SUBSTRUCTURE
     1 ALC1       21 GROUP        1 X    ALC  0     ROOT ALC X 1
     2 SEC2        1 GROUP        1 X    SEC  0     **** SEC X 2
     3 GLC5        6 GROUP        1 X    GLC  0     **** GLC X 6
     4 ALP1       23 GROUP        1 Y    ALP  0     ROOT ALP Y 8
     5 SEP2        3 GROUP        1 Y    SEP  0     **** SEP Y 9
     6 GLP5        8 GROUP        1 Y    GLP  0     **** GLP Y 13
     7 ALL1       22 GROUP        1 Z    ALL  0     ROOT ALL Z 15
     8 SEL2        2 GROUP        1 Z    SEL  0     **** SEL Z 16
     9 GLL5        7 GROUP        1 Z    GLL  0     **** GLL Z 20
@<TRIPOS>SET

