#    Name: 1n3i_DIH_3_ligand
#    Modification time : Tue Mar 25 12:22:11 2014

@<TRIPOS>MOLECULE
1n3i_DIH_3_ligand
   38    40     1     0     0
SMALL
NO_CHARGES


@<TRIPOS>ATOM
      1 O5'        63.6400   48.7420   43.3590 O.3       1 DIH403      0.0000 
      2 C5'        62.4050   48.2060   43.8070 C.3       1 DIH403      0.0000 
      3 C4'        61.1530   48.9610   44.0590 C.3       1 DIH403      0.0000 
      4 C6'        60.7490   49.6120   42.8090 C.3       1 DIH403      0.0000 
      5 C3'        60.0060   48.1110   44.5120 C.3       1 DIH403      0.0000 
      6 O3'        59.1890   48.6530   45.5480 O.3       1 DIH403      0.0000 
      7 C2'        59.4470   47.8960   43.1580 C.3       1 DIH403      0.0000 
      8 N1'        59.4020   49.1800   42.5260 N.4       1 DIH403      0.0000 
      9 C10        59.1440   49.2040   41.1090 C.3       1 DIH403      0.0000 
     10 C9         59.9280   48.6270   39.9890 C.2       1 DIH403      0.0000 
     11 C8         60.8260   49.2350   39.1210 C.2       1 DIH403      0.0000 
     12 N7         61.3580   48.4400   38.2220 N.pl3     1 DIH403      0.0000 
     13 C5         60.7940   47.1980   38.4810 C.3       1 DIH403      0.0000 
     14 C6         60.9840   45.9050   37.8220 C.2       1 DIH403      0.0000 
     15 O6         61.7170   45.6690   36.8670 O.2       1 DIH403      0.0000 
     16 N1         60.2100   44.8290   38.3890 N.am      1 DIH403      0.0000 
     17 C2         59.3210   44.9670   39.4970 C.2       1 DIH403      0.0000 
     18 N3         59.1400   46.1950   40.1230 N.2       1 DIH403      0.0000 
     19 C4         59.9010   47.2830   39.5770 C.3       1 DIH403      0.0000 
     20 H          62.6051   47.5734   44.7805 H         1 DIH403      0.0000 
     21 H          62.1090   47.3117   43.0996 H         1 DIH403      0.0000 
     22 H          61.3351   49.7307   44.8016 H         1 DIH403      0.0000 
     23 H          61.4247   49.3197   42.0059 H         1 DIH403      0.0000 
     24 H          60.7903   50.6943   42.9269 H         1 DIH403      0.0000 
     25 H          60.4788   47.1457   44.7932 H         1 DIH403      0.0000 
     26 H          58.4527   47.4636   43.2444 H         1 DIH403      0.0000 
     27 H          60.0875   47.2086   42.6100 H         1 DIH403      0.0000 
     28 H          58.7324   49.8256   43.0763 H         1 DIH403      0.0000 
     29 H          58.9369   50.3389   40.8066 H         1 DIH403      0.0000 
     30 H          58.0244   48.8263   40.9471 H         1 DIH403      0.0000 
     31 H          61.0291   50.2201   39.2069 H         1 DIH403      0.0000 
     32 H          61.9805   48.6226   37.5404 H         1 DIH403      0.0000 
     33 H          59.6826   47.5085   37.6081 H         1 DIH403      0.0000 
     34 H          60.3111   43.8821   37.9534 H         1 DIH403      0.0000 
     35 H          58.8128   44.1338   39.8261 H         1 DIH403      0.0000 
     36 H          61.0169   47.0162   40.4580 H         1 DIH403      0.0000 
     37 H          63.3929   49.4075   42.6546 H         1 DIH403      0.0000 
     38 H          59.5509   48.2619   46.3942 H         1 DIH403      0.0000 
@<TRIPOS>BOND
     1    2    1 1    
     2   37    1 1    
     3    3    2 1    
     4   20    2 1    
     5   21    2 1    
     6    4    3 1    
     7    5    3 1    
     8   22    3 1    
     9    8    4 1    
    10   23    4 1    
    11   24    4 1    
    12    6    5 1    
    13    7    5 1    
    14   25    5 1    
    15   38    6 1    
    16    8    7 1    
    17   26    7 1    
    18   27    7 1    
    19    9    8 1    
    20   28    8 1    
    21   10    9 1    
    22   29    9 1    
    23   30    9 1    
    24   11   10 2    
    25   19   10 1    
    26   12   11 1    
    27   31   11 1    
    28   13   12 1    
    29   32   12 1    
    30   14   13 1    
    31   19   13 1    
    32   33   13 1    
    33   15   14 2    
    34   16   14 am   
    35   17   16 1    
    36   34   16 1    
    37   18   17 2    
    38   35   17 1    
    39   19   18 1    
    40   36   19 1    
@<TRIPOS>SUBSTRUCTURE
     1 DIH403      1 GROUP   
@<TRIPOS>SET

