#    Name: 3N0G_2_CAVITY_N1_ALL.mol2
#    Modification time : Tue Mar 11 15:20:40 2014

@<TRIPOS>MOLECULE
3N0G_2_CAVITY_N1_ALL.mol2
  129     0     7     0     0
SMALL
NO_CHARGES


@<TRIPOS>ATOM
      1 O          29.3148   65.1143   26.0884 O.2       2 ALA2        0.0000 
      2 DU         28.4263   66.2098   26.5988 H         7 CUB7        0.0000 
      3 OG         27.5379   67.3053   27.1092 O.2       1 SER1        0.0000 
      4 OG         28.3494   64.8522   24.9706 O.2       1 SER1        0.0000 
      5 OG         27.4610   65.9477   25.4810 O.2       1 SER1        0.0000 
      6 OG         26.5725   67.0432   25.9915 O.2       1 SER1        0.0000 
      7 OG         27.3840   64.5901   23.8529 O.2       1 SER1        0.0000 
      8 OG         26.4956   65.6856   24.3633 O.2       1 SER1        0.0000 
      9 DU         25.6072   66.7811   24.8737 H         7 CUB7        0.0000 
     10 OG         24.7187   67.8766   25.3842 O.2       1 SER1        0.0000 
     11 OG         26.4187   64.3280   22.7351 O.2       1 SER1        0.0000 
     12 DU         25.5302   65.4235   23.2455 H         7 CUB7        0.0000 
     13 DU         24.6418   66.5190   23.7560 H         7 CUB7        0.0000 
     14 O          23.7533   67.6145   24.2664 O.2       2 ALA2        0.0000 
     15 DU         24.5649   65.1614   22.1278 H         7 CUB7        0.0000 
     16 DU         23.6764   66.2569   22.6382 H         7 CUB7        0.0000 
     17 CZ         29.5530   64.3859   28.0664 C.ar      5 PHE5        0.0000 
     18 CZ         28.6646   65.4814   28.5768 C.ar      5 PHE5        0.0000 
     19 OG         28.5876   64.1238   26.9486 O.2       1 SER1        0.0000 
     20 CZ         27.6992   65.2193   27.4591 C.ar      5 PHE5        0.0000 
     21 OG         26.7338   64.9572   26.3413 O.2       1 SER1        0.0000 
     22 CZ         25.8454   66.0527   26.8518 C.ar      5 PHE5        0.0000 
     23 OG         25.7685   64.6951   25.2236 O.2       1 SER1        0.0000 
     24 CZ         24.8800   65.7906   25.7340 C.ar      5 PHE5        0.0000 
     25 CZ         23.9916   66.8861   26.2445 C.ar      5 PHE5        0.0000 
     26 CA         23.1031   67.9816   26.7549 C.3       6 GLY6        0.0000 
     27 OG         24.8031   64.4330   24.1058 O.2       1 SER1        0.0000 
     28 DU         23.9146   65.5285   24.6163 H         7 CUB7        0.0000 
     29 DU         23.0262   66.6240   25.1267 H         7 CUB7        0.0000 
     30 CA         22.1378   67.7195   25.6372 C.3       6 GLY6        0.0000 
     31 CZ         24.7262   63.0754   22.4776 C.ar      5 PHE5        0.0000 
     32 CZ         23.8377   64.1709   22.9881 C.ar      5 PHE5        0.0000 
     33 DU         22.0608   66.3619   24.0090 H         7 CUB7        0.0000 
     34 CA         21.1724   67.4574   24.5194 C.3       6 GLY6        0.0000 
     35 NZ         32.6229   66.2620   24.9751 N.2       4 LYS4        0.0000 
     36 O          32.5459   64.9044   23.3469 O.2       2 ALA2        0.0000 
     37 OD1        31.6575   65.9999   23.8574 O.3       3 ASP3        0.0000 
     38 NZ         30.7691   67.0954   24.3678 N.2       4 LYS4        0.0000 
     39 OD1        31.5806   64.6423   22.2292 O.3       3 ASP3        0.0000 
     40 OD1        30.6921   65.7378   22.7396 O.3       3 ASP3        0.0000 
     41 OD1        29.8037   66.8333   23.2500 O.3       3 ASP3        0.0000 
     42 OD1        30.6152   64.3802   21.1114 O.3       3 ASP3        0.0000 
     43 N          29.7268   65.4757   21.6219 N.2       2 ALA2        0.0000 
     44 O          28.8383   66.5712   22.1323 O.2       2 ALA2        0.0000 
     45 O          27.9499   67.6667   22.6427 O.2       2 ALA2        0.0000 
     46 N          29.6498   64.1181   19.9937 N.2       2 ALA2        0.0000 
     47 N          28.7614   65.2136   20.5041 N.2       2 ALA2        0.0000 
     48 DU         27.8730   66.3091   21.0145 H         7 CUB7        0.0000 
     49 O          31.8957   65.2715   25.8354 O.2       2 ALA2        0.0000 
     50 NZ         31.0073   66.3670   26.3458 N.2       4 LYS4        0.0000 
     51 CA         30.1188   67.4625   26.8563 C.3       6 GLY6        0.0000 
     52 O          31.8188   63.9139   24.2072 O.2       2 ALA2        0.0000 
     53 O          30.9304   65.0094   24.7176 O.2       2 ALA2        0.0000 
     54 NZ         30.0419   66.1049   25.2281 N.2       4 LYS4        0.0000 
     55 NZ         29.1535   67.2004   25.7385 N.2       4 LYS4        0.0000 
     56 OG         28.2650   68.2959   26.2490 O.2       1 SER1        0.0000 
     57 OD1        34.2385   66.1571   23.6044 O.3       3 ASP3        0.0000 
     58 OD1        33.2731   65.8950   22.4866 O.3       3 ASP3        0.0000 
     59 OD1        30.4539   66.4663   20.7616 O.3       3 ASP3        0.0000 
     60 OD1        30.3770   65.1087   19.1334 O.3       3 ASP3        0.0000 
     61 DU         22.8724   63.9088   21.8703 H         7 CUB7        0.0000 
     62 DU         21.0955   66.0998   22.8912 H         7 CUB7        0.0000 
     63 CZ         26.0067   63.9666   27.2016 C.ar      5 PHE5        0.0000 
     64 OG         25.0413   63.7045   26.0839 O.2       1 SER1        0.0000 
     65 CZ         24.1529   64.8000   26.5943 C.ar      5 PHE5        0.0000 
     66 CZ         23.2644   65.8955   27.1047 C.ar      5 PHE5        0.0000 
     67 CZ         22.3760   66.9910   27.6152 C.ar      5 PHE5        0.0000 
     68 OG         24.0760   63.4424   24.9661 O.2       1 SER1        0.0000 
     69 DU         23.1875   64.5379   25.4765 H         7 CUB7        0.0000 
     70 CA         22.2991   65.6334   25.9870 C.3       6 GLY6        0.0000 
     71 CA         21.4106   66.7289   26.4974 C.3       6 GLY6        0.0000 
     72 CZ         23.1106   63.1803   23.8484 C.ar      5 PHE5        0.0000 
     73 DU         22.2221   64.2758   24.3588 H         7 CUB7        0.0000 
     74 DU         21.3337   65.3713   24.8692 H         7 CUB7        0.0000 
     75 CA         20.4452   66.4668   25.3797 C.3       6 GLY6        0.0000 
     76 CZ         23.0337   61.8227   22.2202 C.ar      5 PHE5        0.0000 
     77 N          22.1452   62.9182   22.7306 N.2       2 ALA2        0.0000 
     78 DU         21.2568   64.0137   23.2410 H         7 CUB7        0.0000 
     79 DU         20.3683   65.1092   23.7515 H         7 CUB7        0.0000 
     80 CA         19.4799   66.2047   24.2619 C.3       6 GLY6        0.0000 
     81 N          21.1798   62.6561   21.6128 N.2       2 ALA2        0.0000 
     82 DU         20.2914   63.7516   22.1233 H         7 CUB7        0.0000 
     83 CA         19.4030   64.8471   22.6337 C.3       6 GLY6        0.0000 
     84 CA         18.5145   65.9426   23.1442 C.3       6 GLY6        0.0000 
     85 NZ         18.4376   64.5850   21.5160 N.2       4 LYS4        0.0000 
     86 OG         24.3142   62.7140   26.9441 O.2       1 SER1        0.0000 
     87 CZ         23.4257   63.8095   27.4546 C.ar      5 PHE5        0.0000 
     88 CZ         22.5373   64.9050   27.9650 C.ar      5 PHE5        0.0000 
     89 CA         21.6488   66.0005   28.4755 C.3       6 GLY6        0.0000 
     90 OG         23.3488   62.4519   25.8264 O.2       1 SER1        0.0000 
     91 CA         22.4604   63.5474   26.3368 C.3       6 GLY6        0.0000 
     92 CA         21.5719   64.6429   26.8473 C.3       6 GLY6        0.0000 
     93 N          22.3834   62.1898   24.7086 N.2       2 ALA2        0.0000 
     94 CA         21.4950   63.2853   25.2191 C.3       6 GLY6        0.0000 
     95 CA         20.6066   64.3808   25.7295 C.3       6 GLY6        0.0000 
     96 CA         19.7181   65.4763   26.2400 C.3       6 GLY6        0.0000 
     97 N          20.5296   63.0232   24.1013 N.2       2 ALA2        0.0000 
     98 CA         19.6412   64.1187   24.6118 C.3       6 GLY6        0.0000 
     99 CA         18.7527   65.2142   25.1222 C.3       6 GLY6        0.0000 
    100 OG         19.5643   62.7611   22.9836 O.2       1 SER1        0.0000 
    101 N          21.8102   63.9144   28.8253 N.2       2 ALA2        0.0000 
    102 CA         21.7332   62.5568   27.1971 C.3       6 GLY6        0.0000 
    103 N          20.8448   63.6523   27.7075 N.2       2 ALA2        0.0000 
    104 CA         19.9563   64.7478   28.2180 C.3       6 GLY6        0.0000 
    105 O          29.0765   65.8428   24.1103 O.2       2 ALA2        0.0000 
    106 O          28.1881   66.9383   24.6208 O.2       2 ALA2        0.0000 
    107 O          27.2997   68.0338   25.1312 O.2       2 ALA2        0.0000 
    108 OG         26.4112   69.1293   25.6417 O.2       1 SER1        0.0000 
    109 O          28.9996   64.4852   22.4821 O.2       2 ALA2        0.0000 
    110 O          28.1112   65.5807   22.9926 O.2       2 ALA2        0.0000 
    111 O          27.2227   66.6762   23.5030 O.2       2 ALA2        0.0000 
    112 O          26.3343   67.7717   24.0135 O.2       2 ALA2        0.0000 
    113 O          25.4458   68.8672   24.5239 O.2       2 ALA2        0.0000 
    114 N          28.0343   64.2231   21.3644 N.2       2 ALA2        0.0000 
    115 DU         27.1458   65.3186   21.8748 H         7 CUB7        0.0000 
    116 DU         26.2574   66.4141   22.3853 H         7 CUB7        0.0000 
    117 O          25.3689   67.5096   22.8957 O.2       2 ALA2        0.0000 
    118 O          24.4805   68.6051   23.4061 O.2       2 ALA2        0.0000 
    119 N          31.1686   64.2809   26.6957 N.2       2 ALA2        0.0000 
    120 N          30.2801   65.3764   27.2061 N.2       2 ALA2        0.0000 
    121 CA         29.3917   66.4719   27.7166 C.3       6 GLY6        0.0000 
    122 OG         28.5033   67.5674   28.2270 O.2       1 SER1        0.0000 
    123 CA         20.7679   62.2947   26.0794 C.3       6 GLY6        0.0000 
    124 CA         19.8794   63.3902   26.5898 C.3       6 GLY6        0.0000 
    125 CA         18.9910   64.4857   27.1002 C.3       6 GLY6        0.0000 
    126 N          19.8025   62.0326   24.9616 N.2       2 ALA2        0.0000 
    127 CA         18.9141   63.1281   25.4720 C.3       6 GLY6        0.0000 
    128 CA         18.0256   64.2236   25.9825 C.3       6 GLY6        0.0000 
    129 CZ         20.1176   62.6618   28.5678 C.ar      5 PHE5        0.0000 
@<TRIPOS>BOND
@<TRIPOS>SUBSTRUCTURE
     1 SER1        3 GROUP   
     2 ALA2        1 GROUP   
     3 ASP3       37 GROUP   
     4 LYS4       35 GROUP   
     5 PHE5       17 GROUP   
     6 GLY6       26 GROUP   
     7 CUB7        2 GROUP   
@<TRIPOS>SET

