#    Name: 3N0G_2_CAVITY_N1_6.mol2
#    Modification time : Tue Mar 11 15:20:40 2014

@<TRIPOS>MOLECULE
3N0G_2_CAVITY_N1_6.mol2
   79     0     7     0     0
SMALL
NO_CHARGES


@<TRIPOS>ATOM
      1 O          29.3148   65.1143   26.0884 O.2       2 ALA2        0.0000 
      2 DU         28.4263   66.2098   26.5988 H         7 CUB7        0.0000 
      3 OG         27.5379   67.3053   27.1092 O.2       1 SER1        0.0000 
      4 OG         28.3494   64.8522   24.9706 O.2       1 SER1        0.0000 
      5 OG         27.4610   65.9477   25.4810 O.2       1 SER1        0.0000 
      6 OG         26.5725   67.0432   25.9915 O.2       1 SER1        0.0000 
      7 OG         27.3840   64.5901   23.8529 O.2       1 SER1        0.0000 
      8 OG         26.4956   65.6856   24.3633 O.2       1 SER1        0.0000 
      9 DU         25.6072   66.7811   24.8737 H         7 CUB7        0.0000 
     10 OG         24.7187   67.8766   25.3842 O.2       1 SER1        0.0000 
     11 OG         26.4187   64.3280   22.7351 O.2       1 SER1        0.0000 
     12 DU         25.5302   65.4235   23.2455 H         7 CUB7        0.0000 
     13 DU         24.6418   66.5190   23.7560 H         7 CUB7        0.0000 
     14 O          23.7533   67.6145   24.2664 O.2       2 ALA2        0.0000 
     15 DU         24.5649   65.1614   22.1278 H         7 CUB7        0.0000 
     16 DU         23.6764   66.2569   22.6382 H         7 CUB7        0.0000 
     17 CZ         29.5530   64.3859   28.0664 C.ar      5 PHE5        0.0000 
     18 CZ         28.6646   65.4814   28.5768 C.ar      5 PHE5        0.0000 
     19 OG         28.5876   64.1238   26.9486 O.2       1 SER1        0.0000 
     20 CZ         27.6992   65.2193   27.4591 C.ar      5 PHE5        0.0000 
     21 OG         26.7338   64.9572   26.3413 O.2       1 SER1        0.0000 
     22 CZ         25.8454   66.0527   26.8518 C.ar      5 PHE5        0.0000 
     23 OG         25.7685   64.6951   25.2236 O.2       1 SER1        0.0000 
     24 CZ         24.8800   65.7906   25.7340 C.ar      5 PHE5        0.0000 
     25 CZ         23.9916   66.8861   26.2445 C.ar      5 PHE5        0.0000 
     26 OG         24.8031   64.4330   24.1058 O.2       1 SER1        0.0000 
     27 DU         23.9146   65.5285   24.6163 H         7 CUB7        0.0000 
     28 CZ         24.7262   63.0754   22.4776 C.ar      5 PHE5        0.0000 
     29 NZ         32.6229   66.2620   24.9751 N.2       4 LYS4        0.0000 
     30 O          32.5459   64.9044   23.3469 O.2       2 ALA2        0.0000 
     31 OD1        31.6575   65.9999   23.8574 O.3       3 ASP3        0.0000 
     32 NZ         30.7691   67.0954   24.3678 N.2       4 LYS4        0.0000 
     33 OD1        31.5806   64.6423   22.2292 O.3       3 ASP3        0.0000 
     34 OD1        30.6921   65.7378   22.7396 O.3       3 ASP3        0.0000 
     35 OD1        29.8037   66.8333   23.2500 O.3       3 ASP3        0.0000 
     36 OD1        30.6152   64.3802   21.1114 O.3       3 ASP3        0.0000 
     37 N          29.7268   65.4757   21.6219 N.2       2 ALA2        0.0000 
     38 O          28.8383   66.5712   22.1323 O.2       2 ALA2        0.0000 
     39 O          27.9499   67.6667   22.6427 O.2       2 ALA2        0.0000 
     40 N          29.6498   64.1181   19.9937 N.2       2 ALA2        0.0000 
     41 N          28.7614   65.2136   20.5041 N.2       2 ALA2        0.0000 
     42 DU         27.8730   66.3091   21.0145 H         7 CUB7        0.0000 
     43 O          31.8957   65.2715   25.8354 O.2       2 ALA2        0.0000 
     44 NZ         31.0073   66.3670   26.3458 N.2       4 LYS4        0.0000 
     45 CA         30.1188   67.4625   26.8563 C.3       6 GLY6        0.0000 
     46 O          31.8188   63.9139   24.2072 O.2       2 ALA2        0.0000 
     47 O          30.9304   65.0094   24.7176 O.2       2 ALA2        0.0000 
     48 NZ         30.0419   66.1049   25.2281 N.2       4 LYS4        0.0000 
     49 NZ         29.1535   67.2004   25.7385 N.2       4 LYS4        0.0000 
     50 OG         28.2650   68.2959   26.2490 O.2       1 SER1        0.0000 
     51 OD1        34.2385   66.1571   23.6044 O.3       3 ASP3        0.0000 
     52 OD1        33.2731   65.8950   22.4866 O.3       3 ASP3        0.0000 
     53 OD1        30.4539   66.4663   20.7616 O.3       3 ASP3        0.0000 
     54 OD1        30.3770   65.1087   19.1334 O.3       3 ASP3        0.0000 
     55 CZ         26.0067   63.9666   27.2016 C.ar      5 PHE5        0.0000 
     56 OG         25.0413   63.7045   26.0839 O.2       1 SER1        0.0000 
     57 CZ         24.1529   64.8000   26.5943 C.ar      5 PHE5        0.0000 
     58 CZ         23.2644   65.8955   27.1047 C.ar      5 PHE5        0.0000 
     59 OG         24.0760   63.4424   24.9661 O.2       1 SER1        0.0000 
     60 OG         24.3142   62.7140   26.9441 O.2       1 SER1        0.0000 
     61 CZ         23.4257   63.8095   27.4546 C.ar      5 PHE5        0.0000 
     62 O          29.0765   65.8428   24.1103 O.2       2 ALA2        0.0000 
     63 O          28.1881   66.9383   24.6208 O.2       2 ALA2        0.0000 
     64 O          27.2997   68.0338   25.1312 O.2       2 ALA2        0.0000 
     65 OG         26.4112   69.1293   25.6417 O.2       1 SER1        0.0000 
     66 O          28.9996   64.4852   22.4821 O.2       2 ALA2        0.0000 
     67 O          28.1112   65.5807   22.9926 O.2       2 ALA2        0.0000 
     68 O          27.2227   66.6762   23.5030 O.2       2 ALA2        0.0000 
     69 O          26.3343   67.7717   24.0135 O.2       2 ALA2        0.0000 
     70 O          25.4458   68.8672   24.5239 O.2       2 ALA2        0.0000 
     71 N          28.0343   64.2231   21.3644 N.2       2 ALA2        0.0000 
     72 DU         27.1458   65.3186   21.8748 H         7 CUB7        0.0000 
     73 DU         26.2574   66.4141   22.3853 H         7 CUB7        0.0000 
     74 O          25.3689   67.5096   22.8957 O.2       2 ALA2        0.0000 
     75 O          24.4805   68.6051   23.4061 O.2       2 ALA2        0.0000 
     76 N          31.1686   64.2809   26.6957 N.2       2 ALA2        0.0000 
     77 N          30.2801   65.3764   27.2061 N.2       2 ALA2        0.0000 
     78 CA         29.3917   66.4719   27.7166 C.3       6 GLY6        0.0000 
     79 OG         28.5033   67.5674   28.2270 O.2       1 SER1        0.0000 
@<TRIPOS>BOND
@<TRIPOS>SUBSTRUCTURE
     1 SER1        3 GROUP   
     2 ALA2        1 GROUP   
     3 ASP3       31 GROUP   
     4 LYS4       29 GROUP   
     5 PHE5       17 GROUP   
     6 GLY6       45 GROUP   
     7 CUB7        2 GROUP   
@<TRIPOS>SET

