#    Name: 3n0g_DST_2_INTS_M
#    Modification time : Tue Mar 25 00:28:55 2014

@<TRIPOS>MOLECULE
3n0g_DST_2_INTS_M
   32     0     9     0     0
SMALL
NO_CHARGES


@<TRIPOS>ATOM
      1 Zn         34.9285   68.3145   22.9255 Zn        2 ZIC7        0.0000 
      2 Zn         34.4030   67.6950   22.0890 Zn        8 ZIL7        0.0000 
      3 Zn         35.4540   68.9340   23.7620 Zn        5 ZIP7        0.0000 
      4 Zn         33.2740   68.1670   22.0165 Zn        2 ZIC7        0.0000 
      5 Zn         32.1450   68.6390   21.9440 Zn        5 ZIP7        0.0000 
      6 Zn         35.2035   67.6365   23.9855 Zn        2 ZIC7        0.0000 
      7 Zn         34.9530   66.3390   24.2090 Zn        8 ZIL7        0.0000 
      8 Zn         33.8255   64.6700   21.0485 Zn        2 ZIC7        0.0000 
      9 Zn         34.5850   65.1370   21.9990 Zn        8 ZIL7        0.0000 
     10 Zn         33.0660   64.2030   20.0980 Zn        5 ZIP7        0.0000 
     11 Zn         32.3610   67.4180   22.5765 Zn        2 ZIC7        0.0000 
     12 Zn         32.5770   66.1970   23.2090 Zn        8 ZIL7        0.0000 
     13 Zn         31.8300   67.6175   21.4185 Zn        2 ZIC7        0.0000 
     14 Zn         31.5150   66.5960   20.8930 Zn        8 ZIL7        0.0000 
     15 Zn         32.3005   64.2240   21.0175 Zn        2 ZIC7        0.0000 
     16 Zn         31.5350   64.2450   21.9370 Zn        8 ZIL7        0.0000 
     17 N          32.6150   63.0385   22.5670 N.am      1 SEC2        0.0000 
     18 N          31.5350   64.2450   21.9370 N.am      7 SEL2        0.0000 
     19 N          33.6950   61.8320   23.1970 N.am      4 SEP2        0.0000 
     20 CA         30.9810   68.7695   25.3895 C.3       3 GLC5        0.0000 
     21 CA         29.7570   67.1080   24.5200 C.3       9 GLL5        0.0000 
     22 CA         32.2050   70.4310   26.2590 C.3       6 GLP5        0.0000 
     23 CA         27.4200   65.0625   28.8910 C.3       3 GLC5        0.0000 
     24 CA         28.8420   65.1400   27.8140 C.3       9 GLL5        0.0000 
     25 CA         25.9980   64.9850   29.9680 C.3       6 GLP5        0.0000 
     26 CA         28.9265   63.3850   28.3660 C.3       3 GLC5        0.0000 
     27 CA         29.0110   61.6300   28.9180 C.3       6 GLP5        0.0000 
     28 CA         31.2585   66.8250   28.3935 C.3       3 GLC5        0.0000 
     29 CA         31.1660   65.3550   26.7910 C.3       9 GLL5        0.0000 
     30 CA         31.3510   68.2950   29.9960 C.3       6 GLP5        0.0000 
     31 CA         32.5285   64.0355   27.6625 C.3       3 GLC5        0.0000 
     32 CA         33.8910   62.7160   28.5340 C.3       6 GLP5        0.0000 
@<TRIPOS>BOND
@<TRIPOS>SUBSTRUCTURE
     1 SEC2       17 GROUP        1 X    SEC  0     ROOT SEC X 2
     2 ZIC7        1 GROUP        1 X    ZIC  0     **** ZIC X 5
     3 GLC5       20 GROUP        1 X    GLC  0     **** GLC X 6
     4 SEP2       19 GROUP        1 Y    SEP  0     ROOT SEP Y 9
     5 ZIP7        3 GROUP        1 Y    ZIP  0     **** ZIP Y 12
     6 GLP5       22 GROUP        1 Y    GLP  0     **** GLP Y 13
     7 SEL2       18 GROUP        1 Z    SEL  0     ROOT SEL Z 16
     8 ZIL7        2 GROUP        1 Z    ZIL  0     **** ZIL Z 19
     9 GLL5       21 GROUP        1 Z    GLL  0     **** GLL Z 20
@<TRIPOS>SET

