#    Name: 3n0g_DST_2_ligand
#    Modification time : Tue Mar 25 00:28:55 2014

@<TRIPOS>MOLECULE
3n0g_DST_2_ligand
   25    24     1     0     0
SMALL
NO_CHARGES


@<TRIPOS>ATOM
      1 O4         34.4030   67.6950   22.0890 O.co2     1 DST612      0.0000 
      2 P1         34.1320   66.2980   22.8330 P.3       1 DST612      0.0000 
      3 O6         34.9530   66.3390   24.2090 O.co2     1 DST612      0.0000 
      4 O5         34.5850   65.1370   21.9990 O.co2     1 DST612      0.0000 
      5 O2         32.5770   66.1970   23.2090 O.3       1 DST612      0.0000 
      6 P3         31.3800   65.7090   22.2400 P.3       1 DST612      0.0000 
      7 O8         31.5150   66.5960   20.8930 O.co2     1 DST612      0.0000 
      8 O7         31.5350   64.2450   21.9370 O.co2     1 DST612      0.0000 
      9 S9         29.5780   66.0150   23.0690 S.3       1 DST612      0.0000 
     10 C10        29.7570   67.1080   24.5200 C.3       1 DST612      0.0000 
     11 C11        29.1010   66.4560   25.7140 C.3       1 DST612      0.0000 
     12 C12        29.6810   65.7090   26.6860 C.3       1 DST612      0.0000 
     13 C13        28.8420   65.1400   27.8140 C.3       1 DST612      0.0000 
     14 C14        31.1660   65.3550   26.7910 C.3       1 DST612      0.0000 
     15 H          29.2784   67.9927   24.1875 H         1 DST612      0.0000 
     16 H          30.8097   67.1999   24.5959 H         1 DST612      0.0000 
     17 H          28.1758   65.8656   25.2514 H         1 DST612      0.0000 
     18 H          28.4601   67.3303   26.2074 H         1 DST612      0.0000 
     19 H          29.4623   64.4779   25.9591 H         1 DST612      0.0000 
     20 H          29.3945   64.6086   28.4562 H         1 DST612      0.0000 
     21 H          28.3912   65.8602   28.3413 H         1 DST612      0.0000 
     22 H          28.1240   64.5331   27.4732 H         1 DST612      0.0000 
     23 H          31.7384   66.1719   26.8618 H         1 DST612      0.0000 
     24 H          31.3577   64.7922   27.5951 H         1 DST612      0.0000 
     25 H          31.4831   64.8432   25.9926 H         1 DST612      0.0000 
@<TRIPOS>BOND
     1    2    1 ar   
     2    3    2 ar   
     3    4    2 ar   
     4    5    2 1    
     5    6    5 1    
     6    7    6 ar   
     7    8    6 ar   
     8    9    6 1    
     9   10    9 1    
    10   11   10 1    
    11   15   10 1    
    12   16   10 1    
    13   12   11 1    
    14   17   11 1    
    15   18   11 1    
    16   13   12 1    
    17   14   12 1    
    18   19   12 1    
    19   20   13 1    
    20   21   13 1    
    21   22   13 1    
    22   23   14 1    
    23   24   14 1    
    24   25   14 1    
@<TRIPOS>SUBSTRUCTURE
     1 DST612      1 GROUP   
@<TRIPOS>SET

