#    Name: 3jyn_NDP_1_INTS_M
#    Modification time : Tue Mar 25 18:02:43 2014

@<TRIPOS>MOLECULE
3jyn_NDP_1_INTS_M
  111     0    12     0     0
SMALL
NO_CHARGES


@<TRIPOS>ATOM
      1 N          26.7295    0.9205   14.1810 N.am      2 SEC2        0.0000 
      2 N          27.3710   -0.2990   13.8290 N.am     10 SEL2        0.0000 
      3 N          26.0880    2.1400   14.5330 N.am      6 SEP2        0.0000 
      4 N          25.9290    0.5935   15.1265 N.am      2 SEC2        0.0000 
      5 N          25.7700   -0.9530   15.7200 N.am     10 SEL2        0.0000 
      6 CA         27.5985   -4.9075   14.7320 C.3       4 GLC5        0.0000 
      7 CA         27.1990   -3.5750   15.7780 C.3      12 GLL5        0.0000 
      8 CA         27.9980   -6.2400   13.6860 C.3       8 GLP5        0.0000 
      9 CA         26.2220   -5.4600   16.3410 C.3       4 GLC5        0.0000 
     10 CA         25.2450   -7.3450   16.9040 C.3       8 GLP5        0.0000 
     11 CA         26.2195   -2.3380   18.6430 C.3       4 GLC5        0.0000 
     12 CA         27.4910   -3.1150   17.1660 C.3      12 GLL5        0.0000 
     13 CA         24.9480   -1.5610   20.1200 C.3       8 GLP5        0.0000 
     14 CA         30.7875   -3.9255   18.0850 C.3       4 GLC5        0.0000 
     15 CA         28.9500   -3.1890   17.6360 C.3      12 GLL5        0.0000 
     16 CA         32.6250   -4.6620   18.5340 C.3       8 GLP5        0.0000 
     17 O          29.6960   -0.6100   17.7525 O.2       1 ALC1        0.0000 
     18 O          29.6140   -1.9480   17.2860 O.2       9 ALL1        0.0000 
     19 O          29.7780    0.7280   18.2190 O.2       5 ALP1        0.0000 
     20 CA         30.3440   -4.7675   18.7570 C.3       4 GLC5        0.0000 
     21 CA         28.7890   -3.5440   19.1120 C.3      12 GLL5        0.0000 
     22 CA         31.8990   -5.9910   18.4020 C.3       8 GLP5        0.0000 
     23 CA         26.3190   -5.8255   18.0560 C.3       4 GLC5        0.0000 
     24 CA         27.3930   -4.3060   19.2080 C.3      12 GLL5        0.0000 
     25 CA         27.4475   -7.4825   16.9610 C.3       4 GLC5        0.0000 
     26 CA         29.6500   -7.6200   17.0180 C.3      12 GLL5        0.0000 
     27 CA         30.7350   -7.4730   15.0640 C.3       4 GLC5        0.0000 
     28 CA         31.8200   -7.3260   13.1100 C.3       8 GLP5        0.0000 
     29 CA         30.7745   -6.8055   17.7100 C.3       4 GLC5        0.0000 
     30 CA         30.1555   -6.2800   18.5745 C.3       4 GLC5        0.0000 
     31 CA         28.4120   -6.5690   18.7470 C.3      12 GLL5        0.0000 
     32 N          23.6495    1.2065   13.5660 N.am      2 SEC2        0.0000 
     33 N          24.0580    0.0670   12.9890 N.am     10 SEL2        0.0000 
     34 N          23.2410    2.3460   14.1430 N.am      6 SEP2        0.0000 
     35 N          25.0115   -2.8780   10.1870 N.am      2 SEC2        0.0000 
     36 N          24.7110   -1.5920   11.1160 N.am     10 SEL2        0.0000 
     37 N          25.3120   -4.1640    9.2580 N.am      6 SEP2        0.0000 
     38 CA         21.8590   -0.9655   13.8700 C.3       4 GLC5        0.0000 
     39 CA         22.8080   -2.5200   14.4450 C.3      12 GLL5        0.0000 
     40 CA         20.9100    0.5890   13.2950 C.3       8 GLP5        0.0000 
     41 CA         20.8890   -4.3025   16.4675 C.3       4 GLC5        0.0000 
     42 CA         21.8830   -3.6860   14.5870 C.3      12 GLL5        0.0000 
     43 CA         19.8950   -4.9190   18.3480 C.3       8 GLP5        0.0000 
     44 CA         20.1635   -2.9150   15.2335 C.3       4 GLC5        0.0000 
     45 CA         18.4440   -2.1440   15.8800 C.3       8 GLP5        0.0000 
     46 CA         20.7700   -6.0260   14.8545 C.3       4 GLC5        0.0000 
     47 CA         22.4310   -4.9920   13.9910 C.3      12 GLL5        0.0000 
     48 CA         19.1090   -7.0600   15.7180 C.3       8 GLP5        0.0000 
     49 N          21.4290   -7.4835   15.2770 N.am      2 SEC2        0.0000 
     50 N          22.1340   -6.1010   14.8550 N.am     10 SEL2        0.0000 
     51 N          20.7240   -8.8660   15.6990 N.am      6 SEP2        0.0000 
     52 N          22.7865   -7.4940   15.6170 N.am      2 SEC2        0.0000 
     53 N          23.4390   -8.8870   16.3790 N.am      6 SEP2        0.0000 
     54 O          21.9085   -6.1510   16.1380 O.2       1 ALC1        0.0000 
     55 O          22.1340   -6.1010   14.8550 O.2       9 ALL1        0.0000 
     56 O          21.6830   -6.2010   17.4210 O.2       5 ALP1        0.0000 
     57 CA         18.8670   -3.7510   14.1855 C.3       4 GLC5        0.0000 
     58 CA         20.3350   -4.5660   12.9690 C.3      12 GLL5        0.0000 
     59 CA         17.3990   -2.9360   15.4020 C.3       8 GLP5        0.0000 
     60 CA         19.7220   -5.8130   14.3435 C.3       4 GLC5        0.0000 
     61 N          13.9540   -3.4870    9.5525 N.am      2 SEC2        0.0000 
     62 N          14.9970   -3.3550   10.3140 N.am     10 SEL2        0.0000 
     63 N          12.9110   -3.6190    8.7910 N.am      6 SEP2        0.0000 
     64 O          16.2730   -5.3660   13.0740 O.2       1 ALC1        0.0000 
     65 O          15.3880   -4.8390   11.9390 O.2       9 ALL1        0.0000 
     66 O          17.1580   -5.8930   14.2090 O.2       5 ALP1        0.0000 
     67 O          14.1105   -5.5675   12.3035 O.2       1 ALC1        0.0000 
     68 O          12.8330   -6.2960   12.6680 O.2       5 ALP1        0.0000 
     69 CA         20.4420   -1.1410   12.2125 C.3       4 GLC5        0.0000 
     70 CA         19.9740   -2.8710   11.1300 C.3      12 GLL5        0.0000 
     71 NZ         30.6280   -0.9215   20.8170 N.4       3 LYC4        0.0000 
     72 NZ         29.2680   -1.0740   22.0020 N.4      11 LYL4        0.0000 
     73 NZ         31.9880   -0.7690   19.6320 N.4       7 LYP4        0.0000 
     74 N          29.8240   -0.9880   23.5375 N.am      2 SEC2        0.0000 
     75 N          29.2680   -1.0740   22.0020 N.am     10 SEL2        0.0000 
     76 N          30.3800   -0.9020   25.0730 N.am      6 SEP2        0.0000 
     77 NZ         29.5655   -4.5120   22.4985 N.4       3 LYC4        0.0000 
     78 NZ         28.7920   -3.4880   22.1240 N.4      11 LYL4        0.0000 
     79 NZ         30.9630   -6.3260   22.0100 N.4       7 LYP4        0.0000 
     80 N          27.6940   -3.7145   22.6935 N.am      2 SEC2        0.0000 
     81 N          28.7920   -3.4880   22.1240 N.am     10 SEL2        0.0000 
     82 N          26.5960   -3.9410   23.2630 N.am      6 SEP2        0.0000 
     83 N          29.5655   -4.5120   22.4985 N.am      2 SEC2        0.0000 
     84 N          30.3390   -5.5360   22.8730 N.am      6 SEP2        0.0000 
     85 NZ         31.4645   -1.7615   20.4055 N.4       3 LYC4        0.0000 
     86 NZ         30.9410   -2.7540   21.1790 N.4      11 LYL4        0.0000 
     87 NZ         30.6400   -4.1450   22.0260 N.4       3 LYC4        0.0000 
     88 N          31.7025   -2.4075   22.2680 N.am      2 SEC2        0.0000 
     89 N          30.9410   -2.7540   21.1790 N.am     10 SEL2        0.0000 
     90 N          32.4640   -2.0610   23.3570 N.am      6 SEP2        0.0000 
     91 N          31.4645   -1.7615   20.4055 N.am      2 SEC2        0.0000 
     92 N          31.9880   -0.7690   19.6320 N.am      6 SEP2        0.0000 
     93 N          31.0485   -4.3390   20.9685 N.am      2 SEC2        0.0000 
     94 N          31.1560   -5.9240   20.7580 N.am      6 SEP2        0.0000 
     95 N          30.6400   -4.1450   22.0260 N.am      2 SEC2        0.0000 
     96 CA         26.5195   -2.7430   19.6400 C.3       4 GLC5        0.0000 
     97 CA         26.8405   -7.2490   18.0092 C.3       4 GLC5        0.0000 
     98 CA         27.3143   -9.7405   19.1662 C.3       4 GLC5        0.0000 
     99 CA         28.4600   -7.7370   19.4820 C.3      12 GLL5        0.0000 
    100 CA         25.8420  -11.1690   19.0910 C.3       8 GLP5        0.0000 
    101 CA         30.3087   -7.5150   19.4888 C.3       4 GLC5        0.0000 
    102 CA         29.1130   -8.8870   19.0010 C.3      12 GLL5        0.0000 
    103 CA         31.8310   -6.7180   19.7360 C.3       8 GLP5        0.0000 
    104 CA         23.5907   -5.2135   12.3247 C.3       4 GLC5        0.0000 
    105 CA         25.1100   -5.4180   11.3430 C.3       8 GLP5        0.0000 
    106 CA         17.3000   -1.2614   11.4489 C.3       4 GLC5        0.0000 
    107 CA         19.1130   -2.2170   10.2320 C.3      12 GLL5        0.0000 
    108 CA         16.2990    0.1160   12.4500 C.3       8 GLP5        0.0000 
    109 CA         19.3850   -1.5381    9.0625 C.3       4 GLC5        0.0000 
    110 CA         17.7270   -2.5660   10.2200 C.3      12 GLL5        0.0000 
    111 CA         19.5730   -0.4450    7.4470 C.3       8 GLP5        0.0000 
@<TRIPOS>BOND
@<TRIPOS>SUBSTRUCTURE
     1 ALC1       17 GROUP        1 X    ALC  0     ROOT ALC X 1
     2 SEC2        1 GROUP        1 X    SEC  0     **** SEC X 2
     3 LYC4       71 GROUP        1 X    LYC  0     **** LYC X 4
     4 GLC5        6 GROUP        1 X    GLC  0     **** GLC X 6
     5 ALP1       19 GROUP        1 Y    ALP  0     ROOT ALP Y 8
     6 SEP2        3 GROUP        1 Y    SEP  0     **** SEP Y 9
     7 LYP4       73 GROUP        1 Y    LYP  0     **** LYP Y 11
     8 GLP5        8 GROUP        1 Y    GLP  0     **** GLP Y 13
     9 ALL1       18 GROUP        1 Z    ALL  0     ROOT ALL Z 15
    10 SEL2        2 GROUP        1 Z    SEL  0     **** SEL Z 16
    11 LYL4       72 GROUP        1 Z    LYL  0     **** LYL Z 18
    12 GLL5        7 GROUP        1 Z    GLL  0     **** GLL Z 20
@<TRIPOS>SET

