#    Name: 3jyn_NDP_1_ligand
#    Modification time : Tue Mar 25 18:02:43 2014

@<TRIPOS>MOLECULE
3jyn_NDP_1_ligand
   74    78     1     0     0
SMALL
NO_CHARGES


@<TRIPOS>ATOM
      1 PA         26.5920   -1.3510   14.5330 P.3       1 NDP350      0.0000 
      2 O1A        27.3710   -0.2990   13.8290 O.co2     1 NDP350      0.0000 
      3 O2A        25.7700   -0.9530   15.7200 O.co2     1 NDP350      0.0000 
      4 O5B        27.5510   -2.5300   14.8950 O.3       1 NDP350      0.0000 
      5 C5B        27.1990   -3.5750   15.7780 C.3       1 NDP350      0.0000 
      6 C4B        27.4910   -3.1150   17.1660 C.3       1 NDP350      0.0000 
      7 O4B        26.7350   -4.0050   17.9910 O.3       1 NDP350      0.0000 
      8 C3B        28.9500   -3.1890   17.6360 C.3       1 NDP350      0.0000 
      9 O3B        29.6140   -1.9480   17.2860 O.3       1 NDP350      0.0000 
     10 C2B        28.7890   -3.5440   19.1120 C.3       1 NDP350      0.0000 
     11 O2B        28.8640   -2.3590   19.8980 O.3       1 NDP350      0.0000 
     12 C1B        27.3930   -4.3060   19.2080 C.3       1 NDP350      0.0000 
     13 N9A        27.7200   -5.7260   19.5410 N.pl3     1 NDP350      0.0000 
     14 C8A        27.3850   -6.3730   20.6680 C.2       1 NDP350      0.0000 
     15 N7A        27.8460   -7.6330   20.6380 N.2       1 NDP350      0.0000 
     16 C5A        28.4600   -7.7370   19.4820 C.ar      1 NDP350      0.0000 
     17 C6A        29.1130   -8.8870   19.0010 C.ar      1 NDP350      0.0000 
     18 N6A        29.1780  -10.0200   19.6900 N.pl3     1 NDP350      0.0000 
     19 N1A        29.6860   -8.7760   17.7750 N.ar      1 NDP350      0.0000 
     20 C2A        29.6500   -7.6200   17.0180 C.ar      1 NDP350      0.0000 
     21 N3A        29.0190   -6.5210   17.4990 N.ar      1 NDP350      0.0000 
     22 C4A        28.4120   -6.5690   18.7470 C.ar      1 NDP350      0.0000 
     23 O3         25.6280   -1.9020   13.4050 O.3       1 NDP350      0.0000 
     24 PN         24.4070   -1.3410   12.5870 P.3       1 NDP350      0.0000 
     25 O1N        24.0580    0.0670   12.9890 O.co2     1 NDP350      0.0000 
     26 O2N        24.7110   -1.5920   11.1160 O.co2     1 NDP350      0.0000 
     27 O5D        23.3200   -2.4420   13.1190 O.3       1 NDP350      0.0000 
     28 C5D        22.8080   -2.5200   14.4450 C.3       1 NDP350      0.0000 
     29 C4D        21.8830   -3.6860   14.5870 C.3       1 NDP350      0.0000 
     30 O4D        20.6200   -3.4580   13.9300 O.3       1 NDP350      0.0000 
     31 C3D        22.4310   -4.9920   13.9910 C.3       1 NDP350      0.0000 
     32 O3D        22.1340   -6.1010   14.8550 O.3       1 NDP350      0.0000 
     33 C2D        21.7120   -5.0260   12.6220 C.3       1 NDP350      0.0000 
     34 O2D        21.7350   -6.2900   12.0070 O.3       1 NDP350      0.0000 
     35 C1D        20.3350   -4.5660   12.9690 C.3       1 NDP350      0.0000 
     36 N1N        19.4560   -3.8570   11.9990 N.pl3     1 NDP350      0.0000 
     37 C2N        18.1110   -4.2020   11.9930 C.2       1 NDP350      0.0000 
     38 C3N        17.2510   -3.5550   11.1070 C.2       1 NDP350      0.0000 
     39 C7N        15.7610   -3.9090   11.0800 C.2       1 NDP350      0.0000 
     40 O7N        14.9970   -3.3550   10.3140 O.2       1 NDP350      0.0000 
     41 N7N        15.3880   -4.8390   11.9390 N.am      1 NDP350      0.0000 
     42 C4N        17.7270   -2.5660   10.2200 C.3       1 NDP350      0.0000 
     43 C5N        19.1130   -2.2170   10.2320 C.2       1 NDP350      0.0000 
     44 C6N        19.9740   -2.8710   11.1300 C.2       1 NDP350      0.0000 
     45 P2B        29.5210   -2.4190   21.4290 P.3       1 NDP350      0.0000 
     46 O1X        29.2680   -1.0740   22.0020 O.co2     1 NDP350      0.0000 
     47 O2X        28.7920   -3.4880   22.1240 O.co2     1 NDP350      0.0000 
     48 O3X        30.9410   -2.7540   21.1790 O.co2     1 NDP350      0.0000 
     49 H          27.7762   -4.4832   15.5829 H         1 NDP350      0.0000 
     50 H          26.1363   -3.8239   15.7094 H         1 NDP350      0.0000 
     51 H          27.1243   -2.1123   17.3029 H         1 NDP350      0.0000 
     52 H          29.3722   -4.0459   17.1280 H         1 NDP350      0.0000 
     53 H          29.5487   -4.2652   19.3530 H         1 NDP350      0.0000 
     54 H          26.9085   -3.8299   20.0625 H         1 NDP350      0.0000 
     55 H          26.8754   -5.9806   21.4088 H         1 NDP350      0.0000 
     56 H          29.6295  -10.7870   19.2341 H         1 NDP350      0.0000 
     57 H          28.7695  -10.0040   20.6026 H         1 NDP350      0.0000 
     58 H          30.1060   -7.6059   16.0904 H         1 NDP350      0.0000 
     59 H          22.2558   -1.6030   14.7152 H         1 NDP350      0.0000 
     60 H          23.6222   -2.6301   15.1824 H         1 NDP350      0.0000 
     61 H          21.7002   -3.8804   15.6489 H         1 NDP350      0.0000 
     62 H          23.4679   -4.8413   13.8108 H         1 NDP350      0.0000 
     63 H          22.1736   -4.2461   12.0245 H         1 NDP350      0.0000 
     64 H          19.7996   -5.2984   13.5196 H         1 NDP350      0.0000 
     65 H          17.7547   -4.9187   12.6272 H         1 NDP350      0.0000 
     66 H          16.1112   -5.2239   12.5124 H         1 NDP350      0.0000 
     67 H          14.4161   -5.0742   11.9384 H         1 NDP350      0.0000 
     68 H          17.1095   -1.6053   10.3610 H         1 NDP350      0.0000 
     69 H          17.4341   -2.8524    9.1447 H         1 NDP350      0.0000 
     70 H          19.4592   -1.5071    9.5982 H         1 NDP350      0.0000 
     71 H          20.9655   -2.6378   11.1565 H         1 NDP350      0.0000 
     72 H          29.2898   -1.2826   17.9583 H         1 NDP350      0.0000 
     73 H          22.0254   -5.6988   15.7641 H         1 NDP350      0.0000 
     74 H          21.4924   -6.9348   12.7318 H         1 NDP350      0.0000 
@<TRIPOS>BOND
     1    2    1 ar   
     2    3    1 ar   
     3    4    1 1    
     4   23    1 1    
     5    5    4 1    
     6    6    5 1    
     7   49    5 1    
     8   50    5 1    
     9    7    6 1    
    10    8    6 1    
    11   51    6 1    
    12   12    7 1    
    13    9    8 1    
    14   10    8 1    
    15   52    8 1    
    16   72    9 1    
    17   11   10 1    
    18   12   10 1    
    19   53   10 1    
    20   45   11 1    
    21   13   12 1    
    22   54   12 1    
    23   14   13 1    
    24   22   13 1    
    25   15   14 2    
    26   55   14 1    
    27   16   15 1    
    28   17   16 ar   
    29   22   16 ar   
    30   18   17 1    
    31   19   17 ar   
    32   56   18 1    
    33   57   18 1    
    34   20   19 ar   
    35   21   20 ar   
    36   58   20 1    
    37   22   21 ar   
    38   24   23 1    
    39   25   24 ar   
    40   26   24 ar   
    41   27   24 1    
    42   28   27 1    
    43   29   28 1    
    44   59   28 1    
    45   60   28 1    
    46   30   29 1    
    47   31   29 1    
    48   61   29 1    
    49   35   30 1    
    50   32   31 1    
    51   33   31 1    
    52   62   31 1    
    53   73   32 1    
    54   34   33 1    
    55   35   33 1    
    56   63   33 1    
    57   74   34 1    
    58   36   35 1    
    59   64   35 1    
    60   37   36 1    
    61   44   36 1    
    62   38   37 2    
    63   65   37 1    
    64   39   38 1    
    65   42   38 1    
    66   40   39 2    
    67   41   39 am   
    68   66   41 1    
    69   67   41 1    
    70   43   42 1    
    71   68   42 1    
    72   69   42 1    
    73   44   43 2    
    74   70   43 1    
    75   71   44 1    
    76   46   45 ar   
    77   47   45 ar   
    78   48   45 ar   
@<TRIPOS>SUBSTRUCTURE
     1 NDP350      1 GROUP   
@<TRIPOS>SET

