#    Name: 3NBR_1_CAVITY_N1_6.mol2
#    Modification time : Tue Mar 11 16:42:38 2014

@<TRIPOS>MOLECULE
3NBR_1_CAVITY_N1_6.mol2
   77     0     5     0     0
SMALL
NO_CHARGES


@<TRIPOS>ATOM
      1 N           2.7610   52.8503   22.1707 N.2       2 ALA2        0.0000 
      2 CZ          1.7712   54.7429   19.5845 C.ar      3 PHE5        0.0000 
      3 DU          1.5516   53.7227   20.6619 H         5 CUB7        0.0000 
      4 CA          0.7815   56.6355   16.9983 C.3       4 GLY6        0.0000 
      5 N           4.8091   52.9285   20.5741 N.2       2 ALA2        0.0000 
      6 CZ          4.2587   56.8615   15.8330 C.ar      3 PHE5        0.0000 
      7 DU          4.0391   55.8413   16.9105 H         5 CUB7        0.0000 
      8 DU          3.5997   53.8010   19.0654 H         5 CUB7        0.0000 
      9 N           3.3801   52.7808   20.1429 N.2       2 ALA2        0.0000 
     10 CZ          2.8297   56.7138   15.4017 C.ar      3 PHE5        0.0000 
     11 DU          2.6100   55.6936   16.4792 H         5 CUB7        0.0000 
     12 DU          2.3903   54.6734   17.5567 H         5 CUB7        0.0000 
     13 DU          2.1707   53.6532   18.6342 H         5 CUB7        0.0000 
     14 N           1.9510   52.6330   19.7116 N.2       2 ALA2        0.0000 
     15 CA          1.1810   55.5458   16.0480 C.3       4 GLY6        0.0000 
     16 CZ          0.9613   54.5256   17.1254 C.ar      3 PHE5        0.0000 
     17 CZ          0.7416   53.5054   18.2029 C.ar      3 PHE5        0.0000 
     18 CA          0.5220   52.4852   19.2804 C.3       4 GLY6        0.0000 
     19 DU          5.6479   53.8793   17.4689 H         5 CUB7        0.0000 
     20 OG          5.4282   52.8591   18.5464 O.2       1 SER1        0.0000 
     21 CZ          4.4385   54.7517   15.9602 C.ar      3 PHE5        0.0000 
     22 DU          3.9992   52.7113   18.1151 H         5 CUB7        0.0000 
     23 N           3.7795   51.6911   19.1926 N.2       2 ALA2        0.0000 
     24 CZ          3.0095   54.6039   15.5289 C.ar      3 PHE5        0.0000 
     25 DU          2.7898   53.5837   16.6064 H         5 CUB7        0.0000 
     26 DU          2.5701   52.5635   17.6839 H         5 CUB7        0.0000 
     27 N           2.3505   51.5433   18.7614 N.2       2 ALA2        0.0000 
     28 CA          1.5804   54.4561   15.0977 C.3       4 GLY6        0.0000 
     29 CZ          1.3607   53.4359   16.1751 C.ar      3 PHE5        0.0000 
     30 CA          1.1411   52.4158   17.2526 C.3       4 GLY6        0.0000 
     31 CA          0.9214   51.3956   18.3301 C.3       4 GLY6        0.0000 
     32 CA         -0.0683   53.2882   15.7439 C.3       4 GLY6        0.0000 
     33 N           7.6961   53.9575   15.8724 N.2       2 ALA2        0.0000 
     34 CZ          7.4764   52.9374   16.9498 C.ar      3 PHE5        0.0000 
     35 N           6.2670   53.8098   15.4411 N.2       2 ALA2        0.0000 
     36 N           6.0473   52.7896   16.5186 N.2       2 ALA2        0.0000 
     37 OG          5.8277   51.7694   17.5961 O.2       1 SER1        0.0000 
     38 N           4.8380   53.6620   15.0099 N.2       2 ALA2        0.0000 
     39 DU          4.6183   52.6418   16.0873 H         5 CUB7        0.0000 
     40 OG          4.3986   51.6216   17.1648 O.2       1 SER1        0.0000 
     41 CZ          3.4089   53.5142   14.5786 C.ar      3 PHE5        0.0000 
     42 DU          3.1892   52.4940   15.6561 H         5 CUB7        0.0000 
     43 DU          2.9696   51.4739   16.7336 H         5 CUB7        0.0000 
     44 N           2.7499   50.4537   17.8111 N.2       2 ALA2        0.0000 
     45 CA          2.1995   54.3867   13.0699 C.3       4 GLY6        0.0000 
     46 CA          1.9798   53.3665   14.1474 C.3       4 GLY6        0.0000 
     47 CA          1.7602   52.3463   15.2248 C.3       4 GLY6        0.0000 
     48 CA          1.5405   51.3261   16.3023 C.3       4 GLY6        0.0000 
     49 CA          0.5508   53.2187   13.7161 C.3       4 GLY6        0.0000 
     50 N           6.4468   51.6999   15.5683 N.2       2 ALA2        0.0000 
     51 O           5.0177   51.5521   15.1370 O.2       2 ALA2        0.0000 
     52 OG          4.7981   50.5320   16.2145 O.2       1 SER1        0.0000 
     53 CZ          4.0280   53.4448   12.5508 C.ar      3 PHE5        0.0000 
     54 N           3.8083   52.4246   13.6283 N.2       2 ALA2        0.0000 
     55 DU          3.5887   51.4044   14.7058 H         5 CUB7        0.0000 
     56 OG          3.3690   50.3842   15.7833 O.2       1 SER1        0.0000 
     57 CA          3.1494   49.3640   16.8608 C.3       4 GLY6        0.0000 
     58 CA          2.3793   52.2768   13.1971 C.3       4 GLY6        0.0000 
     59 CA          2.1596   51.2566   14.2746 C.3       4 GLY6        0.0000 
     60 CA          1.9400   50.2364   15.3520 C.3       4 GLY6        0.0000 
     61 O           5.4172   50.4625   14.1868 O.2       2 ALA2        0.0000 
     62 OG          5.1975   49.4423   15.2642 O.2       1 SER1        0.0000 
     63 O           4.4275   52.3551   11.6005 O.2       2 ALA2        0.0000 
     64 O           4.2078   51.3349   12.6780 O.2       2 ALA2        0.0000 
     65 O           3.9881   50.3147   13.7555 O.2       2 ALA2        0.0000 
     66 DU          3.7685   49.2945   14.8330 H         5 CUB7        0.0000 
     67 CA          3.5488   48.2743   15.9105 C.3       4 GLY6        0.0000 
     68 CA          2.7787   51.1871   12.2468 C.3       4 GLY6        0.0000 
     69 CA          2.5591   50.1669   13.3243 C.3       4 GLY6        0.0000 
     70 CA          2.3394   49.1468   14.4017 C.3       4 GLY6        0.0000 
     71 CA          2.1198   48.1266   15.4792 C.3       4 GLY6        0.0000 
     72 O           4.6072   50.2452   11.7277 O.2       2 ALA2        0.0000 
     73 O           4.3876   49.2250   12.8052 O.2       2 ALA2        0.0000 
     74 OG          4.1679   48.2048   13.8827 O.2       1 SER1        0.0000 
     75 CZ          3.1782   50.0975   11.2965 C.ar      3 PHE5        0.0000 
     76 CZ          2.9585   49.0773   12.3740 C.ar      3 PHE5        0.0000 
     77 CA          2.7389   48.0571   13.4514 C.3       4 GLY6        0.0000 
@<TRIPOS>BOND
@<TRIPOS>SUBSTRUCTURE
     1 SER1       20 GROUP   
     2 ALA2        1 GROUP   
     3 PHE5        2 GROUP   
     4 GLY6        4 GROUP   
     5 CUB7        3 GROUP   
@<TRIPOS>SET

