#    Name: 3nbr_ASD_1_INTS_M
#    Modification time : Tue Mar 25 01:12:02 2014

@<TRIPOS>MOLECULE
3nbr_ASD_1_INTS_M
   56     0     6     0     0
SMALL
NO_CHARGES


@<TRIPOS>ATOM
      1 CA          1.8855   48.9050   16.3380 C.3       2 GLC5        0.0000 
      2 CA          3.0250   49.6890   14.7580 C.3       6 GLL5        0.0000 
      3 CA          0.7460   48.1210   17.9180 C.3       4 GLP5        0.0000 
      4 CA          4.1755   50.1025   18.0705 C.3       2 GLC5        0.0000 
      5 CA          3.0060   51.6420   17.3210 C.3       6 GLL5        0.0000 
      6 CA          5.3450   48.5630   18.8200 C.3       4 GLP5        0.0000 
      7 CA          1.8760   49.8815   17.6195 C.3       2 GLC5        0.0000 
      8 CA          0.7575   51.1015   18.6950 C.3       2 GLC5        0.0000 
      9 CA          2.3330   52.5930   18.3390 C.3       6 GLL5        0.0000 
     10 CA         -0.8180   49.6100   19.0510 C.3       4 GLP5        0.0000 
     11 CA          3.2110   56.7095   14.6245 C.3       2 GLC5        0.0000 
     12 CA          2.4770   55.8900   16.5020 C.3       6 GLL5        0.0000 
     13 CA          3.9450   57.5290   12.7470 C.3       4 GLP5        0.0000 
     14 CA          0.0990   56.0210   18.3910 C.3       2 GLC5        0.0000 
     15 CA          1.8200   56.3750   17.8120 C.3       6 GLL5        0.0000 
     16 CA         -1.6220   55.6670   18.9700 C.3       4 GLP5        0.0000 
     17 CA          7.2510   51.0155   15.5810 C.3       2 GLC5        0.0000 
     18 CA          5.0390   51.1450   15.2300 C.3       6 GLL5        0.0000 
     19 CA          9.4630   50.8860   15.9320 C.3       4 GLP5        0.0000 
     20 CA          5.1920   49.8540   17.0250 C.3       2 GLC5        0.0000 
     21 CA          3.1055   47.0755   13.6560 C.3       2 GLC5        0.0000 
     22 CA          4.0990   48.8570   14.0510 C.3       6 GLL5        0.0000 
     23 CA          2.1120   45.2940   13.2610 C.3       4 GLP5        0.0000 
     24 CA          5.6380   47.3235   14.5125 C.3       2 GLC5        0.0000 
     25 CA          7.1770   45.7900   14.9740 C.3       4 GLP5        0.0000 
     26 CA          3.1260   50.1280   10.6690 C.3       2 GLC5        0.0000 
     27 CA          4.0850   50.6970   12.2920 C.3       6 GLL5        0.0000 
     28 CA          2.1670   49.5590    9.0460 C.3       4 GLP5        0.0000 
     29 CA          5.6255   51.3815   10.9475 C.3       2 GLC5        0.0000 
     30 CA          7.1660   52.0660    9.6030 C.3       4 GLP5        0.0000 
     31 CA          4.4100   54.4010   12.4615 C.3       2 GLC5        0.0000 
     32 CA          3.4510   53.0610   13.0420 C.3       6 GLL5        0.0000 
     33 CA          5.3690   55.7410   11.8810 C.3       4 GLP5        0.0000 
     34 CA          0.8225   51.2405   15.5625 C.3       2 GLC5        0.0000 
     35 CA          2.7380   51.9870   15.8260 C.3       6 GLL5        0.0000 
     36 CA         -1.0930   50.4940   15.2990 C.3       4 GLP5        0.0000 
     37 N           5.2995   47.2925   11.8055 N.am      1 SEC2        0.0000 
     38 N           4.6810   48.4740   11.7510 N.am      5 SEL2        0.0000 
     39 N           5.9180   46.1110   11.8600 N.am      3 SEP2        0.0000 
     40 N           5.0145   48.4320   10.2710 N.am      1 SEC2        0.0000 
     41 N           5.3480   48.3900    8.7910 N.am      3 SEP2        0.0000 
     42 CA          0.3546   54.1812   17.7399 C.3       2 GLC5        0.0000 
     43 CA         -1.7010   54.5380   18.1020 C.3       4 GLP5        0.0000 
     44 CA          0.5441   55.8884   15.7835 C.3       2 GLC5        0.0000 
     45 CA          2.2760   54.3470   16.5860 C.3       6 GLL5        0.0000 
     46 CA         -1.0100   56.0300   14.3890 C.3       4 GLP5        0.0000 
     47 CA          1.5485   50.5609   13.4905 C.3       2 GLC5        0.0000 
     48 CA          3.6630   51.5760   13.3240 C.3       6 GLL5        0.0000 
     49 CA         -0.3780   50.1370   12.9250 C.3       4 GLP5        0.0000 
     50 CA          1.6502   54.6797   12.9232 C.3       2 GLC5        0.0000 
     51 CA          0.3220   55.9770   12.2830 C.3       4 GLP5        0.0000 
     52 CA          2.6408   52.5384   11.3000 C.3       2 GLC5        0.0000 
     53 CA          1.6190   52.9780    9.6750 C.3       4 GLP5        0.0000 
     54 CA          3.8320   55.0575   13.8773 C.3       2 GLC5        0.0000 
     55 CA          2.5060   53.7040   14.0850 C.3       6 GLL5        0.0000 
     56 CA          4.9230   56.5320   12.9500 C.3       4 GLP5        0.0000 
@<TRIPOS>BOND
@<TRIPOS>SUBSTRUCTURE
     1 SEC2       37 GROUP        1 X    SEC  0     ROOT SEC X 2
     2 GLC5        1 GROUP        1 X    GLC  0     **** GLC X 6
     3 SEP2       39 GROUP        1 Y    SEP  0     ROOT SEP Y 9
     4 GLP5        3 GROUP        1 Y    GLP  0     **** GLP Y 13
     5 SEL2       38 GROUP        1 Z    SEL  0     ROOT SEL Z 16
     6 GLL5        2 GROUP        1 Z    GLL  0     **** GLL Z 20
@<TRIPOS>SET

