#    Name: 3nbr_ASD_1_ligand
#    Modification time : Tue Mar 25 01:12:02 2014

@<TRIPOS>MOLECULE
3nbr_ASD_1_ligand
   47    50     1     0     0
SMALL
NO_CHARGES


@<TRIPOS>ATOM
      1 C1          3.0250   49.6890   14.7580 C.3       1 ASD129      0.0000 
      2 C10         3.5490   51.0980   14.8180 C.3       1 ASD129      0.0000 
      3 C11         3.0060   51.6420   17.3210 C.3       1 ASD129      0.0000 
      4 C12         2.3330   52.5930   18.3390 C.3       1 ASD129      0.0000 
      5 C13         2.7560   54.0110   18.0000 C.3       1 ASD129      0.0000 
      6 C14         2.2760   54.3470   16.5860 C.3       1 ASD129      0.0000 
      7 C15         2.4770   55.8900   16.5020 C.3       1 ASD129      0.0000 
      8 C16         1.8200   56.3750   17.8120 C.3       1 ASD129      0.0000 
      9 C17         2.0780   55.1600   18.7800 C.2       1 ASD129      0.0000 
     10 C18         4.2830   54.1610   18.1590 C.3       1 ASD129      0.0000 
     11 C19         5.0390   51.1450   15.2300 C.3       1 ASD129      0.0000 
     12 C2          4.0990   48.8570   14.0510 C.3       1 ASD129      0.0000 
     13 C3          4.2840   49.3150   12.5860 C.2       1 ASD129      0.0000 
     14 C4          4.0850   50.6970   12.2920 C.2       1 ASD129      0.0000 
     15 C5          3.6630   51.5760   13.3240 C.2       1 ASD129      0.0000 
     16 C6          3.4510   53.0610   13.0420 C.3       1 ASD129      0.0000 
     17 C7          2.5060   53.7040   14.0850 C.3       1 ASD129      0.0000 
     18 C8          2.9760   53.4620   15.5240 C.3       1 ASD129      0.0000 
     19 C9          2.7380   51.9870   15.8260 C.3       1 ASD129      0.0000 
     20 O1          4.6810   48.4740   11.7510 O.2       1 ASD129      0.0000 
     21 O2          1.8490   55.1310   19.9920 O.2       1 ASD129      0.0000 
     22 H           2.1181   49.6535   14.1858 H         1 ASD129      0.0000 
     23 H           2.8768   49.3048   15.7487 H         1 ASD129      0.0000 
     24 H           2.6569   50.6147   17.5093 H         1 ASD129      0.0000 
     25 H           4.0939   51.6514   17.4909 H         1 ASD129      0.0000 
     26 H           2.6650   52.3354   19.3287 H         1 ASD129      0.0000 
     27 H           1.2656   52.4958   18.2536 H         1 ASD129      0.0000 
     28 H           1.2019   54.1603   16.5755 H         1 ASD129      0.0000 
     29 H           1.9491   56.2648   15.6769 H         1 ASD129      0.0000 
     30 H           3.5029   56.1080   16.5142 H         1 ASD129      0.0000 
     31 H           0.7881   56.4891   17.6780 H         1 ASD129      0.0000 
     32 H           2.3246   57.2152   18.1798 H         1 ASD129      0.0000 
     33 H           3.8077   47.8091   14.0576 H         1 ASD129      0.0000 
     34 H           5.0454   48.9666   14.5757 H         1 ASD129      0.0000 
     35 H           4.2443   51.0450   11.3538 H         1 ASD129      0.0000 
     36 H           3.0149   53.1854   12.0517 H         1 ASD129      0.0000 
     37 H           4.4090   53.5783   13.0726 H         1 ASD129      0.0000 
     38 H           1.5052   53.2851   13.9568 H         1 ASD129      0.0000 
     39 H           2.4562   54.7791   13.8975 H         1 ASD129      0.0000 
     40 H           4.0450   53.6371   15.5702 H         1 ASD129      0.0000 
     41 H           1.6665   51.7817   15.6284 H         1 ASD129      0.0000 
     42 H           4.7821   53.5394   17.5553 H         1 ASD129      0.0000 
     43 H           4.5896   55.0881   17.9434 H         1 ASD129      0.0000 
     44 H           4.5803   53.9639   19.0932 H         1 ASD129      0.0000 
     45 H           5.6186   50.6475   14.5846 H         1 ASD129      0.0000 
     46 H           5.3837   52.0828   15.2707 H         1 ASD129      0.0000 
     47 H           5.1881   50.7385   16.1314 H         1 ASD129      0.0000 
@<TRIPOS>BOND
     1    2    1 1    
     2   12    1 1    
     3   22    1 1    
     4   23    1 1    
     5   11    2 1    
     6   15    2 1    
     7   19    2 1    
     8    4    3 1    
     9   19    3 1    
    10   24    3 1    
    11   25    3 1    
    12    5    4 1    
    13   26    4 1    
    14   27    4 1    
    15    6    5 1    
    16    9    5 1    
    17   10    5 1    
    18    7    6 1    
    19   18    6 1    
    20   28    6 1    
    21    8    7 1    
    22   29    7 1    
    23   30    7 1    
    24    9    8 1    
    25   31    8 1    
    26   32    8 1    
    27   21    9 2    
    28   42   10 1    
    29   43   10 1    
    30   44   10 1    
    31   45   11 1    
    32   46   11 1    
    33   47   11 1    
    34   13   12 1    
    35   33   12 1    
    36   34   12 1    
    37   14   13 1    
    38   20   13 2    
    39   15   14 2    
    40   35   14 1    
    41   16   15 1    
    42   17   16 1    
    43   36   16 1    
    44   37   16 1    
    45   18   17 1    
    46   38   17 1    
    47   39   17 1    
    48   19   18 1    
    49   40   18 1    
    50   41   19 1    
@<TRIPOS>SUBSTRUCTURE
     1 ASD129      1 GROUP   
@<TRIPOS>SET

