#    Name: 1q22_AND_1_INTS_M
#    Modification time : Mon Mar 24 22:44:49 2014

@<TRIPOS>MOLECULE
1q22_AND_1_INTS_M
   52     0     6     0     0
SMALL
NO_CHARGES


@<TRIPOS>ATOM
      1 CA         13.2460   17.3390   30.6520 C.3       2 GLC5        0.0000 
      2 CA         14.1530   16.6760   28.7910 C.3       6 GLL5        0.0000 
      3 CA         12.3390   18.0020   32.5130 C.3       4 GLP5        0.0000 
      4 N          17.5880   18.8020   26.7045 N.am      1 SEC2        0.0000 
      5 N          17.2570   17.6170   26.5910 N.am      5 SEL2        0.0000 
      6 N          17.9190   19.9870   26.8180 N.am      3 SEP2        0.0000 
      7 CA         17.0635   14.0935   25.5400 C.3       2 GLC5        0.0000 
      8 CA         16.3140   15.3610   27.0180 C.3       6 GLL5        0.0000 
      9 CA         17.8130   12.8260   24.0620 C.3       4 GLP5        0.0000 
     10 CA         16.6210   15.6585   29.5115 C.3       2 GLC5        0.0000 
     11 CA         15.4550   14.5060   27.9880 C.3       6 GLL5        0.0000 
     12 CA         17.7870   16.8110   31.0350 C.3       4 GLP5        0.0000 
     13 CA         16.1000   11.7690   31.2220 C.3       2 GLC5        0.0000 
     14 CA         15.0430   12.1620   29.3010 C.3       6 GLL5        0.0000 
     15 CA         17.1570   11.3760   33.1430 C.3       4 GLP5        0.0000 
     16 CA         14.5320   10.4290   28.2880 C.3       2 GLC5        0.0000 
     17 CA         14.0210    8.6960   27.2750 C.3       4 GLP5        0.0000 
     18 CA         15.0775   15.2030   31.3190 C.3       2 GLC5        0.0000 
     19 CA         13.7550   14.3150   30.0030 C.3       6 GLL5        0.0000 
     20 CA         16.4000   16.0910   32.6350 C.3       4 GLP5        0.0000 
     21 CA         10.6685   14.7775   29.2405 C.3       2 GLC5        0.0000 
     22 CA         12.4000   14.8400   30.6090 C.3       6 GLL5        0.0000 
     23 CA          8.9370   14.7150   27.8720 C.3       4 GLP5        0.0000 
     24 CA         15.2480   11.7320   32.1880 C.3       2 GLC5        0.0000 
     25 CA         13.3390   12.0880   31.2330 C.3       6 GLL5        0.0000 
     26 CA         14.8440   10.3285   32.4330 C.3       2 GLC5        0.0000 
     27 CA         13.2020   10.5770   31.3810 C.3       6 GLL5        0.0000 
     28 CA         16.4860   10.0800   33.4850 C.3       4 GLP5        0.0000 
     29 CA         13.4610    9.0905   30.4365 C.3       2 GLC5        0.0000 
     30 CA         13.7200    7.6040   29.4920 C.3       4 GLP5        0.0000 
     31 CA         14.2580   10.1400   33.7375 C.3       2 GLC5        0.0000 
     32 CA         12.7780   10.4770   32.8760 C.3       6 GLL5        0.0000 
     33 CA         15.7380    9.8030   34.5990 C.3       4 GLP5        0.0000 
     34 CA          9.0740   13.0485   30.4705 C.3       2 GLC5        0.0000 
     35 CA         10.6090   12.1620   31.1620 C.3       6 GLL5        0.0000 
     36 CA          7.5390   13.9350   29.7790 C.3       4 GLP5        0.0000 
     37 CA         10.3810   10.9705   29.6575 C.3       2 GLC5        0.0000 
     38 CA         10.1530    9.7790   28.1530 C.3       4 GLP5        0.0000 
     39 CA         10.9310   14.7545   27.6875 C.3       2 GLC5        0.0000 
     40 CA         12.9250   14.7940   27.5030 C.3       6 GLL5        0.0000 
     41 CA         16.1917   16.9432   29.6640 C.3       2 GLC5        0.0000 
     42 CA         16.2960   18.9405   27.4605 C.3       2 GLC5        0.0000 
     43 CA         16.4420   16.8250   27.5370 C.3       6 GLL5        0.0000 
     44 CA         16.8510   20.7310   27.2550 C.3       4 GLP5        0.0000 
     45 CA         17.5470   16.5070   28.6373 C.3       2 GLC5        0.0000 
     46 CA         18.7160   16.9210   29.9970 C.3       4 GLP5        0.0000 
     47 CA         16.7855   11.6285   28.6085 C.3       2 GLC5        0.0000 
     48 CA         15.8730   13.0820   28.3710 C.3       6 GLL5        0.0000 
     49 CA         18.1130   10.6350   28.3810 C.3       4 GLP5        0.0000 
     50 CA         12.2815   16.2402   31.9045 C.3       2 GLC5        0.0000 
     51 CA         11.5775    8.9880   32.2557 C.3       2 GLC5        0.0000 
     52 CA         10.1650    7.4490   32.3830 C.3       4 GLP5        0.0000 
@<TRIPOS>BOND
@<TRIPOS>SUBSTRUCTURE
     1 SEC2        4 GROUP        1 X    SEC  0     ROOT SEC X 2
     2 GLC5        1 GROUP        1 X    GLC  0     **** GLC X 6
     3 SEP2        6 GROUP        1 Y    SEP  0     ROOT SEP Y 9
     4 GLP5        3 GROUP        1 Y    GLP  0     **** GLP Y 13
     5 SEL2        5 GROUP        1 Z    SEL  0     ROOT SEL Z 16
     6 GLL5        2 GROUP        1 Z    GLL  0     **** GLL Z 20
@<TRIPOS>SET

