#    Name: 1q22_AND_1_ligand
#    Modification time : Mon Mar 24 22:44:49 2014

@<TRIPOS>MOLECULE
1q22_AND_1_ligand
   49    52     1     0     0
SMALL
NO_CHARGES


@<TRIPOS>ATOM
      1 C1         14.1530   16.6760   28.7910 C.3       1 AND401      0.0000 
      2 C2         15.0400   17.4750   27.7950 C.3       1 AND401      0.0000 
      3 C3         16.4420   16.8250   27.5370 C.3       1 AND401      0.0000 
      4 O3         17.2570   17.6170   26.5910 O.3       1 AND401      0.0000 
      5 C4         16.3140   15.3610   27.0180 C.3       1 AND401      0.0000 
      6 C5         15.4550   14.5060   27.9880 C.2       1 AND401      0.0000 
      7 C6         15.8730   13.0820   28.3710 C.2       1 AND401      0.0000 
      8 C7         15.0430   12.1620   29.3010 C.3       1 AND401      0.0000 
      9 C8         13.7070   12.7220   29.8600 C.3       1 AND401      0.0000 
     10 C9         13.7550   14.3150   30.0030 C.3       1 AND401      0.0000 
     11 C10        14.0860   15.0750   28.5870 C.3       1 AND401      0.0000 
     12 C11        12.4000   14.8400   30.6090 C.3       1 AND401      0.0000 
     13 C12        12.0480   14.1170   31.9830 C.3       1 AND401      0.0000 
     14 C13        11.9880   12.5700   31.8770 C.3       1 AND401      0.0000 
     15 C14        13.3390   12.0880   31.2330 C.3       1 AND401      0.0000 
     16 C15        13.2020   10.5770   31.3810 C.3       1 AND401      0.0000 
     17 C16        12.7780   10.4770   32.8760 C.3       1 AND401      0.0000 
     18 C17        12.0330   11.6970   33.1620 C.2       1 AND401      0.0000 
     19 O17        11.5240   11.9310   34.2760 O.2       1 AND401      0.0000 
     20 C18        10.6090   12.1620   31.1620 C.3       1 AND401      0.0000 
     21 C19        12.9250   14.7940   27.5030 C.3       1 AND401      0.0000 
     22 H          13.1163   17.0516   28.7401 H         1 AND401      0.0000 
     23 H          14.5066   16.8556   29.8211 H         1 AND401      0.0000 
     24 H          15.1931   18.4852   28.1871 H         1 AND401      0.0000 
     25 H          14.5147   17.5572   26.8385 H         1 AND401      0.0000 
     26 H          16.9578   16.7738   28.5031 H         1 AND401      0.0000 
     27 H          17.3030   14.9274   26.9428 H         1 AND401      0.0000 
     28 H          15.8430   15.3739   26.0435 H         1 AND401      0.0000 
     29 H          16.7359   12.7174   28.0001 H         1 AND401      0.0000 
     30 H          15.6834   11.8636   30.1622 H         1 AND401      0.0000 
     31 H          14.8232   11.2166   28.7545 H         1 AND401      0.0000 
     32 H          12.9115   12.4955   29.1589 H         1 AND401      0.0000 
     33 H          14.5495   14.5657   30.6898 H         1 AND401      0.0000 
     34 H          11.6008   14.6467   29.9075 H         1 AND401      0.0000 
     35 H          12.4835   15.9016   30.7940 H         1 AND401      0.0000 
     36 H          11.0815   14.4954   32.3221 H         1 AND401      0.0000 
     37 H          12.8069   14.4016   32.7148 H         1 AND401      0.0000 
     38 H          14.1097   12.3959   31.9947 H         1 AND401      0.0000 
     39 H          14.1291   10.1116   31.2559 H         1 AND401      0.0000 
     40 H          12.4256   10.2194   30.7800 H         1 AND401      0.0000 
     41 H          13.6716   10.4057   33.4674 H         1 AND401      0.0000 
     42 H          12.1681    9.6001   32.9871 H         1 AND401      0.0000 
     43 H          10.5389   12.5486   30.2424 H         1 AND401      0.0000 
     44 H          10.5171   11.1704   31.0708 H         1 AND401      0.0000 
     45 H           9.8144   12.4839   31.6767 H         1 AND401      0.0000 
     46 H          13.1201   15.2352   26.6270 H         1 AND401      0.0000 
     47 H          12.8154   13.8168   27.3210 H         1 AND401      0.0000 
     48 H          12.0376   15.1359   27.8122 H         1 AND401      0.0000 
     49 H          18.1325   17.1366   26.5387 H         1 AND401      0.0000 
@<TRIPOS>BOND
     1    2    1 1    
     2   11    1 1    
     3   22    1 1    
     4   23    1 1    
     5    3    2 1    
     6   24    2 1    
     7   25    2 1    
     8    4    3 1    
     9    5    3 1    
    10   26    3 1    
    11   49    4 1    
    12    6    5 1    
    13   27    5 1    
    14   28    5 1    
    15    7    6 2    
    16   11    6 1    
    17    8    7 1    
    18   29    7 1    
    19    9    8 1    
    20   30    8 1    
    21   31    8 1    
    22   10    9 1    
    23   15    9 1    
    24   32    9 1    
    25   11   10 1    
    26   12   10 1    
    27   33   10 1    
    28   21   11 1    
    29   13   12 1    
    30   34   12 1    
    31   35   12 1    
    32   14   13 1    
    33   36   13 1    
    34   37   13 1    
    35   15   14 1    
    36   18   14 1    
    37   20   14 1    
    38   16   15 1    
    39   38   15 1    
    40   17   16 1    
    41   39   16 1    
    42   40   16 1    
    43   18   17 1    
    44   41   17 1    
    45   42   17 1    
    46   19   18 2    
    47   43   20 1    
    48   44   20 1    
    49   45   20 1    
    50   46   21 1    
    51   47   21 1    
    52   48   21 1    
@<TRIPOS>SUBSTRUCTURE
     1 AND401      1 GROUP   
@<TRIPOS>SET

