#    Name: 1mrw_K57_1_INTS_M
#    Modification time : Mon Apr  7 14:45:08 2014

@<TRIPOS>MOLECULE
1mrw_K57_1_INTS_M
   99     0     9     0     0
SMALL
NO_CHARGES


@<TRIPOS>ATOM
      1 CA         11.6400   19.9565   20.3370 C.3       3 GLC5        0.0000 
      2 CA         12.1150   17.8910   20.0360 C.3       9 GLL5        0.0000 
      3 CA         11.1650   22.0220   20.6380 C.3       6 GLP5        0.0000 
      4 CA         16.0660   18.5885   20.4380 C.3       3 GLC5        0.0000 
      5 CA         14.2760   18.9230   20.9010 C.3       9 GLL5        0.0000 
      6 CA         17.8560   18.2540   19.9750 C.3       6 GLP5        0.0000 
      7 CA         14.5190   17.9985   22.6265 C.3       3 GLC5        0.0000 
      8 CA         14.7620   17.0740   24.3520 C.3       6 GLP5        0.0000 
      9 CA         14.6800   16.7710   21.0985 C.3       3 GLC5        0.0000 
     10 CA         15.0840   14.6190   21.2960 C.3       6 GLP5        0.0000 
     11 CA         15.6945   19.9345   22.0125 C.3       3 GLC5        0.0000 
     12 CA         17.1130   20.9460   23.1240 C.3       6 GLP5        0.0000 
     13 N          10.6920   17.9880   22.0205 N.am      2 SEC2        0.0000 
     14 N          12.0080   17.2060   21.2310 N.am      8 SEL2        0.0000 
     15 N           9.3760   18.7700   22.8100 N.am      5 SEP2        0.0000 
     16 O          10.8810   16.5090   21.4590 O.2       1 ALC1        0.0000 
     17 O          12.0080   17.2060   21.2310 O.2       7 ALL1        0.0000 
     18 O           9.7540   15.8120   21.6870 O.2       4 ALP1        0.0000 
     19 O          12.6250   22.2720   17.9015 O.2       1 ALC1        0.0000 
     20 O          14.1020   21.6370   17.8070 O.2       7 ALL1        0.0000 
     21 O          11.1480   22.9070   17.9960 O.2       4 ALP1        0.0000 
     22 N          15.3020   26.1755   17.3150 N.am      2 SEC2        0.0000 
     23 N          16.3070   25.8310   18.0080 N.am      8 SEL2        0.0000 
     24 N          14.2970   26.5200   16.6220 N.am      5 SEP2        0.0000 
     25 CA         12.9980   24.5315   18.4125 C.3       3 GLC5        0.0000 
     26 CA         15.0360   23.8360   18.2440 C.3       9 GLL5        0.0000 
     27 CA         10.9600   25.2270   18.5810 C.3       6 GLP5        0.0000 
     28 N          14.0555   25.3620   17.7090 N.am      2 SEC2        0.0000 
     29 N          13.8140   24.2040   18.7960 N.am      8 SEL2        0.0000 
     30 O          13.5700   24.9915   19.8510 O.2       1 ALC1        0.0000 
     31 O          13.8140   24.2040   18.7960 O.2       7 ALL1        0.0000 
     32 O          13.3260   25.7790   20.9060 O.2       4 ALP1        0.0000 
     33 O          14.3730   24.3000   20.1530 O.2       1 ALC1        0.0000 
     34 O          14.9320   24.3960   21.5100 O.2       4 ALP1        0.0000 
     35 CA         16.6090   20.5535   13.6600 C.3       3 GLC5        0.0000 
     36 CA         14.7280   21.0530   14.1260 C.3       9 GLL5        0.0000 
     37 CA         18.4900   20.0540   13.1940 C.3       6 GLP5        0.0000 
     38 CA         18.1520   26.8310   18.2680 C.3       3 GLC5        0.0000 
     39 CA         18.7480   24.7560   18.8690 C.3       9 GLL5        0.0000 
     40 CA         17.5560   28.9060   17.6670 C.3       6 GLP5        0.0000 
     41 CA         18.8385   25.7885   22.5085 C.3       3 GLC5        0.0000 
     42 CA         19.6190   24.7670   21.3030 C.3       9 GLL5        0.0000 
     43 CA         18.0580   26.8100   23.7140 C.3       6 GLP5        0.0000 
     44 CA         20.0675   24.2650   23.1530 C.3       3 GLC5        0.0000 
     45 CA         20.5160   23.7630   25.0030 C.3       6 GLP5        0.0000 
     46 CA         21.5400   22.4740   18.5390 C.3       3 GLC5        0.0000 
     47 CA         21.2030   24.1520   19.4270 C.3       9 GLL5        0.0000 
     48 CA         21.8770   20.7960   17.6510 C.3       6 GLP5        0.0000 
     49 CA         20.5565   21.6010   18.8465 C.3       3 GLC5        0.0000 
     50 CA         19.2360   22.4060   20.0420 C.3       9 GLL5        0.0000 
     51 CA         18.5460   20.3300   20.0085 C.3       3 GLC5        0.0000 
     52 CA         20.6195   21.7335   20.9505 C.3       3 GLC5        0.0000 
     53 CA         22.0030   21.0610   21.8590 C.3       6 GLP5        0.0000 
     54 CA         18.7915   27.9695   15.8110 C.3       3 GLC5        0.0000 
     55 CA         20.7570   27.2410   15.2750 C.3       9 GLL5        0.0000 
     56 CA         16.8260   28.6980   16.3470 C.3       6 GLP5        0.0000 
     57 CA         20.9620   29.0740   14.1295 C.3       3 GLC5        0.0000 
     58 CA         21.1670   30.9070   12.9840 C.3       6 GLP5        0.0000 
     59 CA         17.9285   27.1600   15.3735 C.3       3 GLC5        0.0000 
     60 CA         19.0310   25.6220   14.4000 C.3       9 GLL5        0.0000 
     61 CA         18.9835   26.6360   12.5945 C.3       3 GLC5        0.0000 
     62 CA         18.9360   27.6500   10.7890 C.3       6 GLP5        0.0000 
     63 CA         17.1540   25.3725   13.6305 C.3       3 GLC5        0.0000 
     64 CA         15.2770   25.1230   12.8610 C.3       6 GLP5        0.0000 
     65 CA         18.8645   24.1585   13.0000 C.3       3 GLC5        0.0000 
     66 CA         18.6980   22.6950   11.6000 C.3       6 GLP5        0.0000 
     67 CA         22.7585   25.1640   13.7375 C.3       3 GLC5        0.0000 
     68 CA         21.3410   24.8010   15.0940 C.3       9 GLL5        0.0000 
     69 CA         24.1760   25.5270   12.3810 C.3       6 GLP5        0.0000 
     70 CA         22.9115   23.3715   15.1340 C.3       3 GLC5        0.0000 
     71 CA         24.4820   21.9420   15.1740 C.3       6 GLP5        0.0000 
     72 CA         20.9130   22.8295   14.8025 C.3       3 GLC5        0.0000 
     73 CA         20.4850   20.8580   14.5110 C.3       6 GLP5        0.0000 
     74 CA          9.3830   18.3657   19.3138 C.3       3 GLC5        0.0000 
     75 CA         11.1960   18.3940   17.8240 C.3       9 GLL5        0.0000 
     76 CA          7.6110   18.6800   20.1890 C.3       6 GLP5        0.0000 
     77 CA         12.4693   15.8350   19.5693 C.3       3 GLC5        0.0000 
     78 CA         11.1140   17.7090   19.0530 C.3       9 GLL5        0.0000 
     79 CA         13.3240   13.8700   19.5940 C.3       6 GLP5        0.0000 
     80 CA         11.9800   20.6938   19.3468 C.3       3 GLC5        0.0000 
     81 CA         13.3080   19.4670   18.5420 C.3       9 GLL5        0.0000 
     82 CA         12.9877   20.3758   21.0430 C.3       3 GLC5        0.0000 
     83 CA         13.2250   18.7660   19.8070 C.3       9 GLL5        0.0000 
     84 CA         12.2250   21.9070   21.7320 C.3       6 GLP5        0.0000 
     85 CA         13.6747   19.5145   11.4825 C.3       3 GLC5        0.0000 
     86 CA         13.8870   20.2300   13.3280 C.3       9 GLL5        0.0000 
     87 CA         14.1640   18.7180    9.6000 C.3       6 GLP5        0.0000 
     88 CA         15.3773   19.2298   14.6050 C.3       3 GLC5        0.0000 
     89 CA         16.4470   17.8180   15.4830 C.3       6 GLP5        0.0000 
     90 CA         11.2370   23.3227   14.7875 C.3       3 GLC5        0.0000 
     91 CA         12.7660   22.1920   15.0600 C.3       9 GLL5        0.0000 
     92 CA         10.1290   24.8620   14.9110 C.3       6 GLP5        0.0000 
     93 CA         14.5024   23.5469   13.8867 C.3       3 GLC5        0.0000 
     94 CA         11.5824   20.9575   12.1773 C.3       3 GLC5        0.0000 
     95 CA         11.9240   21.3750   14.2680 C.3       9 GLL5        0.0000 
     96 CA         10.6100   21.0720   10.5380 C.3       6 GLP5        0.0000 
     97 CA         17.7410   21.7640   21.4932 C.3       3 GLC5        0.0000 
     98 CA         21.2213   22.6794   20.9375 C.3       3 GLC5        0.0000 
     99 CA         19.7330   24.1200   19.9070 C.3       9 GLL5        0.0000 
@<TRIPOS>BOND
@<TRIPOS>SUBSTRUCTURE
     1 ALC1       16 GROUP        1 X    ALC  0     ROOT ALC X 1
     2 SEC2       13 GROUP        1 X    SEC  0     **** SEC X 2
     3 GLC5        1 GROUP        1 X    GLC  0     **** GLC X 6
     4 ALP1       18 GROUP        1 Y    ALP  0     ROOT ALP Y 8
     5 SEP2       15 GROUP        1 Y    SEP  0     **** SEP Y 9
     6 GLP5        3 GROUP        1 Y    GLP  0     **** GLP Y 13
     7 ALL1       17 GROUP        1 Z    ALL  0     ROOT ALL Z 15
     8 SEL2       14 GROUP        1 Z    SEL  0     **** SEL Z 16
     9 GLL5        2 GROUP        1 Z    GLL  0     **** GLL Z 20
@<TRIPOS>SET

