#    Name: 1mrw_K57_1_ligand
#    Modification time : Mon Apr  7 14:45:08 2014

@<TRIPOS>MOLECULE
1mrw_K57_1_ligand
   74    76     1     0     0
SMALL
NO_CHARGES


@<TRIPOS>ATOM
      1 C1         11.1140   17.7090   19.0530 C.ar      1 K571001     0.0000 
      2 C2         11.1960   18.3940   17.8240 C.ar      1 K571001     0.0000 
      3 C3         12.2820   19.2640   17.5690 C.ar      1 K571001     0.0000 
      4 C4         13.3080   19.4670   18.5420 C.ar      1 K571001     0.0000 
      5 C5         13.2250   18.7660   19.8070 C.ar      1 K571001     0.0000 
      6 C6         12.1150   17.8910   20.0360 C.ar      1 K571001     0.0000 
      7 C7         14.2760   18.9230   20.9010 C.3       1 K571001     0.0000 
      8 C8         14.4410   20.3890   18.2340 C.2       1 K571001     0.0000 
      9 O33        12.0080   17.2060   21.2310 O.3       1 K571001     0.0000 
     10 O34        15.6250   20.0630   18.3350 O.2       1 K571001     0.0000 
     11 C13        16.2980   24.7030   18.4790 C.2       1 K571001     0.0000 
     12 N9         14.1020   21.6370   17.8070 N.am      1 K571001     0.0000 
     13 O26        16.3070   25.8310   18.0080 O.2       1 K571001     0.0000 
     14 C12        15.0360   23.8360   18.2440 C.3       1 K571001     0.0000 
     15 C19        14.1780   22.0340   14.9940 C.ar      1 K571001     0.0000 
     16 C11        15.1250   22.8580   15.8140 C.3       1 K571001     0.0000 
     17 C22        12.4840   20.3920   13.4020 C.ar      1 K571001     0.0000 
     18 C10        15.1130   22.5980   17.3450 C.3       1 K571001     0.0000 
     19 O25        13.8140   24.2040   18.7960 O.3       1 K571001     0.0000 
     20 C20        14.7280   21.0530   14.1260 C.ar      1 K571001     0.0000 
     21 C24        12.7660   22.1920   15.0600 C.ar      1 K571001     0.0000 
     22 C21        13.8870   20.2300   13.3280 C.ar      1 K571001     0.0000 
     23 C23        11.9240   21.3750   14.2680 C.ar      1 K571001     0.0000 
     24 C29        19.1420   24.5590   17.3600 C.2       1 K571001     0.0000 
     25 N14        17.4370   24.0970   19.0340 N.am      1 K571001     0.0000 
     26 O32        18.9120   23.4900   16.7830 O.2       1 K571001     0.0000 
     27 C15        18.7480   24.7560   18.8690 C.3       1 K571001     0.0000 
     28 C16        19.7330   24.1200   19.9070 C.3       1 K571001     0.0000 
     29 C18        17.5020   22.7580   19.6830 C.3       1 K571001     0.0000 
     30 C27        19.6190   24.7670   21.3030 C.3       1 K571001     0.0000 
     31 C28        21.2030   24.1520   19.4270 C.3       1 K571001     0.0000 
     32 S17        19.2360   22.4060   20.0420 S.3       1 K571001     0.0000 
     33 N30        19.7290   25.6700   16.7930 N.am      1 K571001     0.0000 
     34 C31        20.2020   25.8120   15.3920 C.3       1 K571001     0.0000 
     35 C35        20.7570   27.2410   15.2750 C.3       1 K571001     0.0000 
     36 C67        19.0310   25.6220   14.4000 C.3       1 K571001     0.0000 
     37 C71        21.3410   24.8010   15.0940 C.3       1 K571001     0.0000 
     38 H          10.3305   17.0788   19.2368 H         1 K571001     0.0000 
     39 H          10.4719   18.2638   17.1153 H         1 K571001     0.0000 
     40 H          12.3390   19.7597   16.6730 H         1 K571001     0.0000 
     41 H          13.1203   21.9603   17.7900 H         1 K571001     0.0000 
     42 H          15.3679   23.0362   19.3830 H         1 K571001     0.0000 
     43 H          14.9154   23.9396   15.6548 H         1 K571001     0.0000 
     44 H          16.1667   22.7011   15.4542 H         1 K571001     0.0000 
     45 H          11.8692   19.8075   12.8374 H         1 K571001     0.0000 
     46 H          16.1268   22.1282   17.5884 H         1 K571001     0.0000 
     47 H          15.7446   20.9366   14.0740 H         1 K571001     0.0000 
     48 H          12.3633   22.8945   15.6786 H         1 K571001     0.0000 
     49 H          14.2932   19.5333   12.7117 H         1 K571001     0.0000 
     50 H          10.9107   21.4875   14.3147 H         1 K571001     0.0000 
     51 H          18.6506   25.7989   19.0646 H         1 K571001     0.0000 
     52 H          17.2372   21.9495   19.0542 H         1 K571001     0.0000 
     53 H          17.0627   22.7118   20.6443 H         1 K571001     0.0000 
     54 H          19.8767   26.5404   17.3907 H         1 K571001     0.0000 
     55 H          15.1837   18.6451   20.5866 H         1 K571001     0.0000 
     56 H          14.3506   19.8708   21.2110 H         1 K571001     0.0000 
     57 H          14.0614   18.3678   21.7046 H         1 K571001     0.0000 
     58 H          20.2493   24.3503   21.9581 H         1 K571001     0.0000 
     59 H          19.8271   25.7448   21.2773 H         1 K571001     0.0000 
     60 H          18.6983   24.6731   21.6818 H         1 K571001     0.0000 
     61 H          21.8220   23.7455   20.0990 H         1 K571001     0.0000 
     62 H          21.3257   23.6473   18.5725 H         1 K571001     0.0000 
     63 H          21.5201   25.0862   19.2638 H         1 K571001     0.0000 
     64 H          21.5122   27.3993   15.9111 H         1 K571001     0.0000 
     65 H          21.1029   27.4310   14.3562 H         1 K571001     0.0000 
     66 H          20.0581   27.9282   15.4730 H         1 K571001     0.0000 
     67 H          19.3307   25.7111   13.4502 H         1 K571001     0.0000 
     68 H          18.6099   24.7196   14.4910 H         1 K571001     0.0000 
     69 H          18.3087   26.2984   14.5441 H         1 K571001     0.0000 
     70 H          21.6703   24.8792   14.1530 H         1 K571001     0.0000 
     71 H          22.1292   24.9423   15.6930 H         1 K571001     0.0000 
     72 H          21.0413   23.8556   15.2220 H         1 K571001     0.0000 
     73 H          11.0963   16.7954   21.2131 H         1 K571001     0.0000 
     74 H          14.0473   24.7666   19.5891 H         1 K571001     0.0000 
@<TRIPOS>BOND
     1    2    1 ar   
     2    6    1 ar   
     3   38    1 1    
     4    3    2 ar   
     5   39    2 1    
     6    4    3 ar   
     7   40    3 1    
     8    5    4 ar   
     9    8    4 1    
    10    6    5 ar   
    11    7    5 1    
    12    9    6 1    
    13   55    7 1    
    14   56    7 1    
    15   57    7 1    
    16   10    8 2    
    17   12    8 am   
    18   73    9 1    
    19   13   11 2    
    20   14   11 1    
    21   25   11 am   
    22   18   12 1    
    23   41   12 1    
    24   18   14 1    
    25   19   14 1    
    26   42   14 1    
    27   16   15 1    
    28   20   15 ar   
    29   21   15 ar   
    30   18   16 1    
    31   43   16 1    
    32   44   16 1    
    33   22   17 ar   
    34   23   17 ar   
    35   45   17 1    
    36   46   18 1    
    37   74   19 1    
    38   22   20 ar   
    39   47   20 1    
    40   23   21 ar   
    41   48   21 1    
    42   49   22 1    
    43   50   23 1    
    44   26   24 2    
    45   27   24 1    
    46   33   24 am   
    47   27   25 1    
    48   29   25 1    
    49   28   27 1    
    50   51   27 1    
    51   30   28 1    
    52   31   28 1    
    53   32   28 1    
    54   32   29 1    
    55   52   29 1    
    56   53   29 1    
    57   58   30 1    
    58   59   30 1    
    59   60   30 1    
    60   61   31 1    
    61   62   31 1    
    62   63   31 1    
    63   34   33 1    
    64   54   33 1    
    65   35   34 1    
    66   36   34 1    
    67   37   34 1    
    68   64   35 1    
    69   65   35 1    
    70   66   35 1    
    71   67   36 1    
    72   68   36 1    
    73   69   36 1    
    74   70   37 1    
    75   71   37 1    
    76   72   37 1    
@<TRIPOS>SUBSTRUCTURE
     1 K571001     1 GROUP   
@<TRIPOS>SET

