#    Name: 1bxo_PP7_1_INTS_M
#    Modification time : Mon Mar 24 19:55:49 2014

@<TRIPOS>MOLECULE
1bxo_PP7_1_INTS_M
   86     0     9     0     0
SMALL
NO_CHARGES


@<TRIPOS>ATOM
      1 O          17.5610    6.2595   17.4155 O.2       1 ALC1        0.0000 
      2 O          18.0510    5.3170   18.4320 O.2       7 ALL1        0.0000 
      3 O          17.0710    7.2020   16.3990 O.2       4 ALP1        0.0000 
      4 CA         16.8285    3.9660   15.9665 C.3       3 GLC5        0.0000 
      5 CA         16.0920    4.0570   17.7300 C.3       9 GLL5        0.0000 
      6 CA         17.5650    3.8750   14.2030 C.3       6 GLP5        0.0000 
      7 CA         15.9755    5.9905   17.1330 C.3       3 GLC5        0.0000 
      8 CA         15.8590    7.9240   16.5360 C.3       6 GLP5        0.0000 
      9 CA         15.2740    6.4230   18.0445 C.3       3 GLC5        0.0000 
     10 CA         14.6890    4.9220   19.5530 C.3       9 GLL5        0.0000 
     11 CA         13.2025    6.1025   19.6700 C.3       3 GLC5        0.0000 
     12 CA         11.7160    7.2830   19.7870 C.3       6 GLP5        0.0000 
     13 CA         14.2350    5.6480   16.5250 C.3       3 GLC5        0.0000 
     14 CA         13.6180    3.7750   17.5780 C.3       9 GLL5        0.0000 
     15 CA         14.8520    7.5210   15.4720 C.3       6 GLP5        0.0000 
     16 CA         12.6165    3.8950   15.9410 C.3       3 GLC5        0.0000 
     17 CA         11.6150    4.0150   14.3040 C.3       6 GLP5        0.0000 
     18 CA         11.6760    3.7285   17.8840 C.3       3 GLC5        0.0000 
     19 CA          9.7340    3.6820   18.1900 C.3       6 GLP5        0.0000 
     20 N          17.7650    8.7855   18.5080 N.am      2 SEC2        0.0000 
     21 N          18.3670    7.8170   19.5170 N.am      8 SEL2        0.0000 
     22 N          17.1630    9.7540   17.4990 N.am      5 SEP2        0.0000 
     23 O          20.9125    6.0090   21.2065 O.2       1 ALC1        0.0000 
     24 O          20.1090    7.1410   20.8050 O.2       7 ALL1        0.0000 
     25 O          21.7160    4.8770   21.6080 O.2       4 ALP1        0.0000 
     26 CA         19.2540   10.0835   20.8010 C.3       3 GLC5        0.0000 
     27 CA         20.1150    8.3280   21.6850 C.3       9 GLL5        0.0000 
     28 CA         18.3930   11.8390   19.9170 C.3       6 GLP5        0.0000 
     29 O          19.2635   11.0065   22.2330 O.2       1 ALC1        0.0000 
     30 O          19.0770   10.3600   23.5810 O.2       7 ALL1        0.0000 
     31 O          19.4500   11.6530   20.8850 O.2       4 ALP1        0.0000 
     32 CA         17.8740   11.4065   22.4505 C.3       3 GLC5        0.0000 
     33 CA         18.6640   11.4770   24.4420 C.3       9 GLL5        0.0000 
     34 CA         17.0840   11.3360   20.4590 C.3       6 GLP5        0.0000 
     35 CA         16.8705   11.1535   24.1875 C.3       3 GLC5        0.0000 
     36 CA         15.0770   10.8300   23.9330 C.3       6 GLP5        0.0000 
     37 CA         17.7430   13.1075   24.5900 C.3       3 GLC5        0.0000 
     38 CA         16.8220   14.7380   24.7380 C.3       6 GLP5        0.0000 
     39 N          21.9640    7.3675   24.1385 N.am      2 SEC2        0.0000 
     40 N          22.1800    8.3600   22.9420 N.am      8 SEL2        0.0000 
     41 N          21.7480    6.3750   25.3350 N.am      5 SEP2        0.0000 
     42 O          21.7625    9.7635   19.5165 O.2       1 ALC1        0.0000 
     43 O          22.1390    9.4880   20.9720 O.2       7 ALL1        0.0000 
     44 O          21.3860   10.0390   18.0610 O.2       4 ALP1        0.0000 
     45 CA         26.0805    9.4005   18.6390 C.3       3 GLC5        0.0000 
     46 CA         24.2340    9.3230   19.6550 C.3       9 GLL5        0.0000 
     47 CA         27.9270    9.4780   17.6230 C.3       6 GLP5        0.0000 
     48 CA         23.1930   10.6405   18.2695 C.3       3 GLC5        0.0000 
     49 CA         22.1520   11.9580   16.8840 C.3       6 GLP5        0.0000 
     50 CA         26.2630    8.4830   17.7960 C.3       3 GLC5        0.0000 
     51 CA         24.5990    7.4880   17.9690 C.3       9 GLL5        0.0000 
     52 CA         25.6420    7.4890   21.6370 C.3       3 GLC5        0.0000 
     53 CA         24.4280    6.9130   20.4160 C.3       9 GLL5        0.0000 
     54 CA         26.8560    8.0650   22.8580 C.3       6 GLP5        0.0000 
     55 CA         26.1065    5.6770   19.9705 C.3       3 GLC5        0.0000 
     56 CA         27.7850    4.4410   19.5250 C.3       6 GLP5        0.0000 
     57 CA         23.9965   15.6785   24.4500 C.3       3 GLC5        0.0000 
     58 CA         22.9070   14.0680   23.7130 C.3       9 GLL5        0.0000 
     59 CA         25.0860   17.2890   25.1870 C.3       6 GLP5        0.0000 
     60 CA         25.1290   15.1070   26.6625 C.3       3 GLC5        0.0000 
     61 CA         25.5130   12.9980   26.7790 C.3       9 GLL5        0.0000 
     62 CA         24.7450   17.2160   26.5460 C.3       6 GLP5        0.0000 
     63 N          24.0315    9.8935   25.3460 N.am      2 SEC2        0.0000 
     64 N          24.5270   11.2170   24.9550 N.am      8 SEL2        0.0000 
     65 N          23.5360    8.5700   25.7370 N.am      5 SEP2        0.0000 
     66 CA         20.2900    6.4050   23.0612 C.3       3 GLC5        0.0000 
     67 CA         19.3710    8.0260   22.9740 C.3       9 GLL5        0.0000 
     68 CA         20.8370    4.6330   23.7930 C.3       6 GLP5        0.0000 
     69 CA         25.4722    9.4635   21.3410 C.3       3 GLC5        0.0000 
     70 CA         23.5530    9.8470   20.9350 C.3       9 GLL5        0.0000 
     71 CA         27.0510    9.3420   22.3870 C.3       6 GLP5        0.0000 
     72 CA         24.0832   14.8613   22.0343 C.3       3 GLC5        0.0000 
     73 CA         23.9660   12.9730   23.4040 C.3       9 GLL5        0.0000 
     74 CA         24.7300   16.2020   20.5100 C.3       6 GLP5        0.0000 
     75 CA         19.8387   14.7140   25.2512 C.3       3 GLC5        0.0000 
     76 CA         21.8170   13.6320   24.6150 C.3       9 GLL5        0.0000 
     77 CA         17.9090   15.5680   25.2210 C.3       6 GLP5        0.0000 
     78 CA         21.5355   15.7110   24.3770 C.3       3 GLC5        0.0000 
     79 CA         21.7200   14.0880   25.9480 C.3       9 GLL5        0.0000 
     80 CA         21.0300   17.4530   23.6980 C.3       6 GLP5        0.0000 
     81 CA         19.1017   14.0590   24.9008 C.3       3 GLC5        0.0000 
     82 CA         20.8070   12.7680   24.1780 C.3       9 GLL5        0.0000 
     83 CA         18.8975   13.8020   27.8227 C.3       3 GLC5        0.0000 
     84 CA         19.7380   12.7580   26.3260 C.3       9 GLL5        0.0000 
     85 CA         17.5820   14.3910   29.0960 C.3       6 GLP5        0.0000 
     86 CA         19.0610   14.3905   25.8852 C.3       3 GLC5        0.0000 
@<TRIPOS>BOND
@<TRIPOS>SUBSTRUCTURE
     1 ALC1        1 GROUP        1 X    ALC  0     ROOT ALC X 1
     2 SEC2       20 GROUP        1 X    SEC  0     **** SEC X 2
     3 GLC5        4 GROUP        1 X    GLC  0     **** GLC X 6
     4 ALP1        3 GROUP        1 Y    ALP  0     ROOT ALP Y 8
     5 SEP2       22 GROUP        1 Y    SEP  0     **** SEP Y 9
     6 GLP5        6 GROUP        1 Y    GLP  0     **** GLP Y 13
     7 ALL1        2 GROUP        1 Z    ALL  0     ROOT ALL Z 15
     8 SEL2       21 GROUP        1 Z    SEL  0     **** SEL Z 16
     9 GLL5        5 GROUP        1 Z    GLL  0     **** GLL Z 20
@<TRIPOS>SET

