#    Name: 1bxo_PP7_1_ligand
#    Modification time : Mon Mar 24 19:55:49 2014

@<TRIPOS>MOLECULE
1bxo_PP7_1_ligand
   90    91     1     0     0
SMALL
NO_CHARGES


@<TRIPOS>ATOM
      1 NV2        18.0510    5.3170   18.4320 N.am      1 PP7324      0.0000 
      2 CV1        16.0920    4.0570   17.7300 C.3       1 PP7324      0.0000 
      3 CV6        19.3060    5.5990   19.1250 C.3       1 PP7324      0.0000 
      4 CV2        14.8410    3.8900   18.5460 C.3       1 PP7324      0.0000 
      5 CV7        20.5230    5.4920   18.2140 C.3       1 PP7324      0.0000 
      6 CV3        14.6890    4.9220   19.5530 C.3       1 PP7324      0.0000 
      7 CV8        20.6780    4.1160   17.6370 C.3       1 PP7324      0.0000 
      8 CV4        13.6180    3.7750   17.5780 C.3       1 PP7324      0.0000 
      9 CV9        20.5270    6.5810   17.1570 C.3       1 PP7324      0.0000 
     10 CV5        17.3280    4.2240   18.5800 C.2       1 PP7324      0.0000 
     11 CR         19.1970    6.9640   19.8490 C.2       1 PP7324      0.0000 
     12 OV1        17.7060    3.2880   19.3500 O.2       1 PP7324      0.0000 
     13 OV2        18.3670    7.8170   19.5170 O.2       1 PP7324      0.0000 
     14 N1         20.1090    7.1410   20.8050 N.am      1 PP7324      0.0000 
     15 C1         20.1150    8.3280   21.6850 C.3       1 PP7324      0.0000 
     16 C2         19.3710    8.0260   22.9740 C.3       1 PP7324      0.0000 
     17 C4         19.1900    9.1290   23.9840 C.2       1 PP7324      0.0000 
     18 O2         19.0640    8.8360   25.2000 O.2       1 PP7324      0.0000 
     19 N2         19.0770   10.3600   23.5810 N.am      1 PP7324      0.0000 
     20 CB         18.6640   11.4770   24.4420 C.3       1 PP7324      0.0000 
     21 C3         21.5550    8.7340   21.9250 C.2       1 PP7324      0.0000 
     22 O1         22.1800    8.3600   22.9420 O.2       1 PP7324      0.0000 
     23 NL         22.1390    9.4880   20.9720 N.am      1 PP7324      0.0000 
     24 CAL        23.5530    9.8470   20.9350 C.3       1 PP7324      0.0000 
     25 CBL        24.2340    9.3230   19.6550 C.3       1 PP7324      0.0000 
     26 CGL        23.9710    7.8600   19.2910 C.3       1 PP7324      0.0000 
     27 CL1        24.5990    7.4880   17.9690 C.3       1 PP7324      0.0000 
     28 CL2        24.4280    6.9130   20.4160 C.3       1 PP7324      0.0000 
     29 P          23.7220   11.6490   21.1010 P.3       1 PP7324      0.0000 
     30 O3         22.7540   12.2890   20.1340 O.co2     1 PP7324      0.0000 
     31 O4         25.1710   12.0470   20.9650 O.co2     1 PP7324      0.0000 
     32 O5         23.3540   11.9260   22.6220 O.3       1 PP7324      0.0000 
     33 C5         23.9660   12.9730   23.4040 C.3       1 PP7324      0.0000 
     34 C6         22.9070   14.0680   23.7130 C.3       1 PP7324      0.0000 
     35 C7         25.5130   12.9980   26.7790 C.3       1 PP7324      0.0000 
     36 CE2        21.8170   13.6320   24.6150 C.ar      1 PP7324      0.0000 
     37 CZ         21.7200   14.0880   25.9480 C.ar      1 PP7324      0.0000 
     38 CD2        20.8070   12.7680   24.1780 C.ar      1 PP7324      0.0000 
     39 CE1        20.6880   13.6680   26.7730 C.ar      1 PP7324      0.0000 
     40 CD1        19.7380   12.7580   26.3260 C.ar      1 PP7324      0.0000 
     41 CG         19.7820   12.3320   24.9830 C.ar      1 PP7324      0.0000 
     42 CT         24.5240   12.3800   24.6900 C.2       1 PP7324      0.0000 
     43 OT1        24.9760   13.3280   25.4650 O.3       1 PP7324      0.0000 
     44 OT2        24.5270   11.2170   24.9550 O.2       1 PP7324      0.0000 
     45 H          17.7419    6.0914   17.7651 H         1 PP7324      0.0000 
     46 H          15.9848    4.9358   17.0735 H         1 PP7324      0.0000 
     47 H          16.2207    3.1795   17.0756 H         1 PP7324      0.0000 
     48 H          19.4309    4.8394   19.9339 H         1 PP7324      0.0000 
     49 H          14.9143    2.8941   19.0417 H         1 PP7324      0.0000 
     50 H          21.4175    5.6791   18.8669 H         1 PP7324      0.0000 
     51 H          20.8704    6.4521   20.9866 H         1 PP7324      0.0000 
     52 H          19.6107    9.1444   21.1748 H         1 PP7324      0.0000 
     53 H          19.8826    7.1568   23.4788 H         1 PP7324      0.0000 
     54 H          18.3558    7.6149   22.7049 H         1 PP7324      0.0000 
     55 H          19.2807   10.6466   22.5783 H         1 PP7324      0.0000 
     56 H          18.0718   11.0875   25.3072 H         1 PP7324      0.0000 
     57 H          17.9549   12.1396   23.8861 H         1 PP7324      0.0000 
     58 H          21.5625    9.8712   20.1672 H         1 PP7324      0.0000 
     59 H          24.0824    9.4972   21.8089 H         1 PP7324      0.0000 
     60 H          25.3311    9.4749   19.7555 H         1 PP7324      0.0000 
     61 H          23.9194    9.9655   18.8035 H         1 PP7324      0.0000 
     62 H          22.8770    7.7377   19.1936 H         1 PP7324      0.0000 
     63 H          24.7700   13.4382   22.8595 H         1 PP7324      0.0000 
     64 H          22.4923   14.4118   22.7453 H         1 PP7324      0.0000 
     65 H          23.4424   14.9353   24.1464 H         1 PP7324      0.0000 
     66 H          22.4340   14.7439   26.3030 H         1 PP7324      0.0000 
     67 H          20.8432   12.4400   23.1770 H         1 PP7324      0.0000 
     68 H          20.6229   14.0381   27.7391 H         1 PP7324      0.0000 
     69 H          19.0189   12.3996   26.9503 H         1 PP7324      0.0000 
     70 H          15.4510    4.9241   20.2006 H         1 PP7324      0.0000 
     71 H          14.6475    5.8346   19.1462 H         1 PP7324      0.0000 
     72 H          13.8517    4.8003   20.0860 H         1 PP7324      0.0000 
     73 H          21.4782    4.0513   17.0407 H         1 PP7324      0.0000 
     74 H          20.7876    3.4242   18.3507 H         1 PP7324      0.0000 
     75 H          19.8834    3.8505   17.0910 H         1 PP7324      0.0000 
     76 H          13.5206    4.5883   17.0044 H         1 PP7324      0.0000 
     77 H          13.7036    2.9912   16.9630 H         1 PP7324      0.0000 
     78 H          12.7586    3.6636   18.0770 H         1 PP7324      0.0000 
     79 H          20.5465    7.4940   17.5645 H         1 PP7324      0.0000 
     80 H          21.3226    6.5115   16.5552 H         1 PP7324      0.0000 
     81 H          19.7148    6.5370   16.5753 H         1 PP7324      0.0000 
     82 H          25.5906    7.6168   17.9796 H         1 PP7324      0.0000 
     83 H          24.4302    6.5308   17.7339 H         1 PP7324      0.0000 
     84 H          24.2395    8.0420   17.2181 H         1 PP7324      0.0000 
     85 H          25.4073    6.9991   20.5990 H         1 PP7324      0.0000 
     86 H          23.9517    7.0999   21.2752 H         1 PP7324      0.0000 
     87 H          24.2556    5.9548   20.1878 H         1 PP7324      0.0000 
     88 H          26.2926   12.3749   26.7158 H         1 PP7324      0.0000 
     89 H          25.8274   13.8123   27.2669 H         1 PP7324      0.0000 
     90 H          24.8295   12.5545   27.3588 H         1 PP7324      0.0000 
@<TRIPOS>BOND
     1    3    1 1    
     2   10    1 am   
     3   45    1 1    
     4    4    2 1    
     5   10    2 1    
     6   46    2 1    
     7   47    2 1    
     8    5    3 1    
     9   11    3 1    
    10   48    3 1    
    11    6    4 1    
    12    8    4 1    
    13   49    4 1    
    14    7    5 1    
    15    9    5 1    
    16   50    5 1    
    17   70    6 1    
    18   71    6 1    
    19   72    6 1    
    20   73    7 1    
    21   74    7 1    
    22   75    7 1    
    23   76    8 1    
    24   77    8 1    
    25   78    8 1    
    26   79    9 1    
    27   80    9 1    
    28   81    9 1    
    29   12   10 2    
    30   13   11 2    
    31   14   11 am   
    32   15   14 1    
    33   51   14 1    
    34   16   15 1    
    35   21   15 1    
    36   52   15 1    
    37   17   16 1    
    38   53   16 1    
    39   54   16 1    
    40   18   17 2    
    41   19   17 am   
    42   20   19 1    
    43   55   19 1    
    44   41   20 1    
    45   56   20 1    
    46   57   20 1    
    47   22   21 2    
    48   23   21 am   
    49   24   23 1    
    50   58   23 1    
    51   25   24 1    
    52   29   24 1    
    53   59   24 1    
    54   26   25 1    
    55   60   25 1    
    56   61   25 1    
    57   27   26 1    
    58   28   26 1    
    59   62   26 1    
    60   82   27 1    
    61   83   27 1    
    62   84   27 1    
    63   85   28 1    
    64   86   28 1    
    65   87   28 1    
    66   30   29 ar   
    67   31   29 ar   
    68   32   29 1    
    69   33   32 1    
    70   34   33 1    
    71   42   33 1    
    72   63   33 1    
    73   36   34 1    
    74   64   34 1    
    75   65   34 1    
    76   43   35 1    
    77   88   35 1    
    78   89   35 1    
    79   90   35 1    
    80   37   36 ar   
    81   38   36 ar   
    82   39   37 ar   
    83   66   37 1    
    84   41   38 ar   
    85   67   38 1    
    86   40   39 ar   
    87   68   39 1    
    88   41   40 ar   
    89   69   40 1    
    90   43   42 1    
    91   44   42 2    
@<TRIPOS>SUBSTRUCTURE
     1 PP7324      1 GROUP   
@<TRIPOS>SET

