#    Name: 2cbr_A80_1_INTS_M
#    Modification time : Mon Mar 24 23:25:25 2014

@<TRIPOS>MOLECULE
2cbr_A80_1_INTS_M
   54     0     9     0     0
SMALL
NO_CHARGES


@<TRIPOS>ATOM
      1 CA         28.9205   85.2070    2.6510 C.3       3 GLC5        0.0000 
      2 CA         28.4650   83.4730    3.4930 C.3       9 GLL5        0.0000 
      3 CA         29.3760   86.9410    1.8090 C.3       6 GLP5        0.0000 
      4 CA         30.7140   84.6965    6.5920 C.3       3 GLC5        0.0000 
      5 CA         29.6360   83.0620    6.3710 C.3       9 GLL5        0.0000 
      6 CA         31.7920   86.3310    6.8130 C.3       6 GLP5        0.0000 
      7 CA         27.8445   84.0235    7.1325 C.3       3 GLC5        0.0000 
      8 CA         26.0530   84.9850    7.8940 C.3       6 GLP5        0.0000 
      9 CA         31.0585   81.6675    7.1520 C.3       3 GLC5        0.0000 
     10 CA         32.4810   80.2730    7.9330 C.3       6 GLP5        0.0000 
     11 CA         31.1410   80.4675    6.8885 C.3       3 GLC5        0.0000 
     12 CA         29.8010   80.6620    5.8440 C.3       9 GLL5        0.0000 
     13 CA         31.0740   79.1560    5.5135 C.3       3 GLC5        0.0000 
     14 CA         32.3470   77.6500    5.1830 C.3       6 GLP5        0.0000 
     15 CA         27.7390   85.5795    2.4610 C.3       3 GLC5        0.0000 
     16 CA         26.1020   84.2180    3.1130 C.3       9 GLL5        0.0000 
     17 CA         24.7150   85.4905    3.1160 C.3       3 GLC5        0.0000 
     18 CA         23.3280   86.7630    3.1190 C.3       6 GLP5        0.0000 
     19 CA         24.0380   83.3760    3.3005 C.3       3 GLC5        0.0000 
     20 CA         21.9740   82.5340    3.4880 C.3       6 GLP5        0.0000 
     21 NZ         21.7805   78.8245   14.2940 N.4       2 LYC4        0.0000 
     22 NZ         22.2950   77.3000   14.3450 N.4       8 LYL4        0.0000 
     23 NZ         22.1570   80.5780   15.1970 N.4       5 LYP4        0.0000 
     24 N          22.5210   78.4270   15.0755 N.am      1 SEC2        0.0000 
     25 N          22.2950   77.3000   14.3450 N.am      7 SEL2        0.0000 
     26 N          22.7470   79.5540   15.8060 N.am      4 SEP2        0.0000 
     27 N          21.7805   78.8245   14.2940 N.am      1 SEC2        0.0000 
     28 N          21.2660   80.3490   14.2430 N.am      4 SEP2        0.0000 
     29 CA         26.5433   83.5002    6.5468 C.3       3 GLC5        0.0000 
     30 CA         27.5330   81.7750    5.7020 C.3       9 GLL5        0.0000 
     31 CA         25.9187   80.2982    4.7797 C.3       3 GLC5        0.0000 
     32 CA         26.5340   82.2560    4.6970 C.3       9 GLL5        0.0000 
     33 CA         25.9910   78.4310    4.7190 C.3       6 GLP5        0.0000 
     34 CA         24.7847   83.5333    6.5330 C.3       3 GLC5        0.0000 
     35 CA         25.1590   82.0750    4.9840 C.3       9 GLL5        0.0000 
     36 CA         24.6210   85.3130    7.4960 C.3       6 GLP5        0.0000 
     37 CA         23.4612   82.1438    4.5290 C.3       3 GLC5        0.0000 
     38 CA         24.7380   81.4320    6.1560 C.3       9 GLL5        0.0000 
     39 CA         25.6000   79.8083    5.6760 C.3       3 GLC5        0.0000 
     40 CA         26.2120   83.0087    7.4448 C.3       3 GLC5        0.0000 
     41 CA         25.6800   80.9390    7.1100 C.3       9 GLL5        0.0000 
     42 CA         26.6442   79.9408    5.5053 C.3       3 GLC5        0.0000 
     43 CA         27.0620   81.1260    6.8810 C.3       9 GLL5        0.0000 
     44 CA         22.6307   80.9055   10.8163 C.3       3 GLC5        0.0000 
     45 CA         23.7550   79.2120    9.9550 C.3       9 GLL5        0.0000 
     46 CA         22.1760   82.7560   11.4860 C.3       6 GLP5        0.0000 
     47 CA         20.3235   78.4805   11.3438 C.3       3 GLC5        0.0000 
     48 CA         22.1720   78.1300   11.4870 C.3       9 GLL5        0.0000 
     49 CA         18.3530   78.4470   11.7750 C.3       6 GLP5        0.0000 
     50 CA         21.2759   78.9832    9.3629 C.3       3 GLC5        0.0000 
     51 CA         19.9230   79.3740    7.9090 C.3       6 GLP5        0.0000 
     52 CA         21.9429   76.7145   10.7780 C.3       3 GLC5        0.0000 
     53 CA         22.4160   78.8980   10.3380 C.3       9 GLL5        0.0000 
     54 CA         21.3210   75.0330   10.4490 C.3       6 GLP5        0.0000 
@<TRIPOS>BOND
@<TRIPOS>SUBSTRUCTURE
     1 SEC2       24 GROUP        1 X    SEC  0     ROOT SEC X 2
     2 LYC4       21 GROUP        1 X    LYC  0     **** LYC X 4
     3 GLC5        1 GROUP        1 X    GLC  0     **** GLC X 6
     4 SEP2       26 GROUP        1 Y    SEP  0     ROOT SEP Y 9
     5 LYP4       23 GROUP        1 Y    LYP  0     **** LYP Y 11
     6 GLP5        3 GROUP        1 Y    GLP  0     **** GLP Y 13
     7 SEL2       25 GROUP        1 Z    SEL  0     ROOT SEL Z 16
     8 LYL4       22 GROUP        1 Z    LYL  0     **** LYL Z 18
     9 GLL5        2 GROUP        1 Z    GLL  0     **** GLL Z 20
@<TRIPOS>SET

