#    Name: 2cbr_A80_1_ligand
#    Modification time : Mon Mar 24 23:25:25 2014

@<TRIPOS>MOLECULE
2cbr_A80_1_ligand
   48    50     1     0     0
SMALL
NO_CHARGES


@<TRIPOS>ATOM
      1 C1         29.0760   81.9550    5.4700 C.3       1 A80201      0.0000 
      2 C2         29.3930   82.3310    4.0090 C.2       1 A80201      0.0000 
      3 C3         28.4650   83.4730    3.4930 C.2       1 A80201      0.0000 
      4 C4         27.0040   83.0070    3.3910 C.3       1 A80201      0.0000 
      5 C5         26.5340   82.2560    4.6970 C.ar      1 A80201      0.0000 
      6 C6         25.1590   82.0750    4.9840 C.ar      1 A80201      0.0000 
      7 C7         24.7380   81.4320    6.1560 C.ar      1 A80201      0.0000 
      8 C8         25.6800   80.9390    7.1100 C.ar      1 A80201      0.0000 
      9 C9         27.0620   81.1260    6.8810 C.ar      1 A80201      0.0000 
     10 C10        27.5330   81.7750    5.7020 C.ar      1 A80201      0.0000 
     11 N11        25.2850   80.2390    8.3010 N.am      1 A80201      0.0000 
     12 C12        24.0040   79.9950    8.7070 C.2       1 A80201      0.0000 
     13 C13        23.7550   79.2120    9.9550 C.ar      1 A80201      0.0000 
     14 C14        24.8390   78.7470   10.7410 C.ar      1 A80201      0.0000 
     15 C15        24.5880   77.9720   11.8920 C.ar      1 A80201      0.0000 
     16 C16        23.2550   77.6580   12.2650 C.ar      1 A80201      0.0000 
     17 C17        22.1720   78.1300   11.4870 C.ar      1 A80201      0.0000 
     18 C18        22.4160   78.8980   10.3380 C.ar      1 A80201      0.0000 
     19 C19        22.9980   76.8480   13.4320 C.2       1 A80201      0.0000 
     20 C20        29.6360   83.0620    6.3710 C.3       1 A80201      0.0000 
     21 C21        29.8010   80.6620    5.8440 C.3       1 A80201      0.0000 
     22 C22        26.1020   84.2180    3.1130 C.3       1 A80201      0.0000 
     23 C23        26.8940   82.0640    2.1860 C.3       1 A80201      0.0000 
     24 O24        23.0300   80.3960    8.0500 O.2       1 A80201      0.0000 
     25 O25        23.2590   75.6160   13.4090 O.co2     1 A80201      0.0000 
     26 O26        22.2950   77.3000   14.3450 O.co2     1 A80201      0.0000 
     27 H          30.0412   81.9394    3.5014 H         1 A80201      0.0000 
     28 H          28.7625   84.3073    3.2818 H         1 A80201      0.0000 
     29 H          24.4583   82.4257    4.3131 H         1 A80201      0.0000 
     30 H          23.7339   81.3070    6.3435 H         1 A80201      0.0000 
     31 H          27.7431   80.7906    7.5724 H         1 A80201      0.0000 
     32 H          26.0910   79.8860    8.9097 H         1 A80201      0.0000 
     33 H          25.7955   78.9738   10.4724 H         1 A80201      0.0000 
     34 H          25.3654   77.6334   12.4621 H         1 A80201      0.0000 
     35 H          21.2138   77.9091   11.7657 H         1 A80201      0.0000 
     36 H          21.6405   79.2384    9.7669 H         1 A80201      0.0000 
     37 H          30.6250   83.1634    6.2637 H         1 A80201      0.0000 
     38 H          29.2263   83.9508    6.1657 H         1 A80201      0.0000 
     39 H          29.4636   82.8763    7.3384 H         1 A80201      0.0000 
     40 H          30.7930   80.7544    5.7585 H         1 A80201      0.0000 
     41 H          29.6122   80.3899    6.7876 H         1 A80201      0.0000 
     42 H          29.5261   79.8994    5.2585 H         1 A80201      0.0000 
     43 H          26.1625   84.9010    3.8409 H         1 A80201      0.0000 
     44 H          26.3488   84.6767    2.2594 H         1 A80201      0.0000 
     45 H          25.1402   83.9550    3.0370 H         1 A80201      0.0000 
     46 H          27.1499   82.5195    1.3333 H         1 A80201      0.0000 
     47 H          27.4899   81.2668    2.2827 H         1 A80201      0.0000 
     48 H          25.9623   81.7208    2.0668 H         1 A80201      0.0000 
@<TRIPOS>BOND
     1    2    1 1    
     2   10    1 1    
     3   20    1 1    
     4   21    1 1    
     5    3    2 2    
     6   27    2 1    
     7    4    3 1    
     8   28    3 1    
     9    5    4 1    
    10   22    4 1    
    11   23    4 1    
    12    6    5 ar   
    13   10    5 ar   
    14    7    6 ar   
    15   29    6 1    
    16    8    7 ar   
    17   30    7 1    
    18    9    8 ar   
    19   11    8 1    
    20   10    9 ar   
    21   31    9 1    
    22   12   11 am   
    23   32   11 1    
    24   13   12 1    
    25   24   12 2    
    26   14   13 ar   
    27   18   13 ar   
    28   15   14 ar   
    29   33   14 1    
    30   16   15 ar   
    31   34   15 1    
    32   17   16 ar   
    33   19   16 1    
    34   18   17 ar   
    35   35   17 1    
    36   36   18 1    
    37   25   19 ar   
    38   26   19 ar   
    39   37   20 1    
    40   38   20 1    
    41   39   20 1    
    42   40   21 1    
    43   41   21 1    
    44   42   21 1    
    45   43   22 1    
    46   44   22 1    
    47   45   22 1    
    48   46   23 1    
    49   47   23 1    
    50   48   23 1    
@<TRIPOS>SUBSTRUCTURE
     1 A80201      1 GROUP   
@<TRIPOS>SET

