#    Name: 1hni_AAA_1_INTS_M
#    Modification time : Tue Mar 25 05:37:00 2014

@<TRIPOS>MOLECULE
1hni_AAA_1_INTS_M
   61     0     6     0     0
SMALL
NO_CHARGES


@<TRIPOS>ATOM
      1 CA        140.8545  -20.6625   73.9670 C.3       2 GLC5        0.0000 
      2 CA        142.4560  -19.8030   74.1510 C.3       6 GLL5        0.0000 
      3 CA        139.2530  -21.5220   73.7830 C.3       4 GLP5        0.0000 
      4 CA        143.9285  -19.0235   74.6635 C.3       2 GLC5        0.0000 
      5 CA        145.4010  -18.2440   75.1760 C.3       4 GLP5        0.0000 
      6 CA        141.7655  -18.5625   72.7670 C.3       2 GLC5        0.0000 
      7 CA        141.0750  -17.3220   71.3830 C.3       4 GLP5        0.0000 
      8 CA        142.0050  -19.0625   77.1460 C.3       2 GLC5        0.0000 
      9 CA        143.2100  -20.8850   76.7380 C.3       6 GLL5        0.0000 
     10 CA        140.8000  -17.2400   77.5540 C.3       4 GLP5        0.0000 
     11 CA        145.2805  -21.3500   78.2795 C.3       2 GLC5        0.0000 
     12 CA        144.5040  -22.8920   79.6490 C.3       6 GLL5        0.0000 
     13 CA        146.0570  -19.8080   76.9100 C.3       4 GLP5        0.0000 
     14 CA        145.7845  -23.9240   79.8805 C.3       2 GLC5        0.0000 
     15 CA        147.0650  -24.9560   80.1120 C.3       4 GLP5        0.0000 
     16 CA        143.6315  -22.1500   80.6105 C.3       2 GLC5        0.0000 
     17 CA        142.7590  -21.4080   81.5720 C.3       4 GLP5        0.0000 
     18 CA        146.3650  -23.8010   76.8840 C.3       2 GLC5        0.0000 
     19 CA        144.3560  -23.3510   77.1930 C.3       6 GLL5        0.0000 
     20 CA        148.3740  -24.2510   76.5750 C.3       4 GLP5        0.0000 
     21 CA        145.7055  -27.1625   75.3650 C.3       2 GLC5        0.0000 
     22 CA        144.6390  -25.3170   74.8800 C.3       6 GLL5        0.0000 
     23 CA        146.7720  -29.0080   75.8500 C.3       4 GLP5        0.0000 
     24 CA        146.5065  -24.7840   75.7275 C.3       2 GLC5        0.0000 
     25 O         148.1675  -27.1990   73.9470 O.2       1 ALC1        0.0000 
     26 O         146.9470  -26.2190   74.3140 O.2       5 ALL1        0.0000 
     27 O         149.3880  -28.1790   73.5800 O.2       3 ALP1        0.0000 
     28 CA        145.5285  -27.9735   76.6850 C.3       2 GLC5        0.0000 
     29 CA        144.2850  -26.9390   77.5200 C.3       6 GLL5        0.0000 
     30 CA        145.7630  -25.9765   78.1215 C.3       2 GLC5        0.0000 
     31 CA        147.2410  -25.0140   78.7230 C.3       4 GLP5        0.0000 
     32 CA        144.8195  -28.4685   78.8455 C.3       2 GLC5        0.0000 
     33 CA        145.3540  -29.9980   80.1710 C.3       4 GLP5        0.0000 
     34 CA        142.9270  -26.0935   78.7525 C.3       2 GLC5        0.0000 
     35 CA        141.5690  -25.2480   79.9850 C.3       4 GLP5        0.0000 
     36 CA        141.3500  -30.2790   75.0115 C.3       2 GLC5        0.0000 
     37 CA        141.3350  -28.1500   74.9110 C.3       6 GLL5        0.0000 
     38 CA        141.3650  -32.4080   75.1120 C.3       4 GLP5        0.0000 
     39 CA        141.4195  -24.8100   74.5860 C.3       2 GLC5        0.0000 
     40 CA        142.6720  -26.4440   73.7940 C.3       6 GLL5        0.0000 
     41 CA        140.1670  -23.1760   75.3780 C.3       4 GLP5        0.0000 
     42 CA        143.0195  -27.0410   71.3445 C.3       2 GLC5        0.0000 
     43 CA        142.9430  -25.3820   72.2980 C.3       6 GLL5        0.0000 
     44 CA        143.0960  -28.7000   70.3910 C.3       4 GLP5        0.0000 
     45 CA        143.8900  -24.1675   71.2310 C.3       2 GLC5        0.0000 
     46 CA        144.8370  -22.9530   70.1640 C.3       4 GLP5        0.0000 
     47 CA        142.9532  -24.1340   79.0302 C.3       2 GLC5        0.0000 
     48 CA        144.1340  -22.4860   78.2670 C.3       6 GLL5        0.0000 
     49 CA        141.9077  -22.6690   75.6908 C.3       2 GLC5        0.0000 
     50 CA        143.9830  -23.0250   75.8300 C.3       6 GLL5        0.0000 
     51 CA        145.0842  -21.2890   75.2467 C.3       2 GLC5        0.0000 
     52 CA        143.4180  -21.7130   75.6160 C.3       6 GLL5        0.0000 
     53 CA        146.5200  -20.4160   74.4900 C.3       4 GLP5        0.0000 
     54 CA        144.4150  -28.1185   74.6093 C.3       2 GLC5        0.0000 
     55 CA        143.4980  -26.3080   74.8450 C.3       6 GLL5        0.0000 
     56 CA        145.4660  -29.5270   73.8060 C.3       4 GLP5        0.0000 
     57 CA        143.5998  -28.7940   74.6390 C.3       2 GLC5        0.0000 
     58 CA        142.1320  -27.9720   76.0330 C.3       6 GLL5        0.0000 
     59 CA        142.6225  -27.8107   72.0877 C.3       2 GLC5        0.0000 
     60 CA        141.6260  -27.3990   73.7750 C.3       6 GLL5        0.0000 
     61 CA        143.8075  -28.2243   73.7953 C.3       2 GLC5        0.0000 
@<TRIPOS>BOND
@<TRIPOS>SUBSTRUCTURE
     1 ALC1       25 GROUP        1 X    ALC  0     ROOT ALC X 1
     2 GLC5        1 GROUP        1 X    GLC  0     **** GLC X 6
     3 ALP1       27 GROUP        1 Y    ALP  0     ROOT ALP Y 8
     4 GLP5        3 GROUP        1 Y    GLP  0     **** GLP Y 13
     5 ALL1       26 GROUP        1 Z    ALL  0     ROOT ALL Z 15
     6 GLL5        2 GROUP        1 Z    GLL  0     **** GLL Z 20
@<TRIPOS>SET

