#    Name: 1hni_AAA_1_ligand
#    Modification time : Tue Mar 25 05:37:01 2014

@<TRIPOS>MOLECULE
1hni_AAA_1_ligand
   39    40     1     0     0
SMALL
NO_CHARGES


@<TRIPOS>ATOM
      1 C1        143.4180  -21.7130   75.6160 C.ar      1 AAA559      0.0000 
      2 C1A       143.0540  -21.1910   74.2670 C.2       1 AAA559      0.0000 
      3 C1B       142.4560  -19.8030   74.1510 C.3       1 AAA559      0.0000 
      4 O1B       143.1450  -21.8730   73.2010 O.2       1 AAA559      0.0000 
      5 C2        143.2100  -20.8850   76.7380 C.ar      1 AAA559      0.0000 
      6 C3        143.5550  -21.2470   78.0290 C.ar      1 AAA559      0.0000 
      7 C4        144.1340  -22.4860   78.2670 C.ar      1 AAA559      0.0000 
      8 C4A       144.5040  -22.8920   79.6490 C.3       1 AAA559      0.0000 
      9 C5        144.3560  -23.3510   77.1930 C.ar      1 AAA559      0.0000 
     10 C6        143.9830  -23.0250   75.8300 C.ar      1 AAA559      0.0000 
     11 N7        144.1770  -23.9440   74.7540 N.pl3     1 AAA559      0.0000 
     12 C8        144.6390  -25.3170   74.8800 C.3       1 AAA559      0.0000 
     13 C8A       145.7760  -25.6670   73.8970 C.2       1 AAA559      0.0000 
     14 N8B       146.9470  -26.2190   74.3140 N.am      1 AAA559      0.0000 
     15 O8B       145.5570  -25.5150   72.6890 O.2       1 AAA559      0.0000 
     16 C9        143.4980  -26.3080   74.8450 C.ar      1 AAA559      0.0000 
     17 C10       143.2300  -27.1120   75.9800 C.ar      1 AAA559      0.0000 
     18 BR1       144.2850  -26.9390   77.5200 Br        1 AAA559      0.0000 
     19 C11       142.1320  -27.9720   76.0330 C.ar      1 AAA559      0.0000 
     20 C12       141.3350  -28.1500   74.9110 C.ar      1 AAA559      0.0000 
     21 C13       141.6260  -27.3990   73.7750 C.ar      1 AAA559      0.0000 
     22 C14       142.6720  -26.4440   73.7940 C.ar      1 AAA559      0.0000 
     23 BR2       142.9430  -25.3820   72.2980 Br        1 AAA559      0.0000 
     24 H         142.7690  -19.9451   76.5749 H         1 AAA559      0.0000 
     25 H         143.3835  -20.6010   78.8106 H         1 AAA559      0.0000 
     26 H         144.8062  -24.2725   77.3546 H         1 AAA559      0.0000 
     27 H         143.9693  -23.6060   73.7770 H         1 AAA559      0.0000 
     28 H         145.1027  -25.4218   75.9141 H         1 AAA559      0.0000 
     29 H         147.6372  -26.3731   73.6070 H         1 AAA559      0.0000 
     30 H         147.0145  -26.4220   75.2908 H         1 AAA559      0.0000 
     31 H         141.9166  -28.4720   76.9050 H         1 AAA559      0.0000 
     32 H         140.5621  -28.8077   74.9159 H         1 AAA559      0.0000 
     33 H         141.0846  -27.5306   72.9123 H         1 AAA559      0.0000 
     34 H         143.0737  -19.1016   74.5067 H         1 AAA559      0.0000 
     35 H         142.2559  -19.5630   73.2011 H         1 AAA559      0.0000 
     36 H         141.5988  -19.7242   74.6600 H         1 AAA559      0.0000 
     37 H         144.9132  -23.8042   79.6711 H         1 AAA559      0.0000 
     38 H         145.1669  -22.2634   80.0558 H         1 AAA559      0.0000 
     39 H         143.7091  -22.9125   80.2554 H         1 AAA559      0.0000 
@<TRIPOS>BOND
     1    2    1 1    
     2    5    1 ar   
     3   10    1 ar   
     4    3    2 1    
     5    4    2 2    
     6   34    3 1    
     7   35    3 1    
     8   36    3 1    
     9    6    5 ar   
    10   24    5 1    
    11    7    6 ar   
    12   25    6 1    
    13    8    7 1    
    14    9    7 ar   
    15   37    8 1    
    16   38    8 1    
    17   39    8 1    
    18   10    9 ar   
    19   26    9 1    
    20   11   10 1    
    21   12   11 1    
    22   27   11 1    
    23   13   12 1    
    24   16   12 1    
    25   28   12 1    
    26   14   13 am   
    27   15   13 2    
    28   29   14 1    
    29   30   14 1    
    30   17   16 ar   
    31   22   16 ar   
    32   18   17 1    
    33   19   17 ar   
    34   20   19 ar   
    35   31   19 1    
    36   21   20 ar   
    37   32   20 1    
    38   22   21 ar   
    39   33   21 1    
    40   23   22 1    
@<TRIPOS>SUBSTRUCTURE
     1 AAA559      1 GROUP   
@<TRIPOS>SET

