#    Name: 3pec_ZYG_1_INTS_M
#    Modification time : Tue Mar 25 06:24:54 2014

@<TRIPOS>MOLECULE
3pec_ZYG_1_INTS_M
   99     0    12     0     0
SMALL
NO_CHARGES


@<TRIPOS>ATOM
      1 Zn         49.4835   39.4120   42.2180 Zn        3 ZIC7        0.0000 
      2 Zn         49.7540   40.2590   42.8240 Zn       11 ZIL7        0.0000 
      3 Zn         49.2130   38.5650   41.6120 Zn        7 ZIP7        0.0000 
      4 N          49.0035   41.3240   42.4570 N.am      1 SEC2        0.0000 
      5 N          49.7540   40.2590   42.8240 N.am      9 SEL2        0.0000 
      6 N          48.2530   42.3890   42.0900 N.am      5 SEP2        0.0000 
      7 CA         51.2770   39.4750   45.8180 C.3       4 GLC5        0.0000 
      8 CA         50.7540   41.1180   44.7920 C.3      12 GLL5        0.0000 
      9 CA         51.8000   37.8320   46.8440 C.3       8 GLP5        0.0000 
     10 CA         52.4785   42.5140   47.3495 C.3       4 GLC5        0.0000 
     11 CA         51.8900   41.4930   45.4950 C.3      12 GLL5        0.0000 
     12 CA         53.0670   43.5350   49.2040 C.3       8 GLP5        0.0000 
     13 Zn         50.4560   38.5820   41.5120 Zn        3 ZIC7        0.0000 
     14 Zn         51.6990   38.5990   41.4120 Zn       11 ZIL7        0.0000 
     15 CA         55.2560   38.9645   40.2565 C.3       4 GLC5        0.0000 
     16 CA         53.5680   38.6310   40.1220 C.3      12 GLL5        0.0000 
     17 CA         56.9440   39.2980   40.3910 C.3       8 GLP5        0.0000 
     18 CA         53.5215   40.3705   38.7725 C.3       4 GLC5        0.0000 
     19 CA         53.4750   42.1100   37.4230 C.3       8 GLP5        0.0000 
     20 CA         47.1680   41.4295   36.1580 C.3       4 GLC5        0.0000 
     21 CA         48.1930   39.7740   36.4920 C.3      12 GLL5        0.0000 
     22 CA         46.1430   43.0850   35.8240 C.3       8 GLP5        0.0000 
     23 CA         51.4070   41.5255   37.8690 C.3       4 GLC5        0.0000 
     24 CA         49.3390   40.9410   38.3150 C.3      12 GLL5        0.0000 
     25 Zn         48.0580   38.8760   41.0250 Zn        3 ZIC7        0.0000 
     26 Zn         46.9030   39.1870   40.4380 Zn       11 ZIL7        0.0000 
     27 CA         47.3875   33.4030   40.1820 C.3       4 GLC5        0.0000 
     28 CA         49.0540   34.2180   40.8580 C.3      12 GLL5        0.0000 
     29 CA         45.7210   32.5880   39.5060 C.3       8 GLP5        0.0000 
     30 CA         46.9460   33.6630   41.5565 C.3       4 GLC5        0.0000 
     31 CA         48.6300   34.4840   42.3040 C.3      12 GLL5        0.0000 
     32 CA         45.2620   32.8420   40.8090 C.3       8 GLP5        0.0000 
     33 Zn         49.1425   38.4840   42.5360 Zn        3 ZIC7        0.0000 
     34 Zn         49.0720   38.4030   43.4600 Zn       11 ZIL7        0.0000 
     35 N          50.2085   37.5915   44.0500 N.am      1 SEC2        0.0000 
     36 N          49.0720   38.4030   43.4600 N.am      9 SEL2        0.0000 
     37 N          51.3450   36.7800   44.6400 N.am      5 SEP2        0.0000 
     38 N          46.9340   40.4535   45.9115 N.am      1 SEC2        0.0000 
     39 N          47.3850   39.9410   44.7810 N.am      9 SEL2        0.0000 
     40 N          46.4830   40.9660   47.0420 N.am      5 SEP2        0.0000 
     41 CA         42.5090   39.3495   41.1355 C.3       4 GLC5        0.0000 
     42 CA         43.7850   38.6850   42.7930 C.3      12 GLL5        0.0000 
     43 CA         41.2330   40.0140   39.4780 C.3       8 GLP5        0.0000 
     44 CA         42.7170   37.2435   41.8475 C.3       4 GLC5        0.0000 
     45 CA         41.6490   35.8020   40.9020 C.3       8 GLP5        0.0000 
     46 CA         43.3185   41.8410   45.5855 C.3       4 GLC5        0.0000 
     47 CA         43.5420   41.0410   43.8500 C.3      12 GLL5        0.0000 
     48 CA         43.0950   42.6410   47.3210 C.3       8 GLP5        0.0000 
     49 NZ         47.0545   42.8265   41.3740 N.4       2 LYC4        0.0000 
     50 NZ         45.8560   43.2640   40.6580 N.4      10 LYL4        0.0000 
     51 NZ         48.2530   42.3890   42.0900 N.4       6 LYP4        0.0000 
     52 N          46.2155   43.4265   39.3855 N.am      1 SEC2        0.0000 
     53 N          45.8560   43.2640   40.6580 N.am      9 SEL2        0.0000 
     54 N          46.5750   43.5890   38.1130 N.am      5 SEP2        0.0000 
     55 N          47.0545   42.8265   41.3740 N.am      1 SEC2        0.0000 
     56 CA         41.9615   42.9225   42.1260 C.3       4 GLC5        0.0000 
     57 CA         43.6280   41.8420   42.5550 C.3      12 GLL5        0.0000 
     58 CA         40.2950   44.0030   41.6970 C.3       8 GLP5        0.0000 
     59 CA         42.4305   40.9280   41.0165 C.3       4 GLC5        0.0000 
     60 N          42.8205   44.1270   40.2910 N.am      1 SEC2        0.0000 
     61 N          44.0140   44.4400   40.8900 N.am      9 SEL2        0.0000 
     62 N          41.6270   43.8140   39.6920 N.am      5 SEP2        0.0000 
     63 N          43.6235   45.4980   41.6105 N.am      1 SEC2        0.0000 
     64 N          43.2330   46.5560   42.3310 N.am      5 SEP2        0.0000 
     65 CA         45.3795   43.8390   44.0915 C.3       4 GLC5        0.0000 
     66 CA         44.6300   42.9840   42.6690 C.3      12 GLL5        0.0000 
     67 CA         46.1290   44.6940   45.5140 C.3       8 GLP5        0.0000 
     68 CA         46.7490   43.3330   42.1770 C.3       4 GLC5        0.0000 
     69 CA         48.8680   43.6820   41.6850 C.3       8 GLP5        0.0000 
     70 CA         50.5930   42.8972   45.6197 C.3       4 GLC5        0.0000 
     71 CA         49.8640   44.4890   46.0960 C.3       8 GLP5        0.0000 
     72 CA         52.6540   40.0493   46.4155 C.3       4 GLC5        0.0000 
     73 CA         52.7940   38.6720   47.6350 C.3       8 GLP5        0.0000 
     74 CA         54.6827   40.4185   44.7687 C.3       4 GLC5        0.0000 
     75 CA         53.1380   41.3600   44.8970 C.3      12 GLL5        0.0000 
     76 CA         56.1650   39.7280   45.2870 C.3       8 GLP5        0.0000 
     77 CA         52.3862   39.0309   44.4650 C.3       4 GLC5        0.0000 
     78 CA         53.2630   40.8580   43.6040 C.3      12 GLL5        0.0000 
     79 CA         52.3900   37.3600   45.5280 C.3       8 GLP5        0.0000 
     80 CA         54.1983   42.6031   45.0095 C.3       4 GLC5        0.0000 
     81 CA         55.5080   44.0640   45.6190 C.3       8 GLP5        0.0000 
     82 CA         52.6738   42.7881   43.4190 C.3       4 GLC5        0.0000 
     83 CA         52.4590   44.4340   42.4380 C.3       8 GLP5        0.0000 
     84 CA         50.9155   42.1040   42.4810 C.3       4 GLC5        0.0000 
     85 CA         52.1260   40.4750   42.9000 C.3      12 GLL5        0.0000 
     86 CA         50.3600   43.5370   41.4390 C.3       8 GLP5        0.0000 
     87 CA         49.5515   42.3717   36.9128 C.3       4 GLC5        0.0000 
     88 CA         50.3530   43.7730   35.9880 C.3       8 GLP5        0.0000 
     89 CA         47.2305   42.0663   37.4862 C.3       4 GLC5        0.0000 
     90 CA         48.1610   41.0000   37.3600 C.3      12 GLL5        0.0000 
     91 CA         45.7110   43.1620   37.1350 C.3       8 GLP5        0.0000 
     92 CA         49.7837   42.0273   40.1863 C.3       4 GLC5        0.0000 
     93 CA         44.2375   37.5720   44.8328 C.3       4 GLC5        0.0000 
     94 CA         45.2880   38.7090   43.0670 C.3      12 GLL5        0.0000 
     95 CA         43.0260   36.6220   45.8760 C.3       8 GLP5        0.0000 
     96 CA         43.1960   37.8937   44.5472 C.3       4 GLC5        0.0000 
     97 CA         41.5756   41.7144   43.9290 C.3       4 GLC5        0.0000 
     98 CA         42.9470   39.6460   43.6440 C.3      12 GLL5        0.0000 
     99 CA         39.7150   42.3360   44.7070 C.3       8 GLP5        0.0000 
@<TRIPOS>BOND
@<TRIPOS>SUBSTRUCTURE
     1 SEC2        4 GROUP        1 X    SEC  0     ROOT SEC X 2
     2 LYC4       49 GROUP        1 X    LYC  0     **** LYC X 4
     3 ZIC7        1 GROUP        1 X    ZIC  0     **** ZIC X 5
     4 GLC5        7 GROUP        1 X    GLC  0     **** GLC X 6
     5 SEP2        6 GROUP        1 Y    SEP  0     ROOT SEP Y 9
     6 LYP4       51 GROUP        1 Y    LYP  0     **** LYP Y 11
     7 ZIP7        3 GROUP        1 Y    ZIP  0     **** ZIP Y 12
     8 GLP5        9 GROUP        1 Y    GLP  0     **** GLP Y 13
     9 SEL2        5 GROUP        1 Z    SEL  0     ROOT SEL Z 16
    10 LYL4       50 GROUP        1 Z    LYL  0     **** LYL Z 18
    11 ZIL7        2 GROUP        1 Z    ZIL  0     **** ZIL Z 19
    12 GLL5        8 GROUP        1 Z    GLL  0     **** GLL Z 20
@<TRIPOS>SET

