#    Name: 3pec_ZYG_1_ligand
#    Modification time : Tue Mar 25 06:24:54 2014

@<TRIPOS>MOLECULE
3pec_ZYG_1_ligand
  101   103     1     0     0
SMALL
NO_CHARGES


@<TRIPOS>ATOM
      1 O2         49.7540   40.2590   42.8240 O.3       1 ZYG188      0.0000 
      2 C3         50.8780   40.6160   43.5000 C.ar      1 ZYG188      0.0000 
      3 C4         50.7540   41.1180   44.7920 C.ar      1 ZYG188      0.0000 
      4 C5         51.8900   41.4930   45.4950 C.ar      1 ZYG188      0.0000 
      5 C6         53.1380   41.3600   44.8970 C.ar      1 ZYG188      0.0000 
      6 C7         53.2630   40.8580   43.6040 C.ar      1 ZYG188      0.0000 
      7 C8         52.1260   40.4750   42.9000 C.ar      1 ZYG188      0.0000 
      8 C10        52.2030   39.9460   41.5140 C.2       1 ZYG188      0.0000 
      9 N11        51.6990   38.5990   41.4120 N.2       1 ZYG188      0.0000 
     10 C12        52.2150   37.9310   40.2510 C.3       1 ZYG188      0.0000 
     11 C13        53.5680   38.6310   40.1220 C.3       1 ZYG188      0.0000 
     12 O14        53.5220   39.8000   40.9670 O.3       1 ZYG188      0.0000 
     13 C15        52.2420   36.4120   40.4000 C.2       1 ZYG188      0.0000 
     14 O16        52.9360   35.8890   39.2620 O.2       1 ZYG188      0.0000 
     15 N17        50.8760   35.8930   40.4690 N.am      1 ZYG188      0.0000 
     16 C18        50.5330   34.4720   40.5190 C.3       1 ZYG188      0.0000 
     17 C19        50.7710   33.8720   39.1390 C.3       1 ZYG188      0.0000 
     18 O20        52.1690   33.6950   38.8840 O.3       1 ZYG188      0.0000 
     19 O21        50.1740   34.8070   38.2370 O.3       1 ZYG188      0.0000 
     20 C22        50.2170   34.5010   36.8480 C.3       1 ZYG188      0.0000 
     21 C25        49.8410   35.7790   36.0980 C.3       1 ZYG188      0.0000 
     22 C27        48.3510   36.1290   36.1650 C.2       1 ZYG188      0.0000 
     23 O28        47.6630   35.4700   35.0930 O.2       1 ZYG188      0.0000 
     24 N29        48.2040   37.5640   35.9890 N.am      1 ZYG188      0.0000 
     25 C30        48.1190   38.5050   36.9480 C.3       1 ZYG188      0.0000 
     26 C31        48.1930   39.7740   36.4920 C.3       1 ZYG188      0.0000 
     27 C32        48.1610   41.0000   37.3600 C.3       1 ZYG188      0.0000 
     28 C33        49.3390   40.9410   38.3150 C.3       1 ZYG188      0.0000 
     29 C34        49.0760   40.0940   39.5520 C.3       1 ZYG188      0.0000 
     30 N35        47.9810   39.1230   39.4710 N.am      1 ZYG188      0.0000 
     31 O36        46.9030   39.1870   40.4380 O.3       1 ZYG188      0.0000 
     32 C37        47.9770   38.0840   38.4080 C.2       1 ZYG188      0.0000 
     33 O38        49.0810   37.2320   38.7500 O.2       1 ZYG188      0.0000 
     34 C39        49.0540   34.2180   40.8580 C.3       1 ZYG188      0.0000 
     35 C40        48.6300   34.4840   42.3040 C.3       1 ZYG188      0.0000 
     36 C41        48.5830   35.9780   42.5800 C.3       1 ZYG188      0.0000 
     37 C42        47.6990   36.3570   43.7650 C.3       1 ZYG188      0.0000 
     38 N43        47.9640   37.7780   44.0130 N.am      1 ZYG188      0.0000 
     39 O44        49.0720   38.4030   43.4600 O.3       1 ZYG188      0.0000 
     40 C45        47.0760   38.5420   44.8920 C.2       1 ZYG188      0.0000 
     41 O46        47.3850   39.9410   44.7810 O.2       1 ZYG188      0.0000 
     42 C47        45.6100   38.3350   44.5120 C.3       1 ZYG188      0.0000 
     43 C48        45.2880   38.7090   43.0670 C.3       1 ZYG188      0.0000 
     44 C49        43.7850   38.6850   42.7930 C.3       1 ZYG188      0.0000 
     45 C50        42.9470   39.6460   43.6440 C.3       1 ZYG188      0.0000 
     46 C51        43.5420   41.0410   43.8500 C.3       1 ZYG188      0.0000 
     47 O51        45.8560   43.2640   40.6580 O.co2     1 ZYG188      0.0000 
     48 C52        43.6280   41.8420   42.5550 C.3       1 ZYG188      0.0000 
     49 O52        44.0140   44.4400   40.8900 O.co2     1 ZYG188      0.0000 
     50 C53        44.6300   42.9840   42.6690 C.3       1 ZYG188      0.0000 
     51 C54        44.8460   43.6070   41.3100 C.2       1 ZYG188      0.0000 
     52 C56        49.2840   33.3380   36.5250 C.3       1 ZYG188      0.0000 
     53 H          49.8263   41.2097   45.2211 H         1 ZYG188      0.0000 
     54 H          51.8111   41.8648   46.4466 H         1 ZYG188      0.0000 
     55 H          53.9869   41.6377   45.4193 H         1 ZYG188      0.0000 
     56 H          54.1900   40.7713   43.1731 H         1 ZYG188      0.0000 
     57 H          51.6253   38.2195   39.3902 H         1 ZYG188      0.0000 
     58 H          53.7154   38.8942   39.0817 H         1 ZYG188      0.0000 
     59 H          54.3390   37.9387   40.4375 H         1 ZYG188      0.0000 
     60 H          50.0983   36.5790   40.4834 H         1 ZYG188      0.0000 
     61 H          51.1418   33.9409   41.2183 H         1 ZYG188      0.0000 
     62 H          50.2351   32.9361   39.1081 H         1 ZYG188      0.0000 
     63 H          51.2243   34.2307   36.5514 H         1 ZYG188      0.0000 
     64 H          50.1341   35.6728   35.0405 H         1 ZYG188      0.0000 
     65 H          50.4227   36.6201   36.5100 H         1 ZYG188      0.0000 
     66 H          48.1619   37.8722   34.9539 H         1 ZYG188      0.0000 
     67 H          46.6842   38.5117   36.8169 H         1 ZYG188      0.0000 
     68 H          47.3746   39.9650   35.6700 H         1 ZYG188      0.0000 
     69 H          49.1403   39.9122   35.8097 H         1 ZYG188      0.0000 
     70 H          47.2400   41.0263   37.9281 H         1 ZYG188      0.0000 
     71 H          48.2407   41.8887   36.7471 H         1 ZYG188      0.0000 
     72 H          49.5992   41.9643   38.6309 H         1 ZYG188      0.0000 
     73 H          50.2148   40.5352   37.7832 H         1 ZYG188      0.0000 
     74 H          48.9021   40.7938   40.4132 H         1 ZYG188      0.0000 
     75 H          50.0332   39.5682   39.8145 H         1 ZYG188      0.0000 
     76 H          48.8117   33.1626   40.6034 H         1 ZYG188      0.0000 
     77 H          48.4270   34.8403   40.1820 H         1 ZYG188      0.0000 
     78 H          49.3433   34.0123   42.9769 H         1 ZYG188      0.0000 
     79 H          47.6453   34.0522   42.4717 H         1 ZYG188      0.0000 
     80 H          48.2161   36.4996   41.6807 H         1 ZYG188      0.0000 
     81 H          49.6064   36.3425   42.7680 H         1 ZYG188      0.0000 
     82 H          47.9778   35.7561   44.6108 H         1 ZYG188      0.0000 
     83 H          46.6716   36.1941   43.4963 H         1 ZYG188      0.0000 
     84 H          44.9783   38.9351   45.1865 H         1 ZYG188      0.0000 
     85 H          45.3445   37.2782   44.6760 H         1 ZYG188      0.0000 
     86 H          45.7862   38.0054   42.3944 H         1 ZYG188      0.0000 
     87 H          45.6739   39.7112   42.8609 H         1 ZYG188      0.0000 
     88 H          43.4094   37.6543   42.9495 H         1 ZYG188      0.0000 
     89 H          43.6128   38.9174   41.7234 H         1 ZYG188      0.0000 
     90 H          42.7750   39.1821   44.6368 H         1 ZYG188      0.0000 
     91 H          41.9459   39.7512   43.1778 H         1 ZYG188      0.0000 
     92 H          44.5467   40.9401   44.2785 H         1 ZYG188      0.0000 
     93 H          42.9241   41.5889   44.5720 H         1 ZYG188      0.0000 
     94 H          42.6423   42.2499   42.3190 H         1 ZYG188      0.0000 
     95 H          43.9297   41.1780   41.7415 H         1 ZYG188      0.0000 
     96 H          45.5711   42.5970   43.0487 H         1 ZYG188      0.0000 
     97 H          44.2443   43.7303   43.3573 H         1 ZYG188      0.0000 
     98 H          49.3018   33.1067   35.5523 H         1 ZYG188      0.0000 
     99 H          49.5341   32.5105   37.0277 H         1 ZYG188      0.0000 
    100 H          48.3346   33.5474   36.7591 H         1 ZYG188      0.0000 
    101 H          52.6245   34.3785   39.4543 H         1 ZYG188      0.0000 
@<TRIPOS>BOND
     1    2    1 1    
     2    3    2 ar   
     3    7    2 ar   
     4    4    3 ar   
     5   53    3 1    
     6    5    4 ar   
     7   54    4 1    
     8    6    5 ar   
     9   55    5 1    
    10    7    6 ar   
    11   56    6 1    
    12    8    7 1    
    13    9    8 2    
    14   12    8 1    
    15   10    9 1    
    16   11   10 1    
    17   13   10 1    
    18   57   10 1    
    19   12   11 1    
    20   58   11 1    
    21   59   11 1    
    22   14   13 2    
    23   15   13 am   
    24   16   15 1    
    25   60   15 1    
    26   17   16 1    
    27   34   16 1    
    28   61   16 1    
    29   18   17 1    
    30   19   17 1    
    31   62   17 1    
    32  101   18 1    
    33   20   19 1    
    34   21   20 1    
    35   52   20 1    
    36   63   20 1    
    37   22   21 1    
    38   64   21 1    
    39   65   21 1    
    40   23   22 2    
    41   24   22 am   
    42   25   24 1    
    43   66   24 1    
    44   26   25 1    
    45   32   25 1    
    46   67   25 1    
    47   27   26 1    
    48   68   26 1    
    49   69   26 1    
    50   28   27 1    
    51   70   27 1    
    52   71   27 1    
    53   29   28 1    
    54   72   28 1    
    55   73   28 1    
    56   30   29 1    
    57   74   29 1    
    58   75   29 1    
    59   31   30 1    
    60   32   30 am   
    61   33   32 2    
    62   35   34 1    
    63   76   34 1    
    64   77   34 1    
    65   36   35 1    
    66   78   35 1    
    67   79   35 1    
    68   37   36 1    
    69   80   36 1    
    70   81   36 1    
    71   38   37 1    
    72   82   37 1    
    73   83   37 1    
    74   39   38 1    
    75   40   38 am   
    76   41   40 2    
    77   42   40 1    
    78   43   42 1    
    79   84   42 1    
    80   85   42 1    
    81   44   43 1    
    82   86   43 1    
    83   87   43 1    
    84   45   44 1    
    85   88   44 1    
    86   89   44 1    
    87   46   45 1    
    88   90   45 1    
    89   91   45 1    
    90   48   46 1    
    91   92   46 1    
    92   93   46 1    
    93   51   47 ar   
    94   50   48 1    
    95   94   48 1    
    96   95   48 1    
    97   51   49 ar   
    98   51   50 1    
    99   96   50 1    
   100   97   50 1    
   101   98   52 1    
   102   99   52 1    
   103  100   52 1    
@<TRIPOS>SUBSTRUCTURE
     1 ZYG188      1 GROUP   
@<TRIPOS>SET

