#    Name: 3ojl_NAD_1_INTS_M
#    Modification time : Tue Mar 25 04:44:17 2014

@<TRIPOS>MOLECULE
3ojl_NAD_1_INTS_M
   80     0     9     0     0
SMALL
NO_CHARGES


@<TRIPOS>ATOM
      1 N         -17.3055   25.8205  -62.3155 N.am      2 SEC2        0.0000 
      2 N         -18.8620   25.7190  -62.1590 N.am      8 SEL2        0.0000 
      3 N         -15.7490   25.9220  -62.4720 N.am      5 SEP2        0.0000 
      4 CA        -21.0795   21.7450  -63.1960 C.3       3 GLC5        0.0000 
      5 CA        -19.8410   22.5310  -64.1460 C.3       9 GLL5        0.0000 
      6 CA        -22.3180   20.9590  -62.2460 C.3       6 GLP5        0.0000 
      7 CA        -18.6235   21.2250  -66.5030 C.3       3 GLC5        0.0000 
      8 CA        -19.7130   22.5380  -65.6620 C.3       9 GLL5        0.0000 
      9 CA        -17.5340   19.9120  -67.3440 C.3       6 GLP5        0.0000 
     10 CA        -20.7755   21.1850  -64.3710 C.3       3 GLC5        0.0000 
     11 CA        -21.8380   19.8320  -63.0800 C.3       6 GLP5        0.0000 
     12 O         -19.4315   23.7455  -68.1865 O.2       1 ALC1        0.0000 
     13 O         -19.9580   24.3490  -67.2110 O.2       7 ALL1        0.0000 
     14 O         -18.9050   23.1420  -69.1620 O.2       4 ALP1        0.0000 
     15 O         -21.4960   23.3835  -69.2035 O.2       1 ALC1        0.0000 
     16 O         -22.2150   23.3170  -68.1610 O.2       7 ALL1        0.0000 
     17 O         -20.7770   23.4500  -70.2460 O.2       4 ALP1        0.0000 
     18 O         -20.5600   23.2295  -68.6615 O.2       1 ALC1        0.0000 
     19 CA        -19.2000   20.6705  -67.3290 C.3       3 GLC5        0.0000 
     20 CA        -20.8660   21.4290  -67.3140 C.3       9 GLL5        0.0000 
     21 CA        -20.2735   16.4090  -69.2585 C.3       3 GLC5        0.0000 
     22 CA        -22.3410   17.0470  -68.9530 C.3       9 GLL5        0.0000 
     23 CA        -18.2060   15.7710  -69.5640 C.3       6 GLP5        0.0000 
     24 CA        -23.2395   17.9065  -70.1800 C.3       3 GLC5        0.0000 
     25 CA        -24.1380   18.7660  -71.4070 C.3       6 GLP5        0.0000 
     26 CA        -19.3855   16.8970  -69.9000 C.3       3 GLC5        0.0000 
     27 CA        -20.5650   18.0230  -70.2360 C.3       9 GLL5        0.0000 
     28 CA        -19.8975   19.6380  -71.0675 C.3       3 GLC5        0.0000 
     29 CA        -19.2300   21.2530  -71.8990 C.3       6 GLP5        0.0000 
     30 CA        -22.3515   18.3945  -70.8215 C.3       3 GLC5        0.0000 
     31 CA        -20.0770   17.5445  -68.1555 C.3       3 GLC5        0.0000 
     32 CA        -19.5890   17.0660  -66.0750 C.3       6 GLP5        0.0000 
     33 N         -21.1255   20.0715  -70.5695 N.am      2 SEC2        0.0000 
     34 N         -20.5580   19.1440  -69.4210 N.am      8 SEL2        0.0000 
     35 N         -21.6930   20.9990  -71.7180 N.am      5 SEP2        0.0000 
     36 CA        -19.4830   19.5660  -67.8650 C.3       3 GLC5        0.0000 
     37 CA        -21.4320   19.2200  -68.3860 C.3       9 GLL5        0.0000 
     38 N         -15.3600   23.4585  -61.6240 N.am      2 SEC2        0.0000 
     39 N         -16.8150   22.9850  -61.5650 N.am      8 SEL2        0.0000 
     40 N         -13.9050   23.9320  -61.6830 N.am      5 SEP2        0.0000 
     41 CA        -16.1410   21.2650  -59.7810 C.3       3 GLC5        0.0000 
     42 CA        -18.1870   20.6960  -60.0360 C.3       9 GLL5        0.0000 
     43 CA        -14.0950   21.8340  -59.5260 C.3       6 GLP5        0.0000 
     44 N         -21.3575   18.8965  -58.3680 N.am      2 SEC2        0.0000 
     45 N         -20.4520   19.8210  -57.8820 N.am      8 SEL2        0.0000 
     46 N         -22.2630   17.9720  -58.8540 N.am      5 SEP2        0.0000 
     47 N         -18.2275   16.5430  -56.8110 N.am      2 SEC2        0.0000 
     48 N         -18.8390   17.8090  -56.9170 N.am      8 SEL2        0.0000 
     49 N         -17.6160   15.2770  -56.7050 N.am      5 SEP2        0.0000 
     50 N         -18.0440   17.3210  -55.7155 N.am      2 SEC2        0.0000 
     51 N         -17.2490   16.8330  -54.5140 N.am      5 SEP2        0.0000 
     52 O         -19.9835   17.1805  -56.7700 O.2       1 ALC1        0.0000 
     53 O         -18.8390   17.8090  -56.9170 O.2       7 ALL1        0.0000 
     54 O         -21.1280   16.5520  -56.6230 O.2       4 ALP1        0.0000 
     55 CA        -16.8725   17.3105  -57.9695 C.3       3 GLC5        0.0000 
     56 CA        -16.9990   19.2570  -56.9490 C.3       9 GLL5        0.0000 
     57 CA        -16.7460   15.3640  -58.9900 C.3       6 GLP5        0.0000 
     58 CA        -15.1760   21.7215  -58.0805 C.3       3 GLC5        0.0000 
     59 CA        -16.2570   21.6090  -56.6350 C.3       9 GLL5        0.0000 
     60 CA        -14.3675   22.4235  -57.1885 C.3       3 GLC5        0.0000 
     61 CA        -15.7110   22.6360  -55.8620 C.3       9 GLL5        0.0000 
     62 CA        -13.0240   22.2110  -58.5150 C.3       6 GLP5        0.0000 
     63 CA        -18.2435   23.8392  -64.7475 C.3       3 GLC5        0.0000 
     64 CA        -16.7100   25.1440  -64.5910 C.3       6 GLP5        0.0000 
     65 CA        -22.7405   21.4357  -68.5170 C.3       3 GLC5        0.0000 
     66 CA        -21.6960   22.6720  -67.0180 C.3       9 GLL5        0.0000 
     67 CA        -24.2000   20.8210  -69.8680 C.3       6 GLP5        0.0000 
     68 CA        -23.0412   19.7628  -69.0665 C.3       3 GLC5        0.0000 
     69 CA        -20.7368   17.7425  -67.2711 C.3       3 GLC5        0.0000 
     70 CA        -22.3330   18.1890  -68.1440 C.3       9 GLL5        0.0000 
     71 CA        -20.0791   19.6811  -59.6727 C.3       3 GLC5        0.0000 
     72 CA        -21.5310   19.2420  -60.7630 C.3       6 GLP5        0.0000 
     73 CA        -17.9808   17.4952  -55.5970 C.3       3 GLC5        0.0000 
     74 CA        -18.4780   19.1420  -56.6390 C.3       9 GLL5        0.0000 
     75 CA        -18.2230   15.7910  -54.4000 C.3       6 GLP5        0.0000 
     76 CA        -13.8920   21.5325  -53.0962 C.3       3 GLC5        0.0000 
     77 CA        -15.4850   21.0910  -54.0250 C.3       9 GLL5        0.0000 
     78 CA        -12.3820   21.3300  -51.9070 C.3       6 GLP5        0.0000 
     79 CA        -16.3397   20.2843  -52.7005 C.3       3 GLC5        0.0000 
     80 CA        -16.9130   19.9800  -50.9790 C.3       6 GLP5        0.0000 
@<TRIPOS>BOND
@<TRIPOS>SUBSTRUCTURE
     1 ALC1       12 GROUP        1 X    ALC  0     ROOT ALC X 1
     2 SEC2        1 GROUP        1 X    SEC  0     **** SEC X 2
     3 GLC5        4 GROUP        1 X    GLC  0     **** GLC X 6
     4 ALP1       14 GROUP        1 Y    ALP  0     ROOT ALP Y 8
     5 SEP2        3 GROUP        1 Y    SEP  0     **** SEP Y 9
     6 GLP5        6 GROUP        1 Y    GLP  0     **** GLP Y 13
     7 ALL1       13 GROUP        1 Z    ALL  0     ROOT ALL Z 15
     8 SEL2        2 GROUP        1 Z    SEL  0     **** SEL Z 16
     9 GLL5        5 GROUP        1 Z    GLL  0     **** GLL Z 20
@<TRIPOS>SET

