#    Name: 3ojl_NAD_1_ligand
#    Modification time : Tue Mar 25 04:44:18 2014

@<TRIPOS>MOLECULE
3ojl_NAD_1_ligand
   70    74     1     0     0
SMALL
NO_CHARGES


@<TRIPOS>ATOM
      1 PA        -19.6490   24.4690  -62.3200 P.3       1 NAD500      0.0000 
      2 O1A       -21.1070   24.7500  -62.3350 O.co2     1 NAD500      0.0000 
      3 O2A       -18.8620   25.7190  -62.1590 O.co2     1 NAD500      0.0000 
      4 O5B       -19.2620   23.7320  -63.6970 O.3       1 NAD500      0.0000 
      5 C5B       -19.8410   22.5310  -64.1460 C.3       1 NAD500      0.0000 
      6 C4B       -19.7130   22.5380  -65.6620 C.3       1 NAD500      0.0000 
      7 O4B       -20.0480   21.2720  -66.1720 O.3       1 NAD500      0.0000 
      8 C3B       -20.6760   23.5410  -66.2960 C.3       1 NAD500      0.0000 
      9 O3B       -19.9580   24.3490  -67.2110 O.3       1 NAD500      0.0000 
     10 C2B       -21.6960   22.6720  -67.0180 C.3       1 NAD500      0.0000 
     11 O2B       -22.2150   23.3170  -68.1610 O.3       1 NAD500      0.0000 
     12 C1B       -20.8660   21.4290  -67.3140 C.3       1 NAD500      0.0000 
     13 N9A       -21.6580   20.1990  -67.4560 N.pl3     1 NAD500      0.0000 
     14 C8A       -22.6390   19.7570  -66.6260 C.2       1 NAD500      0.0000 
     15 N7A       -23.0540   18.5510  -67.0710 N.2       1 NAD500      0.0000 
     16 C5A       -22.3330   18.1890  -68.1440 C.ar      1 NAD500      0.0000 
     17 C6A       -22.3410   17.0470  -68.9530 C.ar      1 NAD500      0.0000 
     18 N6A       -23.1150   15.9990  -68.6680 N.pl3     1 NAD500      0.0000 
     19 N1A       -21.4580   16.9770  -70.0200 N.ar      1 NAD500      0.0000 
     20 C2A       -20.5650   18.0230  -70.2360 C.ar      1 NAD500      0.0000 
     21 N3A       -20.5580   19.1440  -69.4210 N.ar      1 NAD500      0.0000 
     22 C4A       -21.4320   19.2200  -68.3860 C.ar      1 NAD500      0.0000 
     23 O3        -19.2860   23.3770  -61.2020 O.3       1 NAD500      0.0000 
     24 PN        -17.8260   23.2760  -60.5200 P.3       1 NAD500      0.0000 
     25 O1N       -17.6560   24.4510  -59.6200 O.co2     1 NAD500      0.0000 
     26 O2N       -16.8150   22.9850  -61.5650 O.co2     1 NAD500      0.0000 
     27 O5D       -17.9450   21.9920  -59.5480 O.3       1 NAD500      0.0000 
     28 C5D       -18.1870   20.6960  -60.0360 C.3       1 NAD500      0.0000 
     29 C4D       -18.1920   19.6870  -58.8960 C.3       1 NAD500      0.0000 
     30 O4D       -16.9030   19.5130  -58.3470 O.3       1 NAD500      0.0000 
     31 C3D       -19.0650   20.0490  -57.6990 C.3       1 NAD500      0.0000 
     32 O3D       -20.4520   19.8210  -57.8820 O.3       1 NAD500      0.0000 
     33 C2D       -18.4780   19.1420  -56.6390 C.3       1 NAD500      0.0000 
     34 O2D       -18.8390   17.8090  -56.9170 O.3       1 NAD500      0.0000 
     35 C1D       -16.9990   19.2570  -56.9490 C.3       1 NAD500      0.0000 
     36 N1N       -16.4180   20.3450  -56.1220 N.pl3     1 NAD500      0.0000 
     37 C2N       -16.2570   21.6090  -56.6350 C.ar      1 NAD500      0.0000 
     38 C3N       -15.7110   22.6360  -55.8620 C.ar      1 NAD500      0.0000 
     39 C7N       -15.7200   24.0340  -56.4080 C.2       1 NAD500      0.0000 
     40 O7N       -14.4840   24.6490  -56.6970 O.2       1 NAD500      0.0000 
     41 N7N       -16.8900   24.6500  -56.6220 N.am      1 NAD500      0.0000 
     42 C4N       -15.3190   22.3790  -54.5460 C.ar      1 NAD500      0.0000 
     43 C5N       -15.4850   21.0910  -54.0250 C.ar      1 NAD500      0.0000 
     44 C6N       -16.0480   20.0860  -54.8190 C.ar      1 NAD500      0.0000 
     45 H         -20.8960   22.4598  -63.9008 H         1 NAD500      0.0000 
     46 H         -19.3234   21.6534  -63.7717 H         1 NAD500      0.0000 
     47 H         -18.7130   22.8208  -65.9285 H         1 NAD500      0.0000 
     48 H         -21.1557   24.0742  -65.5283 H         1 NAD500      0.0000 
     49 H         -22.4371   22.3970  -66.2910 H         1 NAD500      0.0000 
     50 H         -20.2715   21.6108  -68.1782 H         1 NAD500      0.0000 
     51 H         -22.9760   20.2251  -65.8565 H         1 NAD500      0.0000 
     52 H         -23.0198   15.2053  -69.2688 H         1 NAD500      0.0000 
     53 H         -23.7210   16.1011  -67.8791 H         1 NAD500      0.0000 
     54 H         -19.8921   17.9595  -71.0238 H         1 NAD500      0.0000 
     55 H         -17.4185   20.3741  -60.7589 H         1 NAD500      0.0000 
     56 H         -19.1607   20.6202  -60.5486 H         1 NAD500      0.0000 
     57 H         -18.5556   18.7252  -59.2755 H         1 NAD500      0.0000 
     58 H         -18.8182   21.0567  -57.4183 H         1 NAD500      0.0000 
     59 H         -18.6729   19.4892  -55.7078 H         1 NAD500      0.0000 
     60 H         -16.5437   18.3160  -56.6919 H         1 NAD500      0.0000 
     61 H         -16.5424   21.8142  -57.6111 H         1 NAD500      0.0000 
     62 H         -17.7112   24.1230  -56.4032 H         1 NAD500      0.0000 
     63 H         -16.8375   25.5817  -56.9814 H         1 NAD500      0.0000 
     64 H         -14.9171   23.1196  -53.9718 H         1 NAD500      0.0000 
     65 H         -15.1950   20.8845  -53.0646 H         1 NAD500      0.0000 
     66 H         -16.1842   19.1440  -54.4173 H         1 NAD500      0.0000 
     67 H         -19.2501   23.7498  -67.5850 H         1 NAD500      0.0000 
     68 H         -21.4158   23.6884  -68.6338 H         1 NAD500      0.0000 
     69 H         -20.8186   19.7019  -56.9592 H         1 NAD500      0.0000 
     70 H         -19.7938   17.7342  -56.6293 H         1 NAD500      0.0000 
@<TRIPOS>BOND
     1    2    1 ar   
     2    3    1 ar   
     3    4    1 1    
     4   23    1 1    
     5    5    4 1    
     6    6    5 1    
     7   45    5 1    
     8   46    5 1    
     9    7    6 1    
    10    8    6 1    
    11   47    6 1    
    12   12    7 1    
    13    9    8 1    
    14   10    8 1    
    15   48    8 1    
    16   67    9 1    
    17   11   10 1    
    18   12   10 1    
    19   49   10 1    
    20   68   11 1    
    21   13   12 1    
    22   50   12 1    
    23   14   13 1    
    24   22   13 1    
    25   15   14 2    
    26   51   14 1    
    27   16   15 1    
    28   17   16 ar   
    29   22   16 ar   
    30   18   17 1    
    31   19   17 ar   
    32   52   18 1    
    33   53   18 1    
    34   20   19 ar   
    35   21   20 ar   
    36   54   20 1    
    37   22   21 ar   
    38   24   23 1    
    39   25   24 ar   
    40   26   24 ar   
    41   27   24 1    
    42   28   27 1    
    43   29   28 1    
    44   55   28 1    
    45   56   28 1    
    46   30   29 1    
    47   31   29 1    
    48   57   29 1    
    49   35   30 1    
    50   32   31 1    
    51   33   31 1    
    52   58   31 1    
    53   69   32 1    
    54   34   33 1    
    55   35   33 1    
    56   59   33 1    
    57   70   34 1    
    58   36   35 1    
    59   60   35 1    
    60   37   36 ar   
    61   44   36 ar   
    62   38   37 ar   
    63   61   37 1    
    64   39   38 1    
    65   42   38 ar   
    66   40   39 2    
    67   41   39 am   
    68   62   41 1    
    69   63   41 1    
    70   43   42 ar   
    71   64   42 1    
    72   44   43 ar   
    73   65   43 1    
    74   66   44 1    
@<TRIPOS>SUBSTRUCTURE
     1 NAD500      1 GROUP   
@<TRIPOS>SET

