#    Name: 3irm_1CY_1_INTS_M
#    Modification time : Tue Mar 25 17:15:10 2014

@<TRIPOS>MOLECULE
3irm_1CY_1_INTS_M
   32     0     9     0     0
SMALL
NO_CHARGES


@<TRIPOS>ATOM
      1 N          45.2065   -5.2880   33.4815 N.am      2 SEC2        0.0000 
      2 N          44.4230   -4.2540   33.8200 N.am      8 SEL2        0.0000 
      3 N          45.9900   -6.3220   33.1430 N.am      5 SEP2        0.0000 
      4 O          43.5430   -5.7915   32.1745 O.2       1 ALC1        0.0000 
      5 O          42.5230   -4.7740   32.7990 O.2       7 ALL1        0.0000 
      6 O          44.5630   -6.8090   31.5500 O.2       4 ALP1        0.0000 
      7 O          40.8305   -1.4110   34.9535 O.2       1 ALC1        0.0000 
      8 O          42.2720   -1.1810   35.3980 O.2       7 ALL1        0.0000 
      9 O          39.3890   -1.6410   34.5090 O.2       4 ALP1        0.0000 
     10 O          41.8785   -0.2815   36.3175 O.2       1 ALC1        0.0000 
     11 O          41.4850    0.6180   37.2370 O.2       4 ALP1        0.0000 
     12 CA         48.2060   -3.3650   34.1540 C.3       3 GLC5        0.0000 
     13 CA         46.4790   -2.9430   33.9130 C.3       9 GLL5        0.0000 
     14 CA         49.9330   -3.7870   34.3950 C.3       6 GLP5        0.0000 
     15 CA         44.3845   -5.8815   35.6510 C.3       3 GLC5        0.0000 
     16 CA         45.7130   -4.3650   35.8500 C.3       9 GLL5        0.0000 
     17 CA         43.0560   -7.3980   35.4520 C.3       6 GLP5        0.0000 
     18 CA         45.3195   -2.7625   39.0620 C.3       3 GLC5        0.0000 
     19 CA         44.8160   -1.2750   37.4800 C.3       9 GLL5        0.0000 
     20 CA         45.8230   -4.2500   40.6440 C.3       6 GLP5        0.0000 
     21 CA         45.4055    2.4185   39.5700 C.3       3 GLC5        0.0000 
     22 CA         46.6780    2.1030   38.5280 C.3       9 GLL5        0.0000 
     23 CA         44.1330    2.7340   40.6120 C.3       6 GLP5        0.0000 
     24 CA         47.9460    3.2850   38.9880 C.3       3 GLC5        0.0000 
     25 CA         49.2140    4.4670   39.4480 C.3       6 GLP5        0.0000 
     26 CA         45.6728   -2.3573   32.5258 C.3       3 GLC5        0.0000 
     27 CA         45.4840   -1.5420   30.7300 C.3       6 GLP5        0.0000 
     28 CA         44.7263    2.4600   36.5365 C.3       3 GLC5        0.0000 
     29 CA         46.1090    0.8470   36.2470 C.3       9 GLL5        0.0000 
     30 CA         43.4000    4.0890   36.1440 C.3       6 GLP5        0.0000 
     31 CA         44.9023    1.5103   39.2682 C.3       3 GLC5        0.0000 
     32 CA         45.9960    0.8150   37.6110 C.3       9 GLL5        0.0000 
@<TRIPOS>BOND
@<TRIPOS>SUBSTRUCTURE
     1 ALC1        4 GROUP        1 X    ALC  0     ROOT ALC X 1
     2 SEC2        1 GROUP        1 X    SEC  0     **** SEC X 2
     3 GLC5       12 GROUP        1 X    GLC  0     **** GLC X 6
     4 ALP1        6 GROUP        1 Y    ALP  0     ROOT ALP Y 8
     5 SEP2        3 GROUP        1 Y    SEP  0     **** SEP Y 9
     6 GLP5       14 GROUP        1 Y    GLP  0     **** GLP Y 13
     7 ALL1        5 GROUP        1 Z    ALL  0     ROOT ALL Z 15
     8 SEL2        2 GROUP        1 Z    SEL  0     **** SEL Z 16
     9 GLL5       13 GROUP        1 Z    GLL  0     **** GLL Z 20
@<TRIPOS>SET

