#    Name: 3irm_1CY_1_ligand
#    Modification time : Tue Mar 25 17:15:10 2014

@<TRIPOS>MOLECULE
3irm_1CY_1_ligand
   31    32     1     0     0
SMALL
NO_CHARGES


@<TRIPOS>ATOM
      1 N1         44.4230   -4.2540   33.8200 N.2       1 1CY601      0.0000 
      2 C2         43.1940   -3.9680   33.6300 C.2       1 1CY601      0.0000 
      3 N3         42.5490   -3.0040   34.1520 N.2       1 1CY601      0.0000 
      4 C4         43.0790   -2.1570   34.9500 C.2       1 1CY601      0.0000 
      5 N5         44.4280   -2.2660   35.2870 N.pl3     1 1CY601      0.0000 
      6 C6         45.2440   -3.4020   34.7300 C.3       1 1CY601      0.0000 
      7 N7         42.5230   -4.7740   32.7990 N.pl3     1 1CY601      0.0000 
      8 N8         42.2720   -1.1810   35.3980 N.pl3     1 1CY601      0.0000 
      9 C9         46.4790   -2.9430   33.9130 C.3       1 1CY601      0.0000 
     10 C10        45.7130   -4.3650   35.8500 C.3       1 1CY601      0.0000 
     11 C11        44.9350   -1.2470   36.0950 C.ar      1 1CY601      0.0000 
     12 C12        45.5850   -0.1690   35.4990 C.ar      1 1CY601      0.0000 
     13 C13        46.1090    0.8470   36.2470 C.ar      1 1CY601      0.0000 
     14 C14        45.9960    0.8150   37.6110 C.ar      1 1CY601      0.0000 
     15 C15        45.3470   -0.2420   38.2380 C.ar      1 1CY601      0.0000 
     16 C16        44.8160   -1.2750   37.4800 C.ar      1 1CY601      0.0000 
     17 CL17       46.6780    2.1030   38.5280 Cl        1 1CY601      0.0000 
     18 H          43.0474   -5.5225   32.3930 H         1 1CY601      0.0000 
     19 H          41.5573   -4.5555   32.6584 H         1 1CY601      0.0000 
     20 H          42.4844   -0.8158   36.3043 H         1 1CY601      0.0000 
     21 H          41.5309   -0.9069   34.7851 H         1 1CY601      0.0000 
     22 H          45.6673   -0.1477   34.4610 H         1 1CY601      0.0000 
     23 H          46.5897    1.6382   35.7857 H         1 1CY601      0.0000 
     24 H          45.2613   -0.2570   39.2627 H         1 1CY601      0.0000 
     25 H          44.3361   -2.0589   37.9389 H         1 1CY601      0.0000 
     26 H          47.0871   -2.3620   34.4539 H         1 1CY601      0.0000 
     27 H          47.0226   -3.7193   33.5939 H         1 1CY601      0.0000 
     28 H          46.2149   -2.4178   33.1040 H         1 1CY601      0.0000 
     29 H          46.2574   -5.1208   35.4861 H         1 1CY601      0.0000 
     30 H          46.2782   -3.8972   36.5294 H         1 1CY601      0.0000 
     31 H          44.9405   -4.7694   36.3397 H         1 1CY601      0.0000 
@<TRIPOS>BOND
     1    2    1 2    
     2    6    1 1    
     3    3    2 1    
     4    7    2 1    
     5    4    3 2    
     6    5    4 1    
     7    8    4 1    
     8    6    5 1    
     9   11    5 1    
    10    9    6 1    
    11   10    6 1    
    12   18    7 1    
    13   19    7 1    
    14   20    8 1    
    15   21    8 1    
    16   26    9 1    
    17   27    9 1    
    18   28    9 1    
    19   29   10 1    
    20   30   10 1    
    21   31   10 1    
    22   12   11 ar   
    23   16   11 ar   
    24   13   12 ar   
    25   22   12 1    
    26   14   13 ar   
    27   23   13 1    
    28   15   14 ar   
    29   17   14 1    
    30   16   15 ar   
    31   24   15 1    
    32   25   16 1    
@<TRIPOS>SUBSTRUCTURE
     1 1CY601      1 GROUP   
@<TRIPOS>SET

