#    Name: 1hwr_216_1_INTS_M
#    Modification time : Tue Mar 25 06:25:50 2014

@<TRIPOS>MOLECULE
1hwr_216_1_INTS_M
   80     0     9     0     0
SMALL
NO_CHARGES


@<TRIPOS>ATOM
      1 N          -8.3640   12.7180   27.9205 N.am      2 SEC2        0.0000 
      2 N          -8.0280   14.2810   27.7780 N.am      8 SEL2        0.0000 
      3 N          -8.7000   11.1550   28.0630 N.am      5 SEP2        0.0000 
      4 N          -6.5030   13.7580   27.9955 N.am      2 SEC2        0.0000 
      5 N          -4.9780   13.2350   28.2130 N.am      5 SEP2        0.0000 
      6 O         -11.4235   19.8785   26.7650 O.2       1 ALC1        0.0000 
      7 O         -10.1210   19.3420   26.7660 O.2       7 ALL1        0.0000 
      8 O         -12.7260   20.4150   26.7640 O.2       4 ALP1        0.0000 
      9 O         -11.5780   18.9125   26.3835 O.2       1 ALC1        0.0000 
     10 O         -13.0350   18.4830   26.0010 O.2       4 ALP1        0.0000 
     11 O         -11.5340   19.8085   29.0355 O.2       1 ALC1        0.0000 
     12 O         -11.7890   18.3830   28.8790 O.2       7 ALL1        0.0000 
     13 O         -11.2790   21.2340   29.1920 O.2       4 ALP1        0.0000 
     14 CA        -10.6725   18.6385   25.0645 C.3       3 GLC5        0.0000 
     15 CA        -10.2040   18.0170   27.1390 C.3       9 GLL5        0.0000 
     16 CA        -11.1410   19.2600   22.9900 C.3       6 GLP5        0.0000 
     17 CA        -10.8580   18.5835   30.6620 C.3       3 GLC5        0.0000 
     18 CA        -10.5430   17.8310   28.5730 C.3       9 GLL5        0.0000 
     19 CA        -11.1730   19.3360   32.7510 C.3       6 GLP5        0.0000 
     20 CA         -8.4205   13.4770   25.5850 C.3       3 GLC5        0.0000 
     21 CA         -8.2430   15.4760   25.4990 C.3       9 GLL5        0.0000 
     22 CA         -8.5980   11.4780   25.6710 C.3       6 GLP5        0.0000 
     23 CA         -6.7710   14.3815   25.6610 C.3       3 GLC5        0.0000 
     24 CA         -5.2990   13.2870   25.8230 C.3       6 GLP5        0.0000 
     25 CA         -9.7380   14.0005   24.1195 C.3       3 GLC5        0.0000 
     26 CA         -9.1850   15.8620   24.3840 C.3       9 GLL5        0.0000 
     27 CA        -10.2910   12.1390   23.8550 C.3       6 GLP5        0.0000 
     28 CA        -11.3070   15.2855   24.5380 C.3       3 GLC5        0.0000 
     29 CA        -13.4290   14.7090   24.6920 C.3       6 GLP5        0.0000 
     30 CA         -6.1855   20.9310   26.5625 C.3       3 GLC5        0.0000 
     31 CA         -5.9270   18.8980   25.9450 C.3       9 GLL5        0.0000 
     32 CA         -6.4440   22.9640   27.1800 C.3       6 GLP5        0.0000 
     33 CA        -15.0275   15.7565   29.2575 C.3       3 GLC5        0.0000 
     34 CA        -13.2790   14.6880   30.0160 C.3       9 GLL5        0.0000 
     35 CA        -16.7760   16.8250   28.4990 C.3       6 GLP5        0.0000 
     36 CA        -11.0945   12.3270   26.9380 C.3       3 GLC5        0.0000 
     37 CA        -12.1100   13.0510   28.5850 C.3       9 GLL5        0.0000 
     38 CA        -10.0790   11.6030   25.2910 C.3       6 GLP5        0.0000 
     39 CA         -9.0250   13.0555   30.3200 C.3       3 GLC5        0.0000 
     40 CA         -9.1190   15.0180   30.2720 C.3       9 GLL5        0.0000 
     41 CA         -8.9310   11.0930   30.3680 C.3       6 GLP5        0.0000 
     42 CA         -7.5045   17.4725   31.2490 C.3       3 GLC5        0.0000 
     43 CA         -9.0070   16.0630   31.3700 C.3       9 GLL5        0.0000 
     44 CA         -6.0020   18.8820   31.1280 C.3       6 GLP5        0.0000 
     45 CA         -9.2450   15.1315   34.6370 C.3       3 GLC5        0.0000 
     46 CA         -9.4480   15.8760   32.6200 C.3       9 GLL5        0.0000 
     47 CA         -9.0420   14.3870   36.6540 C.3       6 GLP5        0.0000 
     48 CA         -7.9360   14.2780   32.4115 C.3       3 GLC5        0.0000 
     49 CA         -6.4240   12.6800   32.2030 C.3       6 GLP5        0.0000 
     50 CA        -10.0540   17.6905   23.3987 C.3       3 GLC5        0.0000 
     51 CA         -4.4615   18.6960   27.7155 C.3       3 GLC5        0.0000 
     52 CA         -6.3600   17.9800   26.9280 C.3       9 GLL5        0.0000 
     53 CA         -2.9670   19.9660   28.3320 C.3       6 GLP5        0.0000 
     54 CA         -6.1445   18.1794   29.1986 C.3       3 GLC5        0.0000 
     55 CA         -5.5520   16.8720   27.2700 C.3       9 GLL5        0.0000 
     56 CA         -5.1125   15.0292   26.3908 C.3       3 GLC5        0.0000 
     57 CA         -4.7610   15.8308   28.8588 C.3       3 GLC5        0.0000 
     58 CA         -4.3000   16.6710   26.6470 C.3       9 GLL5        0.0000 
     59 CA         -4.5960   14.8900   30.7590 C.3       6 GLP5        0.0000 
     60 CA         -3.5205   18.5433   27.2447 C.3       3 GLC5        0.0000 
     61 CA         -2.7675   16.6954   27.1041 C.3       3 GLC5        0.0000 
     62 CA         -3.8480   17.5700   25.6680 C.3       9 GLL5        0.0000 
     63 CA         -1.1480   16.2200   27.8950 C.3       6 GLP5        0.0000 
     64 CA         -4.1322   19.3790   26.9815 C.3       3 GLC5        0.0000 
     65 CA         -4.6680   18.6860   25.3170 C.3       9 GLL5        0.0000 
     66 CA        -14.3075   13.6845   28.4013 C.3       3 GLC5        0.0000 
     67 CA        -12.3910   14.3920   28.9530 C.3       9 GLL5        0.0000 
     68 CA        -15.7800   12.8290   27.3180 C.3       6 GLP5        0.0000 
     69 CA        -14.7775   12.9118   28.9363 C.3       3 GLC5        0.0000 
     70 CA        -13.9120   13.6630   30.7380 C.3       9 GLL5        0.0000 
     71 CA        -13.4065   10.4605   28.9727 C.3       3 GLC5        0.0000 
     72 CA        -13.6380   12.3260   30.3710 C.3       9 GLL5        0.0000 
     73 CA        -13.6190    8.7490   28.1070 C.3       6 GLP5        0.0000 
     74 CA        -10.6805   11.8137   29.6568 C.3       3 GLC5        0.0000 
     75 CA        -12.7500   12.0180   29.3060 C.3       9 GLL5        0.0000 
     76 CA        -14.1050   12.6818   28.1318 C.3       3 GLC5        0.0000 
     77 CA        -12.7643   14.3605   26.6333 C.3       3 GLC5        0.0000 
     78 CA         -7.5830   14.3008   30.8000 C.3       3 GLC5        0.0000 
     79 CA         -6.1030   13.0610   30.7790 C.3       6 GLP5        0.0000 
     80 CA        -10.2003   17.6527   32.3730 C.3       3 GLC5        0.0000 
@<TRIPOS>BOND
@<TRIPOS>SUBSTRUCTURE
     1 ALC1        6 GROUP        1 X    ALC  0     ROOT ALC X 1
     2 SEC2        1 GROUP        1 X    SEC  0     **** SEC X 2
     3 GLC5       14 GROUP        1 X    GLC  0     **** GLC X 6
     4 ALP1        8 GROUP        1 Y    ALP  0     ROOT ALP Y 8
     5 SEP2        3 GROUP        1 Y    SEP  0     **** SEP Y 9
     6 GLP5       16 GROUP        1 Y    GLP  0     **** GLP Y 13
     7 ALL1        7 GROUP        1 Z    ALL  0     ROOT ALL Z 15
     8 SEL2        2 GROUP        1 Z    SEL  0     **** SEL Z 16
     9 GLL5       15 GROUP        1 Z    GLL  0     **** GLL Z 20
@<TRIPOS>SET

