#    Name: 1hwr_216_1_ligand
#    Modification time : Tue Mar 25 06:25:50 2014

@<TRIPOS>MOLECULE
1hwr_216_1_ligand
   56    58     1     0     0
SMALL
NO_CHARGES


@<TRIPOS>ATOM
      1 O1         -8.0280   14.2810   27.7780 O.2       1 216216      0.0000 
      2 O4        -10.1210   19.3420   26.7660 O.3       1 216216      0.0000 
      3 O5        -11.7890   18.3830   28.8790 O.3       1 216216      0.0000 
      4 N2         -8.6520   16.0650   26.7760 N.am      1 216216      0.0000 
      5 N7         -9.4270   15.5680   28.9380 N.am      1 216216      0.0000 
      6 C1         -8.7000   15.2840   27.8370 C.2       1 216216      0.0000 
      7 C3         -8.8280   17.5220   26.8240 C.3       1 216216      0.0000 
      8 C4        -10.2040   18.0170   27.1390 C.3       1 216216      0.0000 
      9 C5        -10.5430   17.8310   28.5730 C.3       1 216216      0.0000 
     10 C6        -10.6770   16.3590   28.9200 C.3       1 216216      0.0000 
     11 C21        -8.2430   15.4760   25.4990 C.3       1 216216      0.0000 
     12 C22        -9.1850   15.8620   24.3840 C.2       1 216216      0.0000 
     13 C23        -8.7490   16.3800   23.2310 C.2       1 216216      0.0000 
     14 C31        -7.6840   18.1830   27.6090 C.3       1 216216      0.0000 
     15 C32        -6.3600   17.9800   26.9280 C.ar      1 216216      0.0000 
     16 C33        -5.5520   16.8720   27.2700 C.ar      1 216216      0.0000 
     17 C34        -4.3000   16.6710   26.6470 C.ar      1 216216      0.0000 
     18 C35        -3.8480   17.5700   25.6680 C.ar      1 216216      0.0000 
     19 C36        -4.6680   18.6860   25.3170 C.ar      1 216216      0.0000 
     20 C37        -5.9270   18.8980   25.9450 C.ar      1 216216      0.0000 
     21 C61       -11.7870   15.5540   28.1750 C.3       1 216216      0.0000 
     22 C62       -12.3910   14.3920   28.9530 C.ar      1 216216      0.0000 
     23 C63       -13.2790   14.6880   30.0160 C.ar      1 216216      0.0000 
     24 C64       -13.9120   13.6630   30.7380 C.ar      1 216216      0.0000 
     25 C65       -13.6380   12.3260   30.3710 C.ar      1 216216      0.0000 
     26 C66       -12.7500   12.0180   29.3060 C.ar      1 216216      0.0000 
     27 C67       -12.1100   13.0510   28.5850 C.ar      1 216216      0.0000 
     28 C71        -9.1190   15.0180   30.2720 C.3       1 216216      0.0000 
     29 C72        -9.0070   16.0630   31.3700 C.2       1 216216      0.0000 
     30 C73        -9.4480   15.8760   32.6200 C.2       1 216216      0.0000 
     31 H          -8.6222   17.8779   25.7240 H         1 216216      0.0000 
     32 H         -10.8918   17.4742   26.5131 H         1 216216      0.0000 
     33 H          -9.7682   18.2406   29.1956 H         1 216216      0.0000 
     34 H         -11.0501   16.3364   30.0288 H         1 216216      0.0000 
     35 H          -8.2182   14.3779   25.5732 H         1 216216      0.0000 
     36 H          -7.2278   15.8070   25.2312 H         1 216216      0.0000 
     37 H         -10.1859   15.6920   24.5892 H         1 216216      0.0000 
     38 H          -7.6565   17.7522   28.6136 H         1 216216      0.0000 
     39 H          -7.8963   19.2517   27.7004 H         1 216216      0.0000 
     40 H          -5.8787   16.2059   27.9790 H         1 216216      0.0000 
     41 H          -3.7246   15.8677   26.9125 H         1 216216      0.0000 
     42 H          -2.9535   17.4389   25.2098 H         1 216216      0.0000 
     43 H          -4.3422   19.3425   24.6016 H         1 216216      0.0000 
     44 H          -6.4977   19.6918   25.6896 H         1 216216      0.0000 
     45 H         -11.3559   15.1767   27.2281 H         1 216216      0.0000 
     46 H         -12.5890   16.2623   27.8922 H         1 216216      0.0000 
     47 H         -13.4599   15.6715   30.2593 H         1 216216      0.0000 
     48 H         -14.5435   13.8705   31.4959 H         1 216216      0.0000 
     49 H         -14.0901   11.5567   30.8846 H         1 216216      0.0000 
     50 H         -12.5747   11.0402   29.0617 H         1 216216      0.0000 
     51 H         -11.4745   12.8447   27.8337 H         1 216216      0.0000 
     52 H          -8.1660   14.4486   30.2365 H         1 216216      0.0000 
     53 H          -9.8988   14.2849   30.5691 H         1 216216      0.0000 
     54 H          -8.5503   16.9499   31.0591 H         1 216216      0.0000 
     55 H         -11.0659   19.6692   26.7617 H         1 216216      0.0000 
     56 H         -11.6229   19.3654   28.9640 H         1 216216      0.0000 
@<TRIPOS>BOND
     1    6    1 2    
     2    8    2 1    
     3   55    2 1    
     4    9    3 1    
     5   56    3 1    
     6    6    4 am   
     7    7    4 1    
     8   11    4 1    
     9    6    5 am   
    10   10    5 1    
    11   28    5 1    
    12    8    7 1    
    13   14    7 1    
    14   31    7 1    
    15    9    8 1    
    16   32    8 1    
    17   10    9 1    
    18   33    9 1    
    19   21   10 1    
    20   34   10 1    
    21   12   11 1    
    22   35   11 1    
    23   36   11 1    
    24   13   12 2    
    25   37   12 1    
    26   15   14 1    
    27   38   14 1    
    28   39   14 1    
    29   16   15 ar   
    30   20   15 ar   
    31   17   16 ar   
    32   40   16 1    
    33   18   17 ar   
    34   41   17 1    
    35   19   18 ar   
    36   42   18 1    
    37   20   19 ar   
    38   43   19 1    
    39   44   20 1    
    40   22   21 1    
    41   45   21 1    
    42   46   21 1    
    43   23   22 ar   
    44   27   22 ar   
    45   24   23 ar   
    46   47   23 1    
    47   25   24 ar   
    48   48   24 1    
    49   26   25 ar   
    50   49   25 1    
    51   27   26 ar   
    52   50   26 1    
    53   51   27 1    
    54   29   28 1    
    55   52   28 1    
    56   53   28 1    
    57   30   29 2    
    58   54   29 1    
@<TRIPOS>SUBSTRUCTURE
     1 216216      1 GROUP   
@<TRIPOS>SET

