#    Name: 3k2v_CMK_2_INTS_M
#    Modification time : Mon Mar 24 18:07:13 2014

@<TRIPOS>MOLECULE
3k2v_CMK_2_INTS_M
   74     0    12     0     0
SMALL
NO_CHARGES


@<TRIPOS>ATOM
      1 N         -16.9990    1.1425   76.9245 N.am      2 SEC2        0.0000 
      2 N         -16.7610    2.6590   77.3760 N.am     10 SEL2        0.0000 
      3 N         -17.2370   -0.3740   76.4730 N.am      6 SEP2        0.0000 
      4 CA        -17.7265    3.8600   80.0265 C.3       4 GLC5        0.0000 
      5 CA        -17.0670    4.7740   78.5070 C.3      12 GLL5        0.0000 
      6 CA        -18.3860    2.9460   81.5460 C.3       8 GLP5        0.0000 
      7 CA        -15.6185    4.5450   80.3110 C.3       4 GLC5        0.0000 
      8 CA        -15.6750    4.9030   78.6150 C.3      12 GLL5        0.0000 
      9 CA        -15.5620    4.1870   82.0070 C.3       8 GLP5        0.0000 
     10 N         -15.9540    0.7530   76.7325 N.am      2 SEC2        0.0000 
     11 N         -14.6710    1.8800   76.9920 N.am     10 SEL2        0.0000 
     12 O         -19.3760    2.0530   77.3405 O.2       1 ALC1        0.0000 
     13 O         -18.9220    3.4970   77.7680 O.2       9 ALL1        0.0000 
     14 O         -19.8300    0.6090   76.9130 O.2       5 ALP1        0.0000 
     15 O         -19.4635    4.6230   78.8025 O.2       1 ALC1        0.0000 
     16 O         -20.0050    5.7490   79.8370 O.2       5 ALP1        0.0000 
     17 CA        -14.4430    4.1230   80.1065 C.3       4 GLC5        0.0000 
     18 CA        -13.3240    4.0590   78.2060 C.3      12 GLL5        0.0000 
     19 CA        -13.8395    6.9315   77.4130 C.3       4 GLC5        0.0000 
     20 CA        -12.7700    5.4300   77.7480 C.3      12 GLL5        0.0000 
     21 CA        -14.9090    8.4330   77.0780 C.3       8 GLP5        0.0000 
     22 N         -11.5045    4.9465   75.2660 N.am      2 SEC2        0.0000 
     23 N         -12.5670    5.4840   76.3160 N.am     10 SEL2        0.0000 
     24 N         -10.4420    4.4090   74.2160 N.am      6 SEP2        0.0000 
     25 O         -11.2220    6.4610   76.3925 O.2       1 ALC1        0.0000 
     26 O         -12.5670    5.4840   76.3160 O.2       9 ALL1        0.0000 
     27 O          -9.8770    7.4380   76.4690 O.2       5 ALP1        0.0000 
     28 O         -12.0765    6.6205   75.7205 O.2       1 ALC1        0.0000 
     29 O         -11.5860    7.7570   75.1250 O.2       5 ALP1        0.0000 
     30 O         -10.1385    6.2165   77.0830 O.2       1 ALC1        0.0000 
     31 O         -10.4000    4.9950   77.6970 O.2       9 ALL1        0.0000 
     32 CA        -13.7935    4.8420   81.5125 C.3       4 GLC5        0.0000 
     33 CA        -12.0250    5.4970   81.0180 C.3      12 GLL5        0.0000 
     34 NZ        -10.5955    8.2015   79.8590 N.4       3 LYC4        0.0000 
     35 NZ        -11.9290    8.5170   80.2850 N.4      11 LYL4        0.0000 
     36 NZ         -8.0260    8.0050   79.8950 N.4       7 LYP4        0.0000 
     37 N         -12.3375    8.9655   78.9290 N.am      2 SEC2        0.0000 
     38 N         -11.9290    8.5170   80.2850 N.am     10 SEL2        0.0000 
     39 N         -12.7460    9.4140   77.5730 N.am      6 SEP2        0.0000 
     40 N         -10.5955    8.2015   79.8590 N.am      2 SEC2        0.0000 
     41 N          -9.2620    7.8860   79.4330 N.am      6 SEP2        0.0000 
     42 O         -11.5060   13.0230   83.3880 O.2       1 ALC1        0.0000 
     43 O         -12.5150   12.3860   84.2610 O.2       9 ALL1        0.0000 
     44 O         -10.4970   13.6600   82.5150 O.2       5 ALP1        0.0000 
     45 CA        -11.4250   11.4595   87.7825 C.3       4 GLC5        0.0000 
     46 CA        -12.2580   10.5910   85.9030 C.3      12 GLL5        0.0000 
     47 CA        -10.5920   12.3280   89.6620 C.3       8 GLP5        0.0000 
     48 CA         -9.6300    9.2045   88.2240 C.3       4 GLC5        0.0000 
     49 CA        -11.5920    8.4740   87.4210 C.3      12 GLL5        0.0000 
     50 CA         -7.6680    9.9350   89.0270 C.3       8 GLP5        0.0000 
     51 NZ         -9.6460    8.1880   80.7845 N.4       3 LYC4        0.0000 
     52 NZ        -10.0300    8.4900   82.1360 N.4      11 LYL4        0.0000 
     53 N          -9.6460    8.1880   80.7845 N.am      2 SEC2        0.0000 
     54 N         -10.0300    8.4900   82.1360 N.am     10 SEL2        0.0000 
     55 N          -8.9285    8.4805   81.6285 N.am      2 SEC2        0.0000 
     56 N          -7.8270    8.4710   81.1210 N.am      6 SEP2        0.0000 
     57 N          -8.9910   10.4335   83.4795 N.am      2 SEC2        0.0000 
     58 N          -9.4800    9.1450   84.1820 N.am     10 SEL2        0.0000 
     59 N          -8.5020   11.7220   82.7770 N.am      6 SEP2        0.0000 
     60 CA        -14.4185    7.8215   88.5485 C.3       4 GLC5        0.0000 
     61 CA        -12.9620    8.0380   87.9190 C.3      12 GLL5        0.0000 
     62 CA        -15.8750    7.6050   89.1780 C.3       8 GLP5        0.0000 
     63 CA        -12.9415    6.0655   87.3130 C.3       4 GLC5        0.0000 
     64 CA        -12.9210    4.0930   86.7070 C.3       8 GLP5        0.0000 
     65 O          -9.4910    7.4175   87.4270 O.2       1 ALC1        0.0000 
     66 O         -10.7910    7.2860   87.3170 O.2       9 ALL1        0.0000 
     67 O          -8.1910    7.5490   87.5370 O.2       5 ALP1        0.0000 
     68 CA        -16.0870    4.9623   76.9830 C.3       4 GLC5        0.0000 
     69 CA        -15.8030    5.0860   75.4050 C.3       8 GLP5        0.0000 
     70 CA        -15.6400    6.6357   77.8195 C.3       4 GLC5        0.0000 
     71 CA        -14.4250    4.9153   76.6910 C.3       4 GLC5        0.0000 
     72 CA        -11.4550   12.3960   85.7032 C.3       4 GLC5        0.0000 
     73 CA        -11.9100   11.1070   84.5100 C.3      12 GLL5        0.0000 
     74 CA        -10.8260   13.9430   86.2000 C.3       8 GLP5        0.0000 
@<TRIPOS>BOND
@<TRIPOS>SUBSTRUCTURE
     1 ALC1       12 GROUP        1 X    ALC  0     ROOT ALC X 1
     2 SEC2        1 GROUP        1 X    SEC  0     **** SEC X 2
     3 LYC4       34 GROUP        1 X    LYC  0     **** LYC X 4
     4 GLC5        4 GROUP        1 X    GLC  0     **** GLC X 6
     5 ALP1       14 GROUP        1 Y    ALP  0     ROOT ALP Y 8
     6 SEP2        3 GROUP        1 Y    SEP  0     **** SEP Y 9
     7 LYP4       36 GROUP        1 Y    LYP  0     **** LYP Y 11
     8 GLP5        6 GROUP        1 Y    GLP  0     **** GLP Y 13
     9 ALL1       13 GROUP        1 Z    ALL  0     ROOT ALL Z 15
    10 SEL2        2 GROUP        1 Z    SEL  0     **** SEL Z 16
    11 LYL4       35 GROUP        1 Z    LYL  0     **** LYL Z 18
    12 GLL5        5 GROUP        1 Z    GLL  0     **** GLL Z 20
@<TRIPOS>SET

