#    Name: 3k2v_CMK_2_ligand
#    Modification time : Mon Mar 24 18:07:13 2014

@<TRIPOS>MOLECULE
3k2v_CMK_2_ligand
   60    62     1     0     0
SMALL
NO_CHARGES


@<TRIPOS>ATOM
      1 N1C       -14.8170    3.9260   78.0960 N.am      1 CMK1        0.0000 
      2 C2C       -15.3810    2.7660   77.4670 C.2       1 CMK1        0.0000 
      3 N3C       -16.7610    2.6590   77.3760 N.2       1 CMK1        0.0000 
      4 C4C       -17.6040    3.6530   77.8900 C.2       1 CMK1        0.0000 
      5 C5C       -17.0670    4.7740   78.5070 C.2       1 CMK1        0.0000 
      6 C6C       -15.6750    4.9030   78.6150 C.2       1 CMK1        0.0000 
      7 O2C       -14.6710    1.8800   76.9920 O.2       1 CMK1        0.0000 
      8 N4C       -18.9220    3.4970   77.7680 N.pl3     1 CMK1        0.0000 
      9 C1'       -13.3240    4.0590   78.2060 C.3       1 CMK1        0.0000 
     10 C2'       -12.7700    5.4300   77.7480 C.3       1 CMK1        0.0000 
     11 O2'       -12.5670    5.4840   76.3160 O.3       1 CMK1        0.0000 
     12 C3'       -11.4530    5.5150   78.5190 C.3       1 CMK1        0.0000 
     13 C4'       -11.6670    4.6240   79.7720 C.3       1 CMK1        0.0000 
     14 O4'       -12.9160    3.8970   79.5900 O.3       1 CMK1        0.0000 
     15 O3'       -10.4000    4.9950   77.6970 O.3       1 CMK1        0.0000 
     16 C5'       -12.0250    5.4970   81.0180 C.3       1 CMK1        0.0000 
     17 O5'       -13.1480    6.4230   80.7010 O.3       1 CMK1        0.0000 
     18 PA        -13.0320    7.9590   81.2300 P.3       1 CMK1        0.0000 
     19 O1A       -11.9290    8.5170   80.2850 O.co2     1 CMK1        0.0000 
     20 O2A       -14.3250    8.6660   81.1370 O.co2     1 CMK1        0.0000 
     21 O6        -12.1280    8.3200   85.0330 O.3       1 CMK1        0.0000 
     22 C2        -11.8280    8.7440   83.6580 C.3       1 CMK1        0.0000 
     23 O2        -12.4890    7.7820   82.7720 O.3       1 CMK1        0.0000 
     24 C3        -12.3870   10.1450   83.4270 C.3       1 CMK1        0.0000 
     25 C4        -11.9100   11.1070   84.5100 C.3       1 CMK1        0.0000 
     26 O4        -12.5150   12.3860   84.2610 O.3       1 CMK1        0.0000 
     27 C5        -12.2580   10.5910   85.9030 C.3       1 CMK1        0.0000 
     28 C6        -11.5940    9.2120   86.0570 C.3       1 CMK1        0.0000 
     29 C7        -11.5920    8.4740   87.4210 C.3       1 CMK1        0.0000 
     30 C1        -10.3150    8.7760   83.3160 C.2       1 CMK1        0.0000 
     31 O1X       -10.0300    8.4900   82.1360 O.co2     1 CMK1        0.0000 
     32 O1Y        -9.4800    9.1450   84.1820 O.co2     1 CMK1        0.0000 
     33 O5        -13.6710   10.4630   86.0240 O.3       1 CMK1        0.0000 
     34 C8        -12.9620    8.0380   87.9190 C.3       1 CMK1        0.0000 
     35 O8        -12.8160    6.8130   88.6770 O.3       1 CMK1        0.0000 
     36 O7        -10.7910    7.2860   87.3170 O.3       1 CMK1        0.0000 
     37 H         -17.6771    5.5049   78.8826 H         1 CMK1        0.0000 
     38 H         -15.2775    5.7317   79.0847 H         1 CMK1        0.0000 
     39 H         -19.4884    4.2324   78.1400 H         1 CMK1        0.0000 
     40 H         -19.2258    2.6586   77.3155 H         1 CMK1        0.0000 
     41 H         -12.8426    3.2971   77.6025 H         1 CMK1        0.0000 
     42 H         -13.4206    6.1791   78.1201 H         1 CMK1        0.0000 
     43 H         -11.3034    6.5055   78.8311 H         1 CMK1        0.0000 
     44 H         -10.8784    4.0241   79.9728 H         1 CMK1        0.0000 
     45 H         -11.1343    6.0537   81.3020 H         1 CMK1        0.0000 
     46 H         -12.2966    4.8246   81.8292 H         1 CMK1        0.0000 
     47 H         -13.4758   10.1035   83.4365 H         1 CMK1        0.0000 
     48 H         -12.0579   10.5072   82.4535 H         1 CMK1        0.0000 
     49 H         -10.8294   11.1795   84.4308 H         1 CMK1        0.0000 
     50 H         -11.8384   11.2481   86.6250 H         1 CMK1        0.0000 
     51 H         -10.4983    9.3581   85.7823 H         1 CMK1        0.0000 
     52 H         -11.1548    9.1392   88.1632 H         1 CMK1        0.0000 
     53 H         -13.6111    7.8939   87.0546 H         1 CMK1        0.0000 
     54 H         -13.3735    8.8383   88.5350 H         1 CMK1        0.0000 
     55 H         -12.2481    6.4143   76.1348 H         1 CMK1        0.0000 
     56 H         -10.0798    5.7766   77.1617 H         1 CMK1        0.0000 
     57 H         -11.8677   12.8678   83.6704 H         1 CMK1        0.0000 
     58 H         -14.0222   10.5847   85.0957 H         1 CMK1        0.0000 
     59 H         -11.8639    6.5380   88.5433 H         1 CMK1        0.0000 
     60 H          -9.8516    7.5933   87.4688 H         1 CMK1        0.0000 
@<TRIPOS>BOND
     1    2    1 am   
     2    6    1 1    
     3    9    1 1    
     4    3    2 1    
     5    7    2 2    
     6    4    3 2    
     7    5    4 1    
     8    8    4 1    
     9    6    5 2    
    10   37    5 1    
    11   38    6 1    
    12   39    8 1    
    13   40    8 1    
    14   10    9 1    
    15   14    9 1    
    16   41    9 1    
    17   11   10 1    
    18   12   10 1    
    19   42   10 1    
    20   55   11 1    
    21   13   12 1    
    22   15   12 1    
    23   43   12 1    
    24   14   13 1    
    25   16   13 1    
    26   44   13 1    
    27   56   15 1    
    28   17   16 1    
    29   45   16 1    
    30   46   16 1    
    31   18   17 1    
    32   19   18 ar   
    33   20   18 ar   
    34   23   18 1    
    35   22   21 1    
    36   28   21 1    
    37   23   22 1    
    38   24   22 1    
    39   30   22 1    
    40   25   24 1    
    41   47   24 1    
    42   48   24 1    
    43   26   25 1    
    44   27   25 1    
    45   49   25 1    
    46   57   26 1    
    47   28   27 1    
    48   33   27 1    
    49   50   27 1    
    50   29   28 1    
    51   51   28 1    
    52   34   29 1    
    53   36   29 1    
    54   52   29 1    
    55   31   30 ar   
    56   32   30 ar   
    57   58   33 1    
    58   35   34 1    
    59   53   34 1    
    60   54   34 1    
    61   59   35 1    
    62   60   36 1    
@<TRIPOS>SUBSTRUCTURE
     1 CMK1        1 GROUP   
@<TRIPOS>SET

