#    Name: 1sqq_OST_1_INTS_M
#    Modification time : Tue Mar 25 02:40:11 2014

@<TRIPOS>MOLECULE
1sqq_OST_1_INTS_M
   67     0     6     0     0
SMALL
NO_CHARGES


@<TRIPOS>ATOM
      1 CA         67.6890   61.7505  168.9110 C.3       2 GLC5        0.0000 
      2 CA         66.9710   60.6950  167.6360 C.3       6 GLL5        0.0000 
      3 CA         68.4070   62.8060  170.1860 C.3       4 GLP5        0.0000 
      4 CA         65.2335   60.4330  168.2210 C.3       2 GLC5        0.0000 
      5 CA         63.4960   60.1710  168.8060 C.3       4 GLP5        0.0000 
      6 CA         66.2375   60.5740  166.0770 C.3       2 GLC5        0.0000 
      7 CA         65.5040   60.4530  164.5180 C.3       4 GLP5        0.0000 
      8 CA         67.6580   59.6025  166.4685 C.3       2 GLC5        0.0000 
      9 CA         68.3450   58.5100  165.3010 C.3       4 GLP5        0.0000 
     10 N          65.2010   57.8820  169.2585 N.am      1 SEC2        0.0000 
     11 N          66.4620   58.6140  169.2520 N.am      5 SEL2        0.0000 
     12 N          63.9400   57.1500  169.2650 N.am      3 SEP2        0.0000 
     13 CA         71.3430   59.1470  169.1365 C.3       2 GLC5        0.0000 
     14 CA         69.7140   59.2050  170.2050 C.3       6 GLL5        0.0000 
     15 CA         72.9720   59.0890  168.0680 C.3       4 GLP5        0.0000 
     16 CA         70.3010   58.0135  171.9865 C.3       2 GLC5        0.0000 
     17 CA         70.8880   56.8220  173.7680 C.3       4 GLP5        0.0000 
     18 CA         72.2055   59.5520  169.7295 C.3       2 GLC5        0.0000 
     19 CA         71.4390   60.0150  171.3910 C.3       6 GLL5        0.0000 
     20 CA         69.9230   61.4105  170.7885 C.3       2 GLC5        0.0000 
     21 CA         72.4240   61.3560  171.7710 C.3       2 GLC5        0.0000 
     22 CA         73.4090   62.6970  172.1510 C.3       4 GLP5        0.0000 
     23 CA         71.1635   58.4185  172.5795 C.3       2 GLC5        0.0000 
     24 CA         72.8710   59.2865  172.4430 C.3       2 GLC5        0.0000 
     25 CA         74.3030   58.5580  173.4950 C.3       4 GLP5        0.0000 
     26 CA         70.6185   53.8100  170.1230 C.3       2 GLC5        0.0000 
     27 CA         69.0330   54.4840  170.7290 C.3       6 GLL5        0.0000 
     28 CA         72.2040   53.1360  169.5170 C.3       4 GLP5        0.0000 
     29 CA         67.5545   53.8540  170.0080 C.3       2 GLC5        0.0000 
     30 CA         66.0760   53.2240  169.2870 C.3       4 GLP5        0.0000 
     31 CA         66.9250   53.6245  171.2835 C.3       2 GLC5        0.0000 
     32 CA         68.3360   54.3910  171.9600 C.3       6 GLL5        0.0000 
     33 CA         65.5140   52.8580  170.6070 C.3       4 GLP5        0.0000 
     34 CA         66.8510   55.8715  174.2950 C.3       2 GLC5        0.0000 
     35 CA         67.7600   55.5550  172.5470 C.3       6 GLL5        0.0000 
     36 CA         65.9420   56.1880  176.0430 C.3       4 GLP5        0.0000 
     37 CA         68.7560   56.5550  167.1845 C.3       2 GLC5        0.0000 
     38 CA         69.7730   55.7930  168.7330 C.3       6 GLL5        0.0000 
     39 CA         67.7390   57.3170  165.6360 C.3       4 GLP5        0.0000 
     40 CA         68.3058   60.0968  171.0793 C.3       2 GLC5        0.0000 
     41 CA         68.7090   58.3480  169.9920 C.3       6 GLL5        0.0000 
     42 CA         67.4000   61.4170  172.0600 C.3       4 GLP5        0.0000 
     43 CA         69.5517   56.8588  172.5110 C.3       2 GLC5        0.0000 
     44 CA         68.5800   56.9750  170.6280 C.3       6 GLL5        0.0000 
     45 CA         69.9707   55.9653  172.0693 C.3       2 GLC5        0.0000 
     46 CA         69.0740   55.7330  170.0120 C.3       6 GLL5        0.0000 
     47 CA         71.0122   55.1865  169.6388 C.3       2 GLC5        0.0000 
     48 CA         72.6010   54.6100  169.9050 C.3       4 GLP5        0.0000 
     49 CA         69.4680   55.8975  173.0108 C.3       2 GLC5        0.0000 
     50 CA         68.3070   53.9865  173.7097 C.3       2 GLC5        0.0000 
     51 CA         68.5660   53.0000  175.1660 C.3       4 GLP5        0.0000 
     52 CA         66.5264   55.7126  171.0262 C.3       2 GLC5        0.0000 
     53 CA         65.0650   55.2000  170.1520 C.3       4 GLP5        0.0000 
     54 CA         67.5331   54.9168  168.7264 C.3       2 GLC5        0.0000 
     55 CA         69.5290   54.8800  167.7650 C.3       6 GLL5        0.0000 
     56 CA         65.5900   54.5120  168.8840 C.3       4 GLP5        0.0000 
     57 CA         72.8748   55.5147  166.7608 C.3       2 GLC5        0.0000 
     58 CA         70.9670   55.9480  165.9730 C.3       6 GLL5        0.0000 
     59 CA         74.3960   55.1420  168.1490 C.3       4 GLP5        0.0000 
     60 CA         68.7837   55.1617  165.8605 C.3       2 GLC5        0.0000 
     61 CA         67.1130   54.9350  165.1520 C.3       4 GLP5        0.0000 
     62 CA         71.2067   53.6543  168.0295 C.3       2 GLC5        0.0000 
     63 CA         68.9843   54.1950  165.2337 C.3       2 GLC5        0.0000 
     64 CA         70.4770   53.5160  165.9190 C.3       6 GLL5        0.0000 
     65 CA         71.7985   52.2853  163.4658 C.3       2 GLC5        0.0000 
     66 CA         71.2340   53.3940  164.7120 C.3       6 GLL5        0.0000 
     67 CA         72.0390   50.6010  162.5030 C.3       4 GLP5        0.0000 
@<TRIPOS>BOND
@<TRIPOS>SUBSTRUCTURE
     1 SEC2       10 GROUP        1 X    SEC  0     ROOT SEC X 2
     2 GLC5        1 GROUP        1 X    GLC  0     **** GLC X 6
     3 SEP2       12 GROUP        1 Y    SEP  0     ROOT SEP Y 9
     4 GLP5        3 GROUP        1 Y    GLP  0     **** GLP Y 13
     5 SEL2       11 GROUP        1 Z    SEL  0     ROOT SEL Z 16
     6 GLL5        2 GROUP        1 Z    GLL  0     **** GLL Z 20
@<TRIPOS>SET

