#    Name: 1sqq_OST_1_ligand
#    Modification time : Tue Mar 25 02:40:11 2014

@<TRIPOS>MOLECULE
1sqq_OST_1_ligand
   40    41     1     0     0
SMALL
NO_CHARGES


@<TRIPOS>ATOM
      1 C5         66.9710   60.6950  167.6360 C.3       1 OST384      0.0000 
      2 O1         68.0210   59.9850  168.3810 O.3       1 OST384      0.0000 
      3 C1         67.6520   58.9220  169.1640 C.2       1 OST384      0.0000 
      4 O3         66.4620   58.6140  169.2520 O.2       1 OST384      0.0000 
      5 C2         68.7090   58.3480  169.9920 C.2       1 OST384      0.0000 
      6 C3         69.7140   59.2050  170.2050 C.2       1 OST384      0.0000 
      7 O2         70.5170   58.9540  171.1770 O.3       1 OST384      0.0000 
      8 C4         71.4390   60.0150  171.3910 C.3       1 OST384      0.0000 
      9 C6         68.5800   56.9750  170.6280 C.ar      1 OST384      0.0000 
     10 C11        67.8510   56.8160  171.8800 C.ar      1 OST384      0.0000 
     11 C7         69.0740   55.7330  170.0120 C.ar      1 OST384      0.0000 
     12 C8         69.0330   54.4840  170.7290 C.ar      1 OST384      0.0000 
     13 C9         68.3360   54.3910  171.9600 C.ar      1 OST384      0.0000 
     14 C10        67.7600   55.5550  172.5470 C.ar      1 OST384      0.0000 
     15 C12        69.7730   55.7930  168.7330 C.2       1 OST384      0.0000 
     16 C13        69.5290   54.8800  167.7650 C.2       1 OST384      0.0000 
     17 C14        70.3550   54.7780  166.5650 C.ar      1 OST384      0.0000 
     18 C15        70.9670   55.9480  165.9730 C.ar      1 OST384      0.0000 
     19 C16        71.7400   55.8270  164.7720 C.ar      1 OST384      0.0000 
     20 C19        70.4770   53.5160  165.9190 C.ar      1 OST384      0.0000 
     21 C18        71.2340   53.3940  164.7120 C.ar      1 OST384      0.0000 
     22 C17        71.8820   54.5450  164.1450 C.ar      1 OST384      0.0000 
     23 H          69.8203   60.0377  169.5917 H         1 OST384      0.0000 
     24 H          67.3943   57.6395  172.2845 H         1 OST384      0.0000 
     25 H          69.5086   53.6726  170.3425 H         1 OST384      0.0000 
     26 H          68.2447   53.4907  172.4292 H         1 OST384      0.0000 
     27 H          67.2825   55.4902  173.4429 H         1 OST384      0.0000 
     28 H          70.4524   56.5580  168.6103 H         1 OST384      0.0000 
     29 H          68.7382   54.2085  167.8353 H         1 OST384      0.0000 
     30 H          70.8453   56.8523  166.4131 H         1 OST384      0.0000 
     31 H          72.1834   56.6417  164.3683 H         1 OST384      0.0000 
     32 H          70.0245   52.6944  166.3155 H         1 OST384      0.0000 
     33 H          71.3160   52.4927  164.2514 H         1 OST384      0.0000 
     34 H          72.4377   54.4493  163.3040 H         1 OST384      0.0000 
     35 H          67.3439   61.4510  167.0980 H         1 OST384      0.0000 
     36 H          66.4934   60.0896  166.9992 H         1 OST384      0.0000 
     37 H          66.2800   61.0824  168.2462 H         1 OST384      0.0000 
     38 H          72.0612   59.8191  172.1489 H         1 OST384      0.0000 
     39 H          72.0045   60.1841  170.5838 H         1 OST384      0.0000 
     40 H          70.9738   60.8732  171.6080 H         1 OST384      0.0000 
@<TRIPOS>BOND
     1    2    1 1    
     2   35    1 1    
     3   36    1 1    
     4   37    1 1    
     5    3    2 1    
     6    4    3 2    
     7    5    3 1    
     8    6    5 2    
     9    9    5 1    
    10    7    6 1    
    11   23    6 1    
    12    8    7 1    
    13   38    8 1    
    14   39    8 1    
    15   40    8 1    
    16   10    9 ar   
    17   11    9 ar   
    18   14   10 ar   
    19   24   10 1    
    20   12   11 ar   
    21   15   11 1    
    22   13   12 ar   
    23   25   12 1    
    24   14   13 ar   
    25   26   13 1    
    26   27   14 1    
    27   16   15 2    
    28   28   15 1    
    29   17   16 1    
    30   29   16 1    
    31   18   17 ar   
    32   20   17 ar   
    33   19   18 ar   
    34   30   18 1    
    35   22   19 ar   
    36   31   19 1    
    37   21   20 ar   
    38   32   20 1    
    39   22   21 ar   
    40   33   21 1    
    41   34   22 1    
@<TRIPOS>SUBSTRUCTURE
     1 OST384      1 GROUP   
@<TRIPOS>SET

