#    Name: 3B1N_1_CAVITY_N1_6.mol2
#    Modification time : Tue Mar 11 10:26:46 2014

@<TRIPOS>MOLECULE
3B1N_1_CAVITY_N1_6.mol2
   35     0     5     0     0
SMALL
NO_CHARGES


@<TRIPOS>ATOM
      1 NZ         -2.6923   61.5471   19.9795 N.2       3 LYS4        0.0000 
      2 CA          0.9424   59.7213   15.3206 C.3       5 GLY6        0.0000 
      3 OG         -0.1910   60.1878   16.1853 O.2       1 SER1        0.0000 
      4 CA         -1.3245   60.6542   17.0500 C.3       5 GLY6        0.0000 
      5 CA         -2.4579   61.1206   17.9148 C.3       5 GLY6        0.0000 
      6 O          -3.5914   61.5870   18.7795 O.2       2 ALA2        0.0000 
      7 CZ          0.0434   59.7613   14.1206 C.ar      4 PHE5        0.0000 
      8 OG         -1.0901   60.2278   14.9853 O.2       1 SER1        0.0000 
      9 OG         -2.2235   60.6942   15.8500 O.2       1 SER1        0.0000 
     10 CA         -3.3570   61.1606   16.7147 C.3       5 GLY6        0.0000 
     11 O          -2.1894   60.0820   21.4289 O.2       2 ALA2        0.0000 
     12 O          -3.3229   60.5484   22.2936 O.2       2 ALA2        0.0000 
     13 O          -1.9551   59.6555   19.3641 O.2       2 ALA2        0.0000 
     14 O          -3.0885   60.1220   20.2289 O.2       2 ALA2        0.0000 
     15 O          -4.2220   60.5884   21.0936 O.2       2 ALA2        0.0000 
     16 CA          0.5462   58.2963   15.5700 C.3       5 GLY6        0.0000 
     17 CZ         -0.5872   58.7627   16.4347 C.ar      4 PHE5        0.0000 
     18 O          -1.7207   59.2291   17.2994 O.2       2 ALA2        0.0000 
     19 O          -2.8541   59.6955   18.1641 O.2       2 ALA2        0.0000 
     20 O          -3.9876   60.1620   19.0288 O.2       2 ALA2        0.0000 
     21 O          -5.1210   60.6284   19.8935 O.2       2 ALA2        0.0000 
     22 CZ         -2.6197   59.2691   16.0994 C.ar      4 PHE5        0.0000 
     23 NZ         -3.7532   59.7355   16.9641 N.2       3 LYS4        0.0000 
     24 NZ         -4.8866   60.2020   17.8288 N.2       3 LYS4        0.0000 
     25 N          -2.5857   58.6569   21.6782 N.2       2 ALA2        0.0000 
     26 O          -2.3513   58.2305   19.6135 O.2       2 ALA2        0.0000 
     27 N          -3.4847   58.6969   20.4782 N.2       2 ALA2        0.0000 
     28 CA         -4.6182   59.1633   21.3429 C.3       5 GLY6        0.0000 
     29 OG         -0.9834   57.3376   16.6840 O.2       1 SER1        0.0000 
     30 O          -2.1169   57.8040   17.5487 O.2       2 ALA2        0.0000 
     31 CA         -3.2503   58.2705   18.4135 C.3       5 GLY6        0.0000 
     32 CA         -4.3838   58.7369   19.2782 C.3       5 GLY6        0.0000 
     33 NZ         -5.5172   59.2033   20.1429 N.2       3 LYS4        0.0000 
     34 CA         -3.0159   57.8440   16.3487 C.3       5 GLY6        0.0000 
     35 CA         -4.1494   58.3105   17.2134 C.3       5 GLY6        0.0000 
@<TRIPOS>BOND
@<TRIPOS>SUBSTRUCTURE
     1 SER1        3 GROUP   
     2 ALA2        6 GROUP   
     3 LYS4        1 GROUP   
     4 PHE5        7 GROUP   
     5 GLY6        2 GROUP   
@<TRIPOS>SET

