#    Name: 3b1n_MZR_1_INTS_M
#    Modification time : Mon Mar 24 18:38:03 2014

@<TRIPOS>MOLECULE
3b1n_MZR_1_INTS_M
   45     0     9     0     0
SMALL
NO_CHARGES


@<TRIPOS>ATOM
      1 CA         -0.4010   60.8865   17.2425 C.3       3 GLC5        0.0000 
      2 CA         -0.6010   59.2150   15.9920 C.3       9 GLL5        0.0000 
      3 CA         -0.2010   62.5580   18.4930 C.3       6 GLP5        0.0000 
      4 CA          1.2360   60.4830   16.2635 C.3       3 GLC5        0.0000 
      5 CA          3.0730   61.7510   16.5350 C.3       6 GLP5        0.0000 
      6 N           0.3835   55.8430   16.1615 N.am      2 SEC2        0.0000 
      7 N          -0.4000   57.0480   16.3680 N.am      8 SEL2        0.0000 
      8 N           1.1670   54.6380   15.9550 N.am      5 SEP2        0.0000 
      9 CA         -1.3640   61.1860   17.9940 C.3       3 GLC5        0.0000 
     10 CA         -2.5270   59.8140   17.4950 C.3       9 GLL5        0.0000 
     11 CA         -2.5385   58.9330   15.4415 C.3       3 GLC5        0.0000 
     12 CA         -2.5500   58.0520   13.3880 C.3       6 GLP5        0.0000 
     13 CA         -4.6800   57.8800   16.4190 C.3       3 GLC5        0.0000 
     14 CA         -3.9760   59.3820   17.5470 C.3       9 GLL5        0.0000 
     15 CA         -5.3840   56.3780   15.2910 C.3       6 GLP5        0.0000 
     16 N          -5.2550   61.3455   16.5080 N.am      2 SEC2        0.0000 
     17 N          -4.6200   59.9310   16.3950 N.am      8 SEL2        0.0000 
     18 N          -5.8900   62.7600   16.6210 N.am      5 SEP2        0.0000 
     19 O          -5.8770   59.4510   16.4410 O.2       1 ALC1        0.0000 
     20 O          -4.6200   59.9310   16.3950 O.2       7 ALL1        0.0000 
     21 O          -7.1340   58.9710   16.4870 O.2       4 ALP1        0.0000 
     22 N          -5.6885   61.8105   17.7420 N.am      2 SEC2        0.0000 
     23 N          -5.4870   60.8610   18.8630 N.am      8 SEL2        0.0000 
     24 N          -5.4075   62.0480   19.7885 N.am      2 SEC2        0.0000 
     25 N          -5.3280   63.2350   20.7140 N.am      5 SEP2        0.0000 
     26 O          -6.5970   60.2620   18.6990 O.2       1 ALC1        0.0000 
     27 O          -5.4870   60.8610   18.8630 O.2       7 ALL1        0.0000 
     28 O          -7.7070   59.6630   18.5350 O.2       4 ALP1        0.0000 
     29 CA         -1.7025   61.4865   19.0545 C.3       3 GLC5        0.0000 
     30 CA         -3.2040   60.4150   19.6160 C.3       9 GLL5        0.0000 
     31 CA         -4.7190   58.7215   21.9125 C.3       3 GLC5        0.0000 
     32 CA         -3.0700   59.9580   21.0700 C.3       9 GLL5        0.0000 
     33 CA         -6.3680   57.4850   22.7550 C.3       6 GLP5        0.0000 
     34 CA         -4.0705   60.7535   22.8970 C.3       3 GLC5        0.0000 
     35 CA         -5.0710   61.5490   24.7240 C.3       6 GLP5        0.0000 
     36 O          -2.1770   62.1545   21.7670 O.2       1 ALC1        0.0000 
     37 O          -2.0140   60.5940   21.9140 O.2       7 ALL1        0.0000 
     38 O          -2.3400   63.7150   21.6200 O.2       4 ALP1        0.0000 
     39 CA          1.3205   58.0655   16.8330 C.3       3 GLC5        0.0000 
     40 CA          2.8630   57.5080   17.8560 C.3       6 GLP5        0.0000 
     41 CA         -4.9352   57.8397   18.7677 C.3       3 GLC5        0.0000 
     42 CA         -5.6610   56.0620   19.2910 C.3       6 GLP5        0.0000 
     43 CA         -4.2336   61.5132   17.1777 C.3       3 GLC5        0.0000 
     44 CA         -4.4430   59.8530   18.9420 C.3       9 GLL5        0.0000 
     45 CA         -4.6200   63.3010   16.1240 C.3       6 GLP5        0.0000 
@<TRIPOS>BOND
@<TRIPOS>SUBSTRUCTURE
     1 ALC1       19 GROUP        1 X    ALC  0     ROOT ALC X 1
     2 SEC2        6 GROUP        1 X    SEC  0     **** SEC X 2
     3 GLC5        1 GROUP        1 X    GLC  0     **** GLC X 6
     4 ALP1       21 GROUP        1 Y    ALP  0     ROOT ALP Y 8
     5 SEP2        8 GROUP        1 Y    SEP  0     **** SEP Y 9
     6 GLP5        3 GROUP        1 Y    GLP  0     **** GLP Y 13
     7 ALL1       20 GROUP        1 Z    ALL  0     ROOT ALL Z 15
     8 SEL2        7 GROUP        1 Z    SEL  0     **** SEL Z 16
     9 GLL5        2 GROUP        1 Z    GLL  0     **** GLL Z 20
@<TRIPOS>SET

