#    Name: 3b1n_MZR_1_ligand
#    Modification time : Mon Mar 24 18:38:03 2014

@<TRIPOS>MOLECULE
3b1n_MZR_1_ligand
   31    32     1     0     0
SMALL
NO_CHARGES


@<TRIPOS>ATOM
      1 N1          1.5810   59.2300   14.1440 N.am      1 MZR401      0.0000 
      2 O3         -0.3770   60.5080   15.4750 O.3       1 MZR401      0.0000 
      3 C4         -0.6010   59.2150   15.9920 C.2       1 MZR401      0.0000 
      4 C5          0.1570   58.0310   15.6280 C.2       1 MZR401      0.0000 
      5 C6          1.2820   58.0720   14.6830 C.2       1 MZR401      0.0000 
      6 O6          1.8950   56.9940   14.4350 O.2       1 MZR401      0.0000 
      7 N7         -0.4000   57.0480   16.3680 N.2       1 MZR401      0.0000 
      8 C8         -1.4410   57.5410   17.1220 C.2       1 MZR401      0.0000 
      9 N9         -1.5870   58.8910   16.8410 N.pl3     1 MZR401      0.0000 
     10 C1'        -2.5270   59.8140   17.4950 C.3       1 MZR401      0.0000 
     11 C2'        -3.9760   59.3820   17.5470 C.3       1 MZR401      0.0000 
     12 O2'        -4.6200   59.9310   16.3950 O.3       1 MZR401      0.0000 
     13 C3'        -4.4430   59.8530   18.9420 C.3       1 MZR401      0.0000 
     14 O3'        -5.4870   60.8610   18.8630 O.3       1 MZR401      0.0000 
     15 C4'        -3.2040   60.4150   19.6160 C.3       1 MZR401      0.0000 
     16 O4'        -2.1400   59.7860   18.8590 O.3       1 MZR401      0.0000 
     17 C5'        -3.0700   59.9580   21.0700 C.3       1 MZR401      0.0000 
     18 O5'        -2.0140   60.5940   21.9140 O.3       1 MZR401      0.0000 
     19 H           2.3616   59.2360   13.5190 H         1 MZR401      0.0000 
     20 H           1.0010   60.0008   14.4074 H         1 MZR401      0.0000 
     21 H          -1.9749   57.0430   17.7355 H         1 MZR401      0.0000 
     22 H          -2.4499   60.7939   17.1170 H         1 MZR401      0.0000 
     23 H          -3.9661   58.3013   17.5473 H         1 MZR401      0.0000 
     24 H          -4.7567   58.9867   19.4906 H         1 MZR401      0.0000 
     25 H          -3.1761   61.4460   19.5300 H         1 MZR401      0.0000 
     26 H          -2.9183   58.8435   21.0668 H         1 MZR401      0.0000 
     27 H          -4.0704   60.0939   21.5660 H         1 MZR401      0.0000 
     28 H          -1.2896   60.8876   15.3232 H         1 MZR401      0.0000 
     29 H          -5.5572   59.5842   16.4327 H         1 MZR401      0.0000 
     30 H          -6.3125   60.4050   19.1954 H         1 MZR401      0.0000 
     31 H          -2.2170   61.5728   21.8883 H         1 MZR401      0.0000 
@<TRIPOS>BOND
     1    5    1 am   
     2   19    1 1    
     3   20    1 1    
     4    3    2 1    
     5   28    2 1    
     6    4    3 2    
     7    9    3 1    
     8    5    4 1    
     9    7    4 1    
    10    6    5 2    
    11    8    7 2    
    12    9    8 1    
    13   21    8 1    
    14   10    9 1    
    15   11   10 1    
    16   16   10 1    
    17   22   10 1    
    18   12   11 1    
    19   13   11 1    
    20   23   11 1    
    21   29   12 1    
    22   14   13 1    
    23   15   13 1    
    24   24   13 1    
    25   30   14 1    
    26   16   15 1    
    27   17   15 1    
    28   25   15 1    
    29   18   17 1    
    30   26   17 1    
    31   27   17 1    
    32   31   18 1    
@<TRIPOS>SUBSTRUCTURE
     1 MZR401      1 GROUP   
@<TRIPOS>SET

