#    Name: 2F71_1_CAVITY_N1_6.mol2
#    Modification time : Tue Mar 11 11:56:36 2014

@<TRIPOS>MOLECULE
2F71_1_CAVITY_N1_6.mol2
   61     0     4     0     0
SMALL
NO_CHARGES


@<TRIPOS>ATOM
      1 N          40.9629    5.8673   16.1215 N.2       1 ALA2        0.0000 
      2 O          36.4581    7.2717   15.6378 O.2       1 ALA2        0.0000 
      3 O          37.7050    6.4410   15.5674 O.2       1 ALA2        0.0000 
      4 O          36.9410    5.3531   14.8725 O.2       1 ALA2        0.0000 
      5 DU         38.1880    4.5224   14.8021 H         4 CUB7        0.0000 
      6 O          34.9301    5.0961   14.2480 O.2       1 ALA2        0.0000 
      7 DU         36.1770    4.2653   14.1776 H         4 CUB7        0.0000 
      8 N          34.1661    4.0082   13.5531 N.2       1 ALA2        0.0000 
      9 DU         35.4130    3.1775   13.4826 H         4 CUB7        0.0000 
     10 N          33.4021    2.9204   12.8581 N.2       1 ALA2        0.0000 
     11 N          34.6490    2.0896   12.7877 N.2       1 ALA2        0.0000 
     12 N          39.5668    9.2302   15.6298 N.2       1 ALA2        0.0000 
     13 CA         40.8138    8.3994   15.5594 C.3       3 GLY6        0.0000 
     14 N          42.0607    7.5687   15.4890 N.2       1 ALA2        0.0000 
     15 N          37.5559    8.9731   15.0053 N.2       1 ALA2        0.0000 
     16 O          38.8028    8.1424   14.9349 O.2       1 ALA2        0.0000 
     17 N          40.0498    7.3116   14.8645 N.2       1 ALA2        0.0000 
     18 O          35.5449    8.7161   14.3808 O.2       1 ALA2        0.0000 
     19 O          36.7919    7.8853   14.3104 O.2       1 ALA2        0.0000 
     20 O          38.0388    7.0545   14.2400 O.2       1 ALA2        0.0000 
     21 N          39.2858    6.2238   14.1695 N.2       1 ALA2        0.0000 
     22 N          40.5327    5.3930   14.0991 N.2       1 ALA2        0.0000 
     23 O          36.0279    6.7975   13.6155 O.2       1 ALA2        0.0000 
     24 DU         37.2748    5.9667   13.5450 H         4 CUB7        0.0000 
     25 DU         38.5218    5.1359   13.4746 H         4 CUB7        0.0000 
     26 O          34.0169    6.5404   12.9909 O.2       1 ALA2        0.0000 
     27 O          35.2639    5.7096   12.9205 O.2       1 ALA2        0.0000 
     28 DU         36.5108    4.8789   12.8501 H         4 CUB7        0.0000 
     29 DU         37.7578    4.0481   12.7797 H         4 CUB7        0.0000 
     30 CA         39.0047    3.2173   12.7093 C.3       3 GLY6        0.0000 
     31 O          34.4999    4.6218   12.2256 O.2       1 ALA2        0.0000 
     32 DU         35.7468    3.7910   12.1552 H         4 CUB7        0.0000 
     33 DU         36.9938    2.9603   12.0848 H         4 CUB7        0.0000 
     34 DU         38.2407    2.1295   12.0143 H         4 CUB7        0.0000 
     35 NZ         39.4877    1.2987   11.9439 N.2       2 LYS4        0.0000 
     36 N          34.9828    2.7032   11.4603 N.2       1 ALA2        0.0000 
     37 DU         36.2298    1.8724   11.3898 H         4 CUB7        0.0000 
     38 NZ         37.4767    1.0417   11.3194 N.2       2 LYS4        0.0000 
     39 N          39.9006    9.8438   14.3024 N.2       1 ALA2        0.0000 
     40 CA         41.1476    9.0130   14.2319 C.3       3 GLY6        0.0000 
     41 O          39.1366    8.7559   13.6074 O.2       1 ALA2        0.0000 
     42 CA         40.3836    7.9252   13.5370 C.3       3 GLY6        0.0000 
     43 O          38.3726    7.6681   12.9125 O.2       1 ALA2        0.0000 
     44 CA         39.6196    6.8373   12.8421 C.3       3 GLY6        0.0000 
     45 CA         40.8665    6.0066   12.7717 C.3       3 GLY6        0.0000 
     46 CA         36.3617    7.4110   12.2880 C.3       3 GLY6        0.0000 
     47 CA         37.6086    6.5803   12.2176 C.3       3 GLY6        0.0000 
     48 O          38.8556    5.7495   12.1472 O.2       1 ALA2        0.0000 
     49 O          35.5977    6.3232   11.5931 O.2       1 ALA2        0.0000 
     50 O          36.8446    5.4924   11.5227 O.2       1 ALA2        0.0000 
     51 CA         38.0916    4.6617   11.4522 C.3       3 GLY6        0.0000 
     52 O          36.0806    4.4046   10.8277 O.2       1 ALA2        0.0000 
     53 CA         37.3276    3.5738   10.7573 C.3       3 GLY6        0.0000 
     54 CA         38.5745    2.7431   10.6869 C.3       3 GLY6        0.0000 
     55 CA         35.3166    3.3167   10.1328 C.3       3 GLY6        0.0000 
     56 N          36.5636    2.4860   10.0624 N.2       1 ALA2        0.0000 
     57 N          37.8105    1.6552    9.9920 N.2       1 ALA2        0.0000 
     58 O          36.4144    5.0181    9.5003 O.2       1 ALA2        0.0000 
     59 CA         37.6614    4.1874    9.4299 C.3       3 GLY6        0.0000 
     60 CA         35.6504    3.9303    8.8054 C.3       3 GLY6        0.0000 
     61 N          36.8974    3.0995    8.7349 N.2       1 ALA2        0.0000 
@<TRIPOS>BOND
@<TRIPOS>SUBSTRUCTURE
     1 ALA2        1 GROUP   
     2 LYS4       35 GROUP   
     3 GLY6       13 GROUP   
     4 CUB7        5 GROUP   
@<TRIPOS>SET

