#    Name: 2f71_UN7_1_INTS_M
#    Modification time : Tue Mar 25 12:20:28 2014

@<TRIPOS>MOLECULE
2f71_UN7_1_INTS_M
   72     0     9     0     0
SMALL
NO_CHARGES


@<TRIPOS>ATOM
      1 NZ         41.8875   18.4100   11.3305 N.4       2 LYC4        0.0000 
      2 NZ         41.5150   16.9390   11.3980 N.4       8 LYL4        0.0000 
      3 NZ         43.2240   20.3760   12.0310 N.4       5 LYP4        0.0000 
      4 N          40.6895   16.9945   10.1270 N.am      1 SEC2        0.0000 
      5 N          41.5150   16.9390   11.3980 N.am      7 SEL2        0.0000 
      6 N          39.8640   17.0500    8.8560 N.am      4 SEP2        0.0000 
      7 N          41.8875   18.4100   11.3305 N.am      1 SEC2        0.0000 
      8 N          42.2600   19.8810   11.2630 N.am      4 SEP2        0.0000 
      9 N          42.5610   13.7330    9.9340 N.am      1 SEC2        0.0000 
     10 N          42.3620   14.6510   11.3360 N.am      7 SEL2        0.0000 
     11 N          42.7600   12.8150    8.5320 N.am      4 SEP2        0.0000 
     12 N          41.3105   14.4035   10.3910 N.am      1 SEC2        0.0000 
     13 N          40.2590   14.1560    9.4460 N.am      4 SEP2        0.0000 
     14 NZ         43.9220   17.9870   12.3925 N.4       2 LYC4        0.0000 
     15 NZ         43.7990   16.4410   12.1400 N.4       8 LYL4        0.0000 
     16 N          45.1025   16.7710   11.5010 N.am      1 SEC2        0.0000 
     17 N          43.7990   16.4410   12.1400 N.am      7 SEL2        0.0000 
     18 N          46.4060   17.1010   10.8620 N.am      4 SEP2        0.0000 
     19 N          44.8895   15.4180   11.9830 N.am      1 SEC2        0.0000 
     20 N          45.9800   14.3950   11.8260 N.am      4 SEP2        0.0000 
     21 N          43.9220   17.9870   12.3925 N.am      1 SEC2        0.0000 
     22 N          44.0450   19.5330   12.6450 N.am      4 SEP2        0.0000 
     23 CA         44.7165   16.7530   15.8070 C.3       3 GLC5        0.0000 
     24 CA         43.3590   15.1170   15.1920 C.3       9 GLL5        0.0000 
     25 CA         46.0740   18.3890   16.4220 C.3       6 GLP5        0.0000 
     26 CA         45.1440   16.0440   14.2350 C.3       3 GLC5        0.0000 
     27 CA         46.9290   16.9710   13.2780 C.3       6 GLP5        0.0000 
     28 CA         41.4650   12.4460   12.5595 C.3       3 GLC5        0.0000 
     29 CA         41.7350   13.5610   14.4090 C.3       9 GLL5        0.0000 
     30 CA         41.1950   11.3310   10.7100 C.3       6 GLP5        0.0000 
     31 CA         39.8850   13.2510   13.4010 C.3       3 GLC5        0.0000 
     32 CA         38.0350   12.9410   12.3930 C.3       6 GLP5        0.0000 
     33 CA         45.5735   11.6220   17.2200 C.3       3 GLC5        0.0000 
     34 CA         43.7810   11.7700   17.0300 C.3       9 GLL5        0.0000 
     35 CA         47.3660   11.4740   17.4100 C.3       6 GLP5        0.0000 
     36 CA         42.8195    9.9060   14.5360 C.3       3 GLC5        0.0000 
     37 CA         41.6110   11.2240   15.3350 C.3       9 GLL5        0.0000 
     38 CA         44.0280    8.5880   13.7370 C.3       6 GLP5        0.0000 
     39 CA         40.7515   13.0930   16.0410 C.3       3 GLC5        0.0000 
     40 CA         39.8920   14.9620   16.7470 C.3       6 GLP5        0.0000 
     41 CA         41.2890   10.6735   13.4785 C.3       3 GLC5        0.0000 
     42 CA         40.9670   10.1230   11.6220 C.3       6 GLP5        0.0000 
     43 CA         39.6485   13.7230   17.9225 C.3       3 GLC5        0.0000 
     44 CA         39.4050   12.4840   19.0980 C.3       9 GLL5        0.0000 
     45 CA         42.3545    8.5240   14.6205 C.3       3 GLC5        0.0000 
     46 CA         40.6810    8.4600   15.5040 C.3       9 GLL5        0.0000 
     47 CA         40.8240    9.2915   13.5630 C.3       3 GLC5        0.0000 
     48 CA         41.6030    6.1680   16.6590 C.3       3 GLC5        0.0000 
     49 CA         39.9190    7.1810   15.8530 C.3       9 GLL5        0.0000 
     50 CA         43.2870    5.1550   17.4650 C.3       6 GLP5        0.0000 
     51 NZ         34.7325    7.4265   10.8370 N.4       2 LYC4        0.0000 
     52 NZ         35.2140    8.1330   12.3210 N.4       8 LYL4        0.0000 
     53 NZ         34.3160    7.8940    8.7390 N.4       5 LYP4        0.0000 
     54 N          34.7755    8.5545   10.9150 N.am      1 SEC2        0.0000 
     55 N          35.2140    8.1330   12.3210 N.am      7 SEL2        0.0000 
     56 N          34.3370    8.9760    9.5090 N.am      4 SEP2        0.0000 
     57 N          34.7325    7.4265   10.8370 N.am      1 SEC2        0.0000 
     58 N          34.2510    6.7200    9.3530 N.am      4 SEP2        0.0000 
     59 NZ         33.7545    6.8475   14.7780 N.4       2 LYC4        0.0000 
     60 NZ         34.7390    6.6740   13.9090 N.4       8 LYL4        0.0000 
     61 NZ         32.7700    7.0210   15.6470 N.4       5 LYP4        0.0000 
     62 CA         43.7215   13.7223   13.6092 C.3       3 GLC5        0.0000 
     63 CA         42.2810   14.8420   14.3530 C.3       9 GLL5        0.0000 
     64 CA         44.6230   12.4650   12.4460 C.3       6 GLP5        0.0000 
     65 CA         44.1025   12.9825   14.2592 C.3       3 GLC5        0.0000 
     66 CA         43.2930   12.8630   16.0950 C.3       9 GLL5        0.0000 
     67 CA         43.2094   12.3075   13.7677 C.3       3 GLC5        0.0000 
     68 CA         40.6822    4.9823   12.2468 C.3       3 GLC5        0.0000 
     69 CA         38.8660    5.5500   12.6100 C.3       9 GLL5        0.0000 
     70 CA         42.1250    4.2190   11.3290 C.3       6 GLP5        0.0000 
     71 CA         37.9419    7.0005   11.2934 C.3       3 GLC5        0.0000 
     72 CA         37.8170    8.0230    9.8140 C.3       6 GLP5        0.0000 
@<TRIPOS>BOND
@<TRIPOS>SUBSTRUCTURE
     1 SEC2        4 GROUP        1 X    SEC  0     ROOT SEC X 2
     2 LYC4        1 GROUP        1 X    LYC  0     **** LYC X 4
     3 GLC5       23 GROUP        1 X    GLC  0     **** GLC X 6
     4 SEP2        6 GROUP        1 Y    SEP  0     ROOT SEP Y 9
     5 LYP4        3 GROUP        1 Y    LYP  0     **** LYP Y 11
     6 GLP5       25 GROUP        1 Y    GLP  0     **** GLP Y 13
     7 SEL2        5 GROUP        1 Z    SEL  0     ROOT SEL Z 16
     8 LYL4        2 GROUP        1 Z    LYL  0     **** LYL Z 18
     9 GLL5       24 GROUP        1 Z    GLL  0     **** GLL Z 20
@<TRIPOS>SET

