#    Name: 2f71_UN7_1_ligand
#    Modification time : Tue Mar 25 12:20:28 2014

@<TRIPOS>MOLECULE
2f71_UN7_1_ligand
   53    55     1     0     0
SMALL
NO_CHARGES


@<TRIPOS>ATOM
      1 O53        41.5150   16.9390   11.3980 O.co2     1 UN7608      0.0000 
      2 S33        42.4310   15.9710   12.0000 S.o2      1 UN7608      0.0000 
      3 O51        42.3620   14.6510   11.3360 O.co2     1 UN7608      0.0000 
      4 O52        43.7990   16.4410   12.1400 O.co2     1 UN7608      0.0000 
      5 N9         41.7570   15.7350   13.4570 N.pl3     1 UN7608      0.0000 
      6 C5         42.2810   14.8420   14.3530 C.ar      1 UN7608      0.0000 
      7 C4         43.3590   15.1170   15.1920 C.ar      1 UN7608      0.0000 
      8 C2         41.7350   13.5610   14.4090 C.ar      1 UN7608      0.0000 
      9 C6         42.2260   12.5910   15.2790 C.ar      1 UN7608      0.0000 
     10 C3         43.2930   12.8630   16.0950 C.ar      1 UN7608      0.0000 
     11 C7         43.7810   11.7700   17.0300 C.3       1 UN7608      0.0000 
     12 C1         43.8710   14.1370   16.0500 C.ar      1 UN7608      0.0000 
     13 C19        41.6110   11.2240   15.3350 C.3       1 UN7608      0.0000 
     14 N15        41.8800   10.4400   16.5350 N.am      1 UN7608      0.0000 
     15 C13        42.6140   10.9920   17.6800 C.3       1 UN7608      0.0000 
     16 C16        41.7320   11.8860   18.5090 C.2       1 UN7608      0.0000 
     17 N27        40.4270   11.7160   18.4000 N.am      1 UN7608      0.0000 
     18 C28        39.4050   12.4840   19.0980 C.3       1 UN7608      0.0000 
     19 O26        42.1830   12.7750   19.2110 O.2       1 UN7608      0.0000 
     20 C20        41.4280    9.1810   16.6110 C.2       1 UN7608      0.0000 
     21 O21        41.6650    8.5230   17.6300 O.2       1 UN7608      0.0000 
     22 C22        40.6810    8.4600   15.5040 C.3       1 UN7608      0.0000 
     23 C25        39.9190    7.1810   15.8530 C.3       1 UN7608      0.0000 
     24 C35        39.0500    6.7600   14.6890 C.ar      1 UN7608      0.0000 
     25 C39        37.7340    7.1950   14.5210 C.ar      1 UN7608      0.0000 
     26 C42        36.9790    6.8250   13.4060 C.ar      1 UN7608      0.0000 
     27 C46        35.5620    7.2660   13.1680 C.2       1 UN7608      0.0000 
     28 O49        35.2140    8.1330   12.3210 O.co2     1 UN7608      0.0000 
     29 O48        34.7390    6.6740   13.9090 O.co2     1 UN7608      0.0000 
     30 C38        37.5560    5.9870   12.4650 C.ar      1 UN7608      0.0000 
     31 C41        38.8660    5.5500   12.6100 C.ar      1 UN7608      0.0000 
     32 C40        39.6130    5.9410   13.7190 C.ar      1 UN7608      0.0000 
     33 H          40.9381   16.3092   13.6049 H         1 UN7608      0.0000 
     34 H          43.7881   16.0565   15.1826 H         1 UN7608      0.0000 
     35 H          40.9386   13.3234   13.7833 H         1 UN7608      0.0000 
     36 H          44.3902   12.2111   17.8243 H         1 UN7608      0.0000 
     37 H          44.4040   11.0628   16.4747 H         1 UN7608      0.0000 
     38 H          44.6765   14.3541   16.6509 H         1 UN7608      0.0000 
     39 H          41.9453   10.6533   14.4262 H         1 UN7608      0.0000 
     40 H          40.5012   11.3344   15.1949 H         1 UN7608      0.0000 
     41 H          43.0279   10.2069   18.2636 H         1 UN7608      0.0000 
     42 H          40.0315   10.9581   17.7529 H         1 UN7608      0.0000 
     43 H          41.4063    8.2209   14.6797 H         1 UN7608      0.0000 
     44 H          39.9584    9.1797   15.0322 H         1 UN7608      0.0000 
     45 H          39.2985    7.3647   16.7266 H         1 UN7608      0.0000 
     46 H          40.6330    6.3936   16.0816 H         1 UN7608      0.0000 
     47 H          37.3070    7.8073   15.2411 H         1 UN7608      0.0000 
     48 H          37.0047    5.6825   11.6436 H         1 UN7608      0.0000 
     49 H          39.2870    4.9372   11.8993 H         1 UN7608      0.0000 
     50 H          40.5868    5.6202   13.8181 H         1 UN7608      0.0000 
     51 H          39.4958   12.4068   20.0909 H         1 UN7608      0.0000 
     52 H          39.4541   13.4573   18.8740 H         1 UN7608      0.0000 
     53 H          38.4833   12.1753   18.8631 H         1 UN7608      0.0000 
@<TRIPOS>BOND
     1    2    1 ar   
     2    3    2 ar   
     3    4    2 ar   
     4    5    2 1    
     5    6    5 1    
     6   33    5 1    
     7    7    6 ar   
     8    8    6 ar   
     9   12    7 ar   
    10   34    7 1    
    11    9    8 ar   
    12   35    8 1    
    13   10    9 ar   
    14   13    9 1    
    15   11   10 1    
    16   12   10 ar   
    17   15   11 1    
    18   36   11 1    
    19   37   11 1    
    20   38   12 1    
    21   14   13 1    
    22   39   13 1    
    23   40   13 1    
    24   15   14 1    
    25   20   14 am   
    26   16   15 1    
    27   41   15 1    
    28   17   16 am   
    29   19   16 2    
    30   18   17 1    
    31   42   17 1    
    32   51   18 1    
    33   52   18 1    
    34   53   18 1    
    35   21   20 2    
    36   22   20 1    
    37   23   22 1    
    38   43   22 1    
    39   44   22 1    
    40   24   23 1    
    41   45   23 1    
    42   46   23 1    
    43   25   24 ar   
    44   32   24 ar   
    45   26   25 ar   
    46   47   25 1    
    47   27   26 1    
    48   30   26 ar   
    49   28   27 ar   
    50   29   27 ar   
    51   31   30 ar   
    52   48   30 1    
    53   32   31 ar   
    54   49   31 1    
    55   50   32 1    
@<TRIPOS>SUBSTRUCTURE
     1 UN7608      1 GROUP   
@<TRIPOS>SET

