#    Name: 3zxz_KRW_1_INTS_M
#    Modification time : Tue Mar 25 04:39:35 2014

@<TRIPOS>MOLECULE
3zxz_KRW_1_INTS_M
   68     0     9     0     0
SMALL
NO_CHARGES


@<TRIPOS>ATOM
      1 O          15.0520   77.8540   -1.5855 O.2       1 ALC1        0.0000 
      2 O          16.3110   78.7530   -1.1750 O.2       7 ALL1        0.0000 
      3 O          13.7930   76.9550   -1.9960 O.2       4 ALP1        0.0000 
      4 CA         15.5490   81.0800    1.2545 C.3       3 GLC5        0.0000 
      5 CA         16.4420   79.6810   -0.1180 C.3       9 GLL5        0.0000 
      6 CA         14.6560   82.4790    2.6270 C.3       6 GLP5        0.0000 
      7 CA         14.7325   79.1585   -0.2965 C.3       3 GLC5        0.0000 
      8 CA         13.0230   78.6360   -0.4750 C.3       6 GLP5        0.0000 
      9 N          17.3835   82.5950    9.5885 N.am      2 SEC2        0.0000 
     10 N          18.0910   83.3650    8.5540 N.am      8 SEL2        0.0000 
     11 N          16.6760   81.8250   10.6230 N.am      5 SEP2        0.0000 
     12 CA         18.7025   81.9135    8.8750 C.3       3 GLC5        0.0000 
     13 CA         18.0220   82.7610    7.2720 C.3       9 GLL5        0.0000 
     14 CA         19.3830   81.0660   10.4780 C.3       6 GLP5        0.0000 
     15 CA         16.4110   81.9260    8.2385 C.3       3 GLC5        0.0000 
     16 CA         14.8000   81.0910    9.2050 C.3       6 GLP5        0.0000 
     17 CA         17.2850   79.5035    6.4730 C.3       3 GLC5        0.0000 
     18 CA         17.7020   81.2420    5.5810 C.3       9 GLL5        0.0000 
     19 CA         16.8680   77.7650    7.3650 C.3       6 GLP5        0.0000 
     20 CA         18.7505   87.3095    4.9765 C.3       3 GLC5        0.0000 
     21 CA         19.1850   86.1050    6.5720 C.3       9 GLL5        0.0000 
     22 CA         18.3160   88.5140    3.3810 C.3       6 GLP5        0.0000 
     23 CA         17.3190   85.7510    6.1305 C.3       3 GLC5        0.0000 
     24 CA         15.4530   85.3970    5.6890 C.3       6 GLP5        0.0000 
     25 CA         23.2340   87.3605    3.3015 C.3       3 GLC5        0.0000 
     26 CA         22.3790   85.6550    4.3760 C.3       9 GLL5        0.0000 
     27 CA         24.0890   89.0660    2.2270 C.3       6 GLP5        0.0000 
     28 CA         22.8860   87.1510    2.0855 C.3       3 GLC5        0.0000 
     29 CA         22.7600   85.4320    3.0160 C.3       9 GLL5        0.0000 
     30 CA         23.0120   88.8700    1.1550 C.3       6 GLP5        0.0000 
     31 CA         26.2190   84.5730    5.2170 C.3       3 GLC5        0.0000 
     32 CA         25.1060   85.4560    3.7370 C.3       9 GLL5        0.0000 
     33 CA         27.3320   83.6900    6.6970 C.3       6 GLP5        0.0000 
     34 N          25.9170   85.3980    5.8840 N.am      2 SEC2        0.0000 
     35 N          24.7620   85.6690    5.0460 N.am      8 SEL2        0.0000 
     36 N          27.0720   85.1270    6.7220 N.am      5 SEP2        0.0000 
     37 CA         24.7310   84.3395    6.1270 C.3       3 GLC5        0.0000 
     38 CA         23.4380   85.7660    5.3640 C.3       9 GLL5        0.0000 
     39 CA         26.0240   82.9130    6.8900 C.3       6 GLP5        0.0000 
     40 CA         24.2170   84.5765    7.4880 C.3       3 GLC5        0.0000 
     41 CA         23.0740   85.9860    6.7340 C.3       9 GLL5        0.0000 
     42 CA         25.3600   83.1670    8.2420 C.3       6 GLP5        0.0000 
     43 CA         19.4112   79.8550    3.0750 C.3       3 GLC5        0.0000 
     44 CA         18.1620   81.9200    3.1640 C.3       9 GLL5        0.0000 
     45 CA         20.8110   78.3860    3.3150 C.3       6 GLP5        0.0000 
     46 CA         16.3338   81.9015    2.7310 C.3       3 GLC5        0.0000 
     47 CA         17.8610   80.7280    2.5060 C.3       9 GLL5        0.0000 
     48 CA         16.2810   82.1052    3.8667 C.3       3 GLC5        0.0000 
     49 CA         18.1100   82.2210    4.6320 C.3       9 GLL5        0.0000 
     50 CA         19.7835   82.0985    6.4552 C.3       3 GLC5        0.0000 
     51 CA         18.4140   83.6950    6.3690 C.3       9 GLL5        0.0000 
     52 CA         21.3490   80.9690    6.0900 C.3       6 GLP5        0.0000 
     53 CA         19.6340   81.3126    5.4147 C.3       3 GLC5        0.0000 
     54 CA         21.6720   83.9485    5.3428 C.3       3 GLC5        0.0000 
     55 CA         20.6520   85.9880    6.1520 C.3       9 GLL5        0.0000 
     56 CA         22.5140   82.0200    5.2220 C.3       6 GLP5        0.0000 
     57 CA         21.1298   87.5600    4.3084 C.3       3 GLC5        0.0000 
     58 CA         20.6550   89.3540    3.6970 C.3       6 GLP5        0.0000 
     59 CA         23.3017   87.4963    5.5590 C.3       3 GLC5        0.0000 
     60 CA         23.6950   89.2820    6.2480 C.3       6 GLP5        0.0000 
     61 CA         24.3575   87.2295    2.7195 C.3       3 GLC5        0.0000 
     62 CA         24.1460   85.3300    2.6870 C.3       9 GLL5        0.0000 
     63 CA         22.9359   83.7284    4.2067 C.3       3 GLC5        0.0000 
     64 CA         22.8850   83.9480    5.6355 C.3       3 GLC5        0.0000 
     65 CA         22.9099   87.6480    6.4670 C.3       3 GLC5        0.0000 
     66 CA         20.2444   87.2821    8.1790 C.3       3 GLC5        0.0000 
     67 CA         21.6990   86.0960    7.1240 C.3       9 GLL5        0.0000 
     68 CA         19.6800   88.4930    9.6150 C.3       6 GLP5        0.0000 
@<TRIPOS>BOND
@<TRIPOS>SUBSTRUCTURE
     1 ALC1        1 GROUP        1 X    ALC  0     ROOT ALC X 1
     2 SEC2        9 GROUP        1 X    SEC  0     **** SEC X 2
     3 GLC5        4 GROUP        1 X    GLC  0     **** GLC X 6
     4 ALP1        3 GROUP        1 Y    ALP  0     ROOT ALP Y 8
     5 SEP2       11 GROUP        1 Y    SEP  0     **** SEP Y 9
     6 GLP5        6 GROUP        1 Y    GLP  0     **** GLP Y 13
     7 ALL1        2 GROUP        1 Z    ALL  0     ROOT ALL Z 15
     8 SEL2       10 GROUP        1 Z    SEL  0     **** SEL Z 16
     9 GLL5        5 GROUP        1 Z    GLL  0     **** GLL Z 20
@<TRIPOS>SET

