#    Name: 3zxz_KRW_1_ligand
#    Modification time : Tue Mar 25 04:39:35 2014

@<TRIPOS>MOLECULE
3zxz_KRW_1_ligand
   44    48     1     0     0
SMALL
NO_CHARGES


@<TRIPOS>ATOM
      1 O28        16.3110   78.7530   -1.1750 O.3       1 KRW2345     0.0000 
      2 C27        16.4420   79.6810   -0.1180 C.3       1 KRW2345     0.0000 
      3 C26        17.9130   80.0570    0.0670 C.3       1 KRW2345     0.0000 
      4 N12        18.0880   81.0210    1.1560 N.pl3     1 KRW2345     0.0000 
      5 C11        17.8610   80.7280    2.5060 C.2       1 KRW2345     0.0000 
      6 N13        18.4760   82.2330    0.9630 N.2       1 KRW2345     0.0000 
      7 C14        18.5500   82.8410    2.0990 C.2       1 KRW2345     0.0000 
      8 C10        18.1620   81.9200    3.1640 C.2       1 KRW2345     0.0000 
      9 C1         18.1100   82.2210    4.6320 C.ar      1 KRW2345     0.0000 
     10 N4         18.4760   83.4880    5.0310 N.ar      1 KRW2345     0.0000 
     11 C5         18.4140   83.6950    6.3690 C.ar      1 KRW2345     0.0000 
     12 N9         18.7100   84.8240    7.1140 N.pl3     1 KRW2345     0.0000 
     13 N8         18.5060   84.5780    8.3670 N.2       1 KRW2345     0.0000 
     14 N7         18.0910   83.3650    8.5540 N.2       1 KRW2345     0.0000 
     15 C6         18.0220   82.7610    7.2720 C.ar      1 KRW2345     0.0000 
     16 N3         17.6500   81.5030    6.9290 N.ar      1 KRW2345     0.0000 
     17 C2         17.7020   81.2420    5.5810 C.ar      1 KRW2345     0.0000 
     18 C          19.1850   86.1050    6.5720 C.3       1 KRW2345     0.0000 
     19 C16        20.6520   85.9880    6.1520 C.ar      1 KRW2345     0.0000 
     20 C19        21.0080   85.7660    4.7750 C.ar      1 KRW2345     0.0000 
     21 C20        22.3790   85.6550    4.3760 C.ar      1 KRW2345     0.0000 
     22 C25        22.7600   85.4320    3.0160 C.ar      1 KRW2345     0.0000 
     23 C24        24.1460   85.3300    2.6870 C.ar      1 KRW2345     0.0000 
     24 C23        25.1060   85.4560    3.7370 C.ar      1 KRW2345     0.0000 
     25 N22        24.7620   85.6690    5.0460 N.ar      1 KRW2345     0.0000 
     26 C21        23.4380   85.7660    5.3640 C.ar      1 KRW2345     0.0000 
     27 C18        23.0740   85.9860    6.7340 C.ar      1 KRW2345     0.0000 
     28 C17        21.6990   86.0960    7.1240 C.ar      1 KRW2345     0.0000 
     29 H          16.0834   79.2739    0.8376 H         1 KRW2345     0.0000 
     30 H          15.8865   80.6093   -0.3104 H         1 KRW2345     0.0000 
     31 H          18.2821   80.4709   -0.8815 H         1 KRW2345     0.0000 
     32 H          18.4785   79.1367    0.2680 H         1 KRW2345     0.0000 
     33 H          17.5792   79.9338    2.8703 H         1 KRW2345     0.0000 
     34 H          18.8066   83.7460    2.3112 H         1 KRW2345     0.0000 
     35 H          17.4376   80.3007    5.2202 H         1 KRW2345     0.0000 
     36 H          19.1040   86.8962    7.3207 H         1 KRW2345     0.0000 
     37 H          18.5994   86.3965    5.6972 H         1 KRW2345     0.0000 
     38 H          20.2699   85.6869    4.0747 H         1 KRW2345     0.0000 
     39 H          22.0561   85.3476    2.2964 H         1 KRW2345     0.0000 
     40 H          24.4391   85.1732    1.7388 H         1 KRW2345     0.0000 
     41 H          26.1164   85.3782    3.4686 H         1 KRW2345     0.0000 
     42 H          23.8057   86.0654    7.4417 H         1 KRW2345     0.0000 
     43 H          21.4640   86.2527    8.1033 H         1 KRW2345     0.0000 
     44 H          15.3356   78.5351   -1.2085 H         1 KRW2345     0.0000 
@<TRIPOS>BOND
     1    2    1 1    
     2   44    1 1    
     3    3    2 1    
     4   29    2 1    
     5   30    2 1    
     6    4    3 1    
     7   31    3 1    
     8   32    3 1    
     9    5    4 1    
    10    6    4 1    
    11    8    5 2    
    12   33    5 1    
    13    7    6 2    
    14    8    7 1    
    15   34    7 1    
    16    9    8 1    
    17   10    9 ar   
    18   17    9 ar   
    19   11   10 ar   
    20   12   11 1    
    21   15   11 ar   
    22   13   12 1    
    23   18   12 1    
    24   14   13 2    
    25   15   14 1    
    26   16   15 ar   
    27   17   16 ar   
    28   35   17 1    
    29   19   18 1    
    30   36   18 1    
    31   37   18 1    
    32   20   19 ar   
    33   28   19 ar   
    34   21   20 ar   
    35   38   20 1    
    36   22   21 ar   
    37   26   21 ar   
    38   23   22 ar   
    39   39   22 1    
    40   24   23 ar   
    41   40   23 1    
    42   25   24 ar   
    43   41   24 1    
    44   26   25 ar   
    45   27   26 ar   
    46   28   27 ar   
    47   42   27 1    
    48   43   28 1    
@<TRIPOS>SUBSTRUCTURE
     1 KRW2345     1 GROUP   
@<TRIPOS>SET

