#    Name: 2zgx_29U_1_INTS_M
#    Modification time : Tue Mar 25 10:43:20 2014

@<TRIPOS>MOLECULE
2zgx_29U_1_INTS_M
   62     0    12     0     0
SMALL
NO_CHARGES


@<TRIPOS>ATOM
      1 O          15.1715  -14.9705   23.7705 O.2       1 ALC1        0.0000 
      2 O          16.0930  -15.7440   23.0790 O.2       9 ALL1        0.0000 
      3 O          14.2500  -14.1970   24.4620 O.2       5 ALP1        0.0000 
      4 N          15.5275  -12.3510   23.8535 N.am      2 SEC2        0.0000 
      5 N          16.4680  -13.0330   22.7690 N.am     10 SEL2        0.0000 
      6 N          14.5870  -11.6690   24.9380 N.am      6 SEP2        0.0000 
      7 CA         16.3950  -15.5675   26.3560 C.3       4 GLC5        0.0000 
      8 CA         17.6350  -14.8790   24.7110 C.3      12 GLL5        0.0000 
      9 CA         15.1550  -16.2560   28.0010 C.3       8 GLP5        0.0000 
     10 CA         19.1710  -14.8525   27.0970 C.3       4 GLC5        0.0000 
     11 CA         18.9730  -14.4490   25.3430 C.3      12 GLL5        0.0000 
     12 CA         19.3690  -15.2560   28.8510 C.3       8 GLP5        0.0000 
     13 CA         17.8385  -11.2290   22.8185 C.3       4 GLC5        0.0000 
     14 CA         18.3270  -12.0220   21.0170 C.3      12 GLL5        0.0000 
     15 CA         17.3500  -10.4360   24.6200 C.3       8 GLP5        0.0000 
     16 CA         19.3390  -10.4030   19.0110 C.3       4 GLC5        0.0000 
     17 CA         19.4930  -12.0770   19.9820 C.3      12 GLL5        0.0000 
     18 CA         19.1850   -8.7290   18.0400 C.3       8 GLP5        0.0000 
     19 O          16.7215   -9.6470   21.2650 O.2       1 ALC1        0.0000 
     20 O          16.3710  -10.7240   20.3370 O.2       9 ALL1        0.0000 
     21 O          17.0720   -8.5700   22.1930 O.2       5 ALP1        0.0000 
     22 CA         15.2135   -8.8685   18.4085 C.3       4 GLC5        0.0000 
     23 CA         15.0790  -10.6370   19.6650 C.3      12 GLL5        0.0000 
     24 CA         15.3480   -7.1000   17.1520 C.3       8 GLP5        0.0000 
     25 OD1         9.3500   -9.4565   25.0550 O.co2     3 ASC3        0.0000 
     26 OD1        10.8810  -10.6450   23.8790 O.co2    11 ASL3        0.0000 
     27 OD1         8.0520   -9.3630   25.5540 O.co2     7 ASP3        0.0000 
     28 OD1         9.0365  -11.6430   24.8765 O.co2     3 ASC3        0.0000 
     29 OD1         7.8670  -11.5230   25.6540 O.co2     7 ASP3        0.0000 
     30 O           9.0365  -11.6430   24.8765 O.2       1 ALC1        0.0000 
     31 O          10.2060  -11.7630   24.0990 O.2       9 ALL1        0.0000 
     32 O           7.8670  -11.5230   25.6540 O.2       5 ALP1        0.0000 
     33 O          10.2990  -13.2145   24.0235 O.2       1 ALC1        0.0000 
     34 O          10.3920  -14.6660   23.9480 O.2       5 ALP1        0.0000 
     35 O           9.3500   -9.4565   25.0550 O.2       1 ALC1        0.0000 
     36 O          10.6480   -9.5500   24.5560 O.2       9 ALL1        0.0000 
     37 O           8.0520   -9.3630   25.5540 O.2       5 ALP1        0.0000 
     38 CA         10.7130   -8.2250   22.1155 C.3       4 GLC5        0.0000 
     39 CA         12.4210   -9.4500   22.1480 C.3      12 GLL5        0.0000 
     40 CA          9.0050   -7.0000   22.0830 C.3       8 GLP5        0.0000 
     41 CA         17.6940  -13.3790   26.2765 C.3       4 GLC5        0.0000 
     42 CA         17.0840  -12.0940   27.5260 C.3       8 GLP5        0.0000 
     43 CA         21.8262  -13.7110   20.3585 C.3       4 GLC5        0.0000 
     44 CA         20.4710  -13.0420   20.6980 C.3      12 GLL5        0.0000 
     45 CA         23.6530  -13.8170   19.7720 C.3       8 GLP5        0.0000 
     46 CA         20.1973  -11.1594   21.7514 C.3       4 GLC5        0.0000 
     47 CA         20.7040   -9.7730   22.9040 C.3       8 GLP5        0.0000 
     48 CA         19.2600  -14.3059   19.2170 C.3       4 GLC5        0.0000 
     49 CA         18.7650  -15.2480   17.6680 C.3       8 GLP5        0.0000 
     50 CA         14.8925  -10.5628   22.6175 C.3       4 GLC5        0.0000 
     51 CA         13.5860  -11.8300   21.3540 C.3      12 GLL5        0.0000 
     52 CA         15.9960   -9.8910   24.1790 C.3       8 GLP5        0.0000 
     53 CA         14.1525  -10.5693   23.3615 C.3       4 GLC5        0.0000 
     54 CA         12.0120  -10.6500   22.7480 C.3      12 GLL5        0.0000 
     55 CA         13.0530  -11.7769   24.0232 C.3       4 GLC5        0.0000 
     56 CA         13.5520  -12.3100   25.7490 C.3       8 GLP5        0.0000 
     57 CA         10.6850  -10.5519   21.1295 C.3       4 GLC5        0.0000 
     58 CA         12.6060  -11.8450   22.3400 C.3      12 GLL5        0.0000 
     59 CA          9.0050  -10.7550   19.9130 C.3       8 GLP5        0.0000 
     60 CA         12.6732   -7.6747   21.4635 C.3       4 GLC5        0.0000 
     61 CA         12.4340   -5.9030   21.2730 C.3       8 GLP5        0.0000 
     62 CA         14.4543   -9.6687   22.9165 C.3       4 GLC5        0.0000 
@<TRIPOS>BOND
@<TRIPOS>SUBSTRUCTURE
     1 ALC1        1 GROUP        1 X    ALC  0     ROOT ALC X 1
     2 SEC2        4 GROUP        1 X    SEC  0     **** SEC X 2
     3 ASC3       25 GROUP        1 X    ASC  0     **** ASC X 3
     4 GLC5        7 GROUP        1 X    GLC  0     **** GLC X 6
     5 ALP1        3 GROUP        1 Y    ALP  0     ROOT ALP Y 8
     6 SEP2        6 GROUP        1 Y    SEP  0     **** SEP Y 9
     7 ASP3       27 GROUP        1 Y    ASP  0     **** ASP Y 10
     8 GLP5        9 GROUP        1 Y    GLP  0     **** GLP Y 13
     9 ALL1        2 GROUP        1 Z    ALL  0     ROOT ALL Z 15
    10 SEL2        5 GROUP        1 Z    SEL  0     **** SEL Z 16
    11 ASL3       26 GROUP        1 Z    ASL  0     **** ASL Z 17
    12 GLL5        8 GROUP        1 Z    GLL  0     **** GLL Z 20
@<TRIPOS>SET

