#    Name: 2zgx_29U_1_ligand
#    Modification time : Tue Mar 25 10:43:20 2014

@<TRIPOS>MOLECULE
2zgx_29U_1_ligand
   51    52     1     0     0
SMALL
NO_CHARGES


@<TRIPOS>ATOM
      1 N13        16.0930  -15.7440   23.0790 N.4       1 29U1601     0.0000 
      2 C5         17.4220  -15.1030   23.1790 C.3       1 29U1601     0.0000 
      3 C14        17.4360  -13.7490   22.4880 C.2       1 29U1601     0.0000 
      4 O32        16.4680  -13.0330   22.7690 O.2       1 29U1601     0.0000 
      5 C33        17.6350  -14.8790   24.7110 C.3       1 29U1601     0.0000 
      6 C48        18.9730  -14.4490   25.3430 C.3       1 29U1601     0.0000 
      7 N1         18.4130  -13.3300   21.6440 N.am      1 29U1601     0.0000 
      8 C1         18.3270  -12.0220   21.0170 C.3       1 29U1601     0.0000 
      9 C7         17.0180  -11.9110   20.2720 C.2       1 29U1601     0.0000 
     10 O22        16.6340  -12.8750   19.6440 O.2       1 29U1601     0.0000 
     11 C2         19.4930  -12.0770   19.9820 C.3       1 29U1601     0.0000 
     12 C3         20.4710  -13.0420   20.6980 C.3       1 29U1601     0.0000 
     13 C4         19.5280  -14.1680   21.1920 C.3       1 29U1601     0.0000 
     14 N23        16.3710  -10.7240   20.3370 N.am      1 29U1601     0.0000 
     15 C24        15.0790  -10.6370   19.6650 C.3       1 29U1601     0.0000 
     16 C25        13.9920  -10.6390   20.7580 C.ar      1 29U1601     0.0000 
     17 C30        13.5860  -11.8300   21.3540 C.ar      1 29U1601     0.0000 
     18 C29        12.6060  -11.8450   22.3400 C.ar      1 29U1601     0.0000 
     19 C28        12.0120  -10.6500   22.7480 C.ar      1 29U1601     0.0000 
     20 C21        10.8810  -10.6450   23.8790 C.cat     1 29U1601     0.0000 
     21 N46        10.2060  -11.7630   24.0990 N.pl3     1 29U1601     0.0000 
     22 N47        10.6480   -9.5500   24.5560 N.pl3     1 29U1601     0.0000 
     23 C27        12.4210   -9.4500   22.1480 C.ar      1 29U1601     0.0000 
     24 C26        13.4040   -9.4430   21.1600 C.ar      1 29U1601     0.0000 
     25 H          18.1826  -15.7240   22.8284 H         1 29U1601     0.0000 
     26 H          17.2931  -15.8369   25.2378 H         1 29U1601     0.0000 
     27 H          16.8337  -14.1355   25.0529 H         1 29U1601     0.0000 
     28 H          18.4876  -11.2501   21.6692 H         1 29U1601     0.0000 
     29 H          19.9261  -11.1321   19.8968 H         1 29U1601     0.0000 
     30 H          19.1513  -12.5106   19.0972 H         1 29U1601     0.0000 
     31 H          20.9049  -12.5576   21.5228 H         1 29U1601     0.0000 
     32 H          21.1540  -13.4332   20.0025 H         1 29U1601     0.0000 
     33 H          19.2639  -14.7631   20.3739 H         1 29U1601     0.0000 
     34 H          19.9915  -14.6649   21.9866 H         1 29U1601     0.0000 
     35 H          16.7206   -9.9128   20.8120 H         1 29U1601     0.0000 
     36 H          14.9097  -11.4881   19.0204 H         1 29U1601     0.0000 
     37 H          14.9871   -9.7196   19.1006 H         1 29U1601     0.0000 
     38 H          14.0231  -12.7216   21.0564 H         1 29U1601     0.0000 
     39 H          12.3182  -12.7324   22.7686 H         1 29U1601     0.0000 
     40 H           9.5401  -11.7355   24.8446 H         1 29U1601     0.0000 
     41 H          10.4233  -12.5334   23.4996 H         1 29U1601     0.0000 
     42 H           9.9462   -9.6123   25.2656 H         1 29U1601     0.0000 
     43 H          11.1931   -8.7511   24.3017 H         1 29U1601     0.0000 
     44 H          11.9860   -8.5625   22.4447 H         1 29U1601     0.0000 
     45 H          13.6934   -8.5568   20.7299 H         1 29U1601     0.0000 
     46 H          15.8241  -15.8950   22.1277 H         1 29U1601     0.0000 
     47 H          16.0750  -16.6345   23.5336 H         1 29U1601     0.0000 
     48 H          15.3786  -15.1854   23.5003 H         1 29U1601     0.0000 
     49 H          19.6995  -15.1117   25.1614 H         1 29U1601     0.0000 
     50 H          19.2850  -13.5676   24.9884 H         1 29U1601     0.0000 
     51 H          18.9020  -14.3568   26.3362 H         1 29U1601     0.0000 
@<TRIPOS>BOND
     1    2    1 1    
     2   46    1 1    
     3   47    1 1    
     4   48    1 1    
     5    3    2 1    
     6    5    2 1    
     7   25    2 1    
     8    4    3 2    
     9    7    3 am   
    10    6    5 1    
    11   26    5 1    
    12   27    5 1    
    13   49    6 1    
    14   50    6 1    
    15   51    6 1    
    16    8    7 1    
    17   13    7 1    
    18    9    8 1    
    19   11    8 1    
    20   28    8 1    
    21   10    9 2    
    22   14    9 am   
    23   12   11 1    
    24   29   11 1    
    25   30   11 1    
    26   13   12 1    
    27   31   12 1    
    28   32   12 1    
    29   33   13 1    
    30   34   13 1    
    31   15   14 1    
    32   35   14 1    
    33   16   15 1    
    34   36   15 1    
    35   37   15 1    
    36   17   16 ar   
    37   24   16 ar   
    38   18   17 ar   
    39   38   17 1    
    40   19   18 ar   
    41   39   18 1    
    42   20   19 1    
    43   23   19 ar   
    44   21   20 ar   
    45   22   20 ar   
    46   40   21 1    
    47   41   21 1    
    48   42   22 1    
    49   43   22 1    
    50   24   23 ar   
    51   44   23 1    
    52   45   24 1    
@<TRIPOS>SUBSTRUCTURE
     1 29U1601     1 GROUP   
@<TRIPOS>SET

