#    Name: 4imy_AMP_3_INTS_M
#    Modification time : Tue Mar 25 04:12:15 2014

@<TRIPOS>MOLECULE
4imy_AMP_3_INTS_M
   36     0     9     0     0
SMALL
NO_CHARGES


@<TRIPOS>ATOM
      1 N          12.9010    0.0650  107.4690 N.am      1 SEC2        0.0000 
      2 N          11.3310    0.1190  108.0270 N.am      7 SEL2        0.0000 
      3 N          14.4710    0.0110  106.9110 N.am      4 SEP2        0.0000 
      4 N          13.2325   -2.2670  106.1055 N.am      1 SEC2        0.0000 
      5 N          11.8780   -1.5960  106.2390 N.am      7 SEL2        0.0000 
      6 N          14.5870   -2.9380  105.9720 N.am      4 SEP2        0.0000 
      7 NZ          9.9200   -0.8245  104.3120 N.4       2 LYC4        0.0000 
      8 NZ          9.7320   -0.2490  106.0850 N.4       8 LYL4        0.0000 
      9 NZ         10.1080   -1.4000  102.5390 N.4       5 LYP4        0.0000 
     10 CA         13.1140    0.2050  104.9645 C.3       3 GLC5        0.0000 
     11 CA         11.6260    0.9640  104.3580 C.3       9 GLL5        0.0000 
     12 CA         14.6020   -0.5540  105.5710 C.3       6 GLP5        0.0000 
     13 CA         13.4570    2.9675  107.2835 C.3       3 GLC5        0.0000 
     14 CA         12.5540    3.8320  105.5880 C.3       9 GLL5        0.0000 
     15 CA         14.3600    2.1030  108.9790 C.3       6 GLP5        0.0000 
     16 CA          8.0415    3.0635  109.7155 C.3       3 GLC5        0.0000 
     17 CA          9.3390    4.5750  108.6910 C.3       9 GLL5        0.0000 
     18 CA          6.7440    1.5520  110.7400 C.3       6 GLP5        0.0000 
     19 CA          7.6290    6.1510  111.4590 C.3       3 GLC5        0.0000 
     20 CA          8.8670    5.5310  109.7090 C.3       9 GLL5        0.0000 
     21 CA          6.3910    6.7710  113.2090 C.3       6 GLP5        0.0000 
     22 CA          9.9465    6.5060  111.3365 C.3       3 GLC5        0.0000 
     23 CA         11.0260    7.4810  112.9640 C.3       6 GLP5        0.0000 
     24 CA          8.1515    8.2105  107.1190 C.3       3 GLC5        0.0000 
     25 CA          9.7220    7.2920  108.4010 C.3       9 GLL5        0.0000 
     26 CA          6.5810    9.1290  105.8370 C.3       6 GLP5        0.0000 
     27 CA         11.2050    6.1985  109.2860 C.3       3 GLC5        0.0000 
     28 CA         12.6880    5.1050  110.1710 C.3       6 GLP5        0.0000 
     29 CA          9.8613    0.8097  103.7302 C.3       3 GLC5        0.0000 
     30 CA         11.5910    2.4130  103.9390 C.3       9 GLL5        0.0000 
     31 CA          8.1140   -0.0690  103.3120 C.3       6 GLP5        0.0000 
     32 CA         13.8476    1.8672  104.7310 C.3       3 GLC5        0.0000 
     33 CA         15.3060    0.4130  104.6250 C.3       6 GLP5        0.0000 
     34 CA          7.3270    5.1750  108.9850 C.3       3 GLC5        0.0000 
     35 CA          5.5510    5.2970  108.7700 C.3       6 GLP5        0.0000 
     36 CA         11.1253    5.0973  109.2647 C.3       3 GLC5        0.0000 
@<TRIPOS>BOND
@<TRIPOS>SUBSTRUCTURE
     1 SEC2        1 GROUP        1 X    SEC  0     ROOT SEC X 2
     2 LYC4        7 GROUP        1 X    LYC  0     **** LYC X 4
     3 GLC5       10 GROUP        1 X    GLC  0     **** GLC X 6
     4 SEP2        3 GROUP        1 Y    SEP  0     ROOT SEP Y 9
     5 LYP4        9 GROUP        1 Y    LYP  0     **** LYP Y 11
     6 GLP5       12 GROUP        1 Y    GLP  0     **** GLP Y 13
     7 SEL2        2 GROUP        1 Z    SEL  0     ROOT SEL Z 16
     8 LYL4        8 GROUP        1 Z    LYL  0     **** LYL Z 18
     9 GLL5       11 GROUP        1 Z    GLL  0     **** GLL Z 20
@<TRIPOS>SET

