#    Name: 4imy_AMP_3_ligand
#    Modification time : Tue Mar 25 04:12:15 2014

@<TRIPOS>MOLECULE
4imy_AMP_3_ligand
   35    37     1     0     0
SMALL
NO_CHARGES


@<TRIPOS>ATOM
      1 P          11.1500   -0.3210  106.5940 P.3       1 AMP401      0.0000 
      2 O1P        11.3310    0.1190  108.0270 O.co2     1 AMP401      0.0000 
      3 O2P        11.8780   -1.5960  106.2390 O.co2     1 AMP401      0.0000 
      4 O3P         9.7320   -0.2490  106.0850 O.co2     1 AMP401      0.0000 
      5 O5'        11.8770    0.8200  105.7530 O.3       1 AMP401      0.0000 
      6 C5'        11.6260    0.9640  104.3580 C.3       1 AMP401      0.0000 
      7 C4'        11.5910    2.4130  103.9390 C.3       1 AMP401      0.0000 
      8 O4'        10.5210    3.0830  104.6570 O.3       1 AMP401      0.0000 
      9 C3'        12.8580    3.2090  104.2330 C.3       1 AMP401      0.0000 
     10 O3'        13.0330    4.2340  103.2530 O.3       1 AMP401      0.0000 
     11 C2'        12.5540    3.8320  105.5880 C.3       1 AMP401      0.0000 
     12 O2'        13.2940    4.9990  105.8750 O.3       1 AMP401      0.0000 
     13 C1'        11.0530    4.1110  105.4740 C.3       1 AMP401      0.0000 
     14 N9         10.3460    4.0730  106.7560 N.pl3     1 AMP401      0.0000 
     15 C8          9.9230    2.9470  107.3670 C.2       1 AMP401      0.0000 
     16 N7          9.3100    3.2410  108.5390 N.2       1 AMP401      0.0000 
     17 C5          9.3390    4.5750  108.6910 C.ar      1 AMP401      0.0000 
     18 C6          8.8670    5.5310  109.7090 C.ar      1 AMP401      0.0000 
     19 N6          8.2320    5.0790  110.8110 N.pl3     1 AMP401      0.0000 
     20 N1          9.0880    6.8480  109.5000 N.ar      1 AMP401      0.0000 
     21 C2          9.7220    7.2920  108.4010 C.ar      1 AMP401      0.0000 
     22 N3         10.1770    6.4710  107.4360 N.ar      1 AMP401      0.0000 
     23 C4         10.0220    5.1260  107.5170 C.ar      1 AMP401      0.0000 
     24 H          10.6597    0.5036  104.0737 H         1 AMP401      0.0000 
     25 H          12.4021    0.4536  103.7551 H         1 AMP401      0.0000 
     26 H          11.3894    2.4774  102.8751 H         1 AMP401      0.0000 
     27 H          13.6620    2.5519  104.3287 H         1 AMP401      0.0000 
     28 H          12.6623    3.0525  106.3278 H         1 AMP401      0.0000 
     29 H          10.9257    5.0666  104.9974 H         1 AMP401      0.0000 
     30 H          10.0411    2.0412  107.0149 H         1 AMP401      0.0000 
     31 H           7.3857    4.5702  110.6536 H         1 AMP401      0.0000 
     32 H           8.6643    5.2931  111.6869 H         1 AMP401      0.0000 
     33 H           9.8713    8.3390  108.2879 H         1 AMP401      0.0000 
     34 H          13.3045    5.0445  103.7720 H         1 AMP401      0.0000 
     35 H          12.6409    5.6191  106.3097 H         1 AMP401      0.0000 
@<TRIPOS>BOND
     1    2    1 ar   
     2    3    1 ar   
     3    4    1 ar   
     4    5    1 1    
     5    6    5 1    
     6    7    6 1    
     7   24    6 1    
     8   25    6 1    
     9    8    7 1    
    10    9    7 1    
    11   26    7 1    
    12   13    8 1    
    13   10    9 1    
    14   11    9 1    
    15   27    9 1    
    16   34   10 1    
    17   12   11 1    
    18   13   11 1    
    19   28   11 1    
    20   35   12 1    
    21   14   13 1    
    22   29   13 1    
    23   15   14 1    
    24   23   14 1    
    25   16   15 2    
    26   30   15 1    
    27   17   16 1    
    28   18   17 ar   
    29   23   17 ar   
    30   19   18 1    
    31   20   18 ar   
    32   31   19 1    
    33   32   19 1    
    34   21   20 ar   
    35   22   21 ar   
    36   33   21 1    
    37   23   22 ar   
@<TRIPOS>SUBSTRUCTURE
     1 AMP401      1 GROUP   
@<TRIPOS>SET

