#    Name: 2W0V_1_CAVITY_N1_ALL.mol2
#    Modification time : Mon Mar 10 18:31:48 2014

@<TRIPOS>MOLECULE
2W0V_1_CAVITY_N1_ALL.mol2
  122     0     6     0     0
SMALL
NO_CHARGES


@<TRIPOS>ATOM
      1 NZ         83.2551   33.5190   46.7435 N.2       3 LYS4        0.0000 
      2 CZ         84.6984   31.4658   45.1001 C.ar      4 PHE5        0.0000 
      3 NZ         82.8861   31.5014   46.2019 N.2       3 LYS4        0.0000 
      4 OG         85.4235   34.9370   44.1383 O.2       1 SER1        0.0000 
      5 OG         84.3328   33.9460   44.4184 O.2       1 SER1        0.0000 
      6 CZ         85.0545   32.9194   43.5967 C.ar      4 PHE5        0.0000 
      7 O          81.7988   35.0083   46.3420 O.2       2 ALA2        0.0000 
      8 OG         82.5205   33.9817   45.5203 O.2       1 SER1        0.0000 
      9 DU         83.2422   32.9551   44.6986 H         6 CUB7        0.0000 
     10 CZ         83.9639   31.9285   43.8768 C.ar      4 PHE5        0.0000 
     11 O          80.7081   34.0173   46.6222 O.2       2 ALA2        0.0000 
     12 NZ         81.4298   32.9907   45.8004 N.2       3 LYS4        0.0000 
     13 NZ         82.1515   31.9641   44.9787 N.2       3 LYS4        0.0000 
     14 NZ         80.3392   31.9998   46.0806 N.2       3 LYS4        0.0000 
     15 N          81.0608   30.9732   45.2588 N.2       2 ALA2        0.0000 
     16 OG         85.0579   37.4172   43.4567 O.2       1 SER1        0.0000 
     17 OG         85.7796   36.3906   42.6349 O.2       1 SER1        0.0000 
     18 OG         83.9672   36.4263   43.7368 O.2       1 SER1        0.0000 
     19 OG         84.6889   35.3997   42.9151 O.2       1 SER1        0.0000 
     20 CZ         85.4106   34.3731   42.0933 C.ar      4 PHE5        0.0000 
     21 OG         82.8765   35.4353   44.0169 O.2       1 SER1        0.0000 
     22 OG         83.5982   34.4087   43.1952 O.2       1 SER1        0.0000 
     23 CZ         84.3199   33.3821   42.3735 C.ar      4 PHE5        0.0000 
     24 O          81.0642   35.4710   45.1188 O.2       2 ALA2        0.0000 
     25 DU         81.7859   34.4444   44.2971 H         6 CUB7        0.0000 
     26 DU         82.5076   33.4178   43.4753 H         6 CUB7        0.0000 
     27 DU         83.2293   32.3912   42.6536 H         6 CUB7        0.0000 
     28 N          79.2519   35.5067   46.2207 N.2       2 ALA2        0.0000 
     29 N          79.9735   34.4800   45.3990 N.2       2 ALA2        0.0000 
     30 DU         80.6952   33.4534   44.5772 H         6 CUB7        0.0000 
     31 CZ         78.8829   33.4891   45.6791 C.ar      4 PHE5        0.0000 
     32 CZ         79.6046   32.4625   44.8574 C.ar      4 PHE5        0.0000 
     33 OG         84.3233   37.8799   42.2334 O.2       1 SER1        0.0000 
     34 OG         85.0450   36.8533   41.4117 O.2       1 SER1        0.0000 
     35 CA         83.2326   36.8890   42.5136 C.3       5 GLY6        0.0000 
     36 DU         83.9543   35.8624   41.6918 H         6 CUB7        0.0000 
     37 CA         84.6760   34.8358   40.8701 C.3       5 GLY6        0.0000 
     38 O          81.4203   36.9246   43.6154 O.2       2 ALA2        0.0000 
     39 DU         82.1420   35.8980   42.7937 H         6 CUB7        0.0000 
     40 DU         83.5853   33.8448   41.1502 H         6 CUB7        0.0000 
     41 N          80.3296   35.9337   43.8956 N.2       2 ALA2        0.0000 
     42 DU         81.0513   34.9071   43.0739 H         6 CUB7        0.0000 
     43 N          79.2389   34.9427   44.1757 N.2       2 ALA2        0.0000 
     44 DU         79.9606   33.9161   43.3540 H         6 CUB7        0.0000 
     45 DU         80.6823   32.8895   42.5323 H         6 CUB7        0.0000 
     46 CZ         78.1483   33.9518   44.4559 C.ar      4 PHE5        0.0000 
     47 CZ         78.8700   32.9252   43.6341 C.ar      4 PHE5        0.0000 
     48 OG         84.3104   37.3160   40.1885 O.2       1 SER1        0.0000 
     49 CA         82.4980   37.3517   41.2903 C.3       5 GLY6        0.0000 
     50 OG         83.2197   36.3251   40.4686 O.2       1 SER1        0.0000 
     51 CA         83.9414   35.2985   39.6469 C.3       5 GLY6        0.0000 
     52 O          80.6857   37.3874   42.3922 O.2       2 ALA2        0.0000 
     53 N          81.4074   36.3607   41.5705 N.2       2 ALA2        0.0000 
     54 DU         82.1290   35.3341   40.7488 H         6 CUB7        0.0000 
     55 DU         82.8507   34.3075   39.9270 H         6 CUB7        0.0000 
     56 N          79.5950   36.3964   42.6724 N.2       2 ALA2        0.0000 
     57 N          80.3167   35.3698   41.8506 N.2       2 ALA2        0.0000 
     58 N          78.5044   35.4055   42.9525 N.2       2 ALA2        0.0000 
     59 DU         79.2260   34.3788   42.1308 H         6 CUB7        0.0000 
     60 DU         79.9477   33.3522   41.3090 H         6 CUB7        0.0000 
     61 CZ         77.4137   34.4145   43.2326 C.ar      4 PHE5        0.0000 
     62 CZ         78.1354   33.3879   42.4109 C.ar      4 PHE5        0.0000 
     63 CZ         81.7634   37.8144   40.0671 C.ar      4 PHE5        0.0000 
     64 CZ         82.4851   36.7878   39.2454 C.ar      4 PHE5        0.0000 
     65 CZ         83.2068   35.7612   38.4237 C.ar      4 PHE5        0.0000 
     66 N          80.6728   36.8235   40.3473 N.2       2 ALA2        0.0000 
     67 DU         81.3945   35.7968   39.5255 H         6 CUB7        0.0000 
     68 DU         82.1161   34.7702   38.7038 H         6 CUB7        0.0000 
     69 DU         80.3038   34.8059   39.8057 H         6 CUB7        0.0000 
     70 CA         77.0481   36.8948   42.5510 C.3       5 GLY6        0.0000 
     71 N          77.7698   35.8682   41.7293 N.2       2 ALA2        0.0000 
     72 DU         78.4914   34.8416   40.9075 H         6 CUB7        0.0000 
     73 N          75.2357   36.9304   43.6529 N.2       2 ALA2        0.0000 
     74 N          75.9574   35.9038   42.8312 N.2       2 ALA2        0.0000 
     75 CZ         76.6791   34.8772   42.0094 C.ar      4 PHE5        0.0000 
     76 CZ         77.4008   33.8506   41.1877 C.ar      4 PHE5        0.0000 
     77 DU         78.1225   32.8240   40.3660 H         6 CUB7        0.0000 
     78 CA         74.1451   35.9395   43.9330 C.3       5 GLY6        0.0000 
     79 CZ         74.8668   34.9129   43.1113 C.ar      4 PHE5        0.0000 
     80 N          79.9382   37.2862   39.1240 N.2       2 ALA2        0.0000 
     81 CZ         80.6599   36.2595   38.3023 C.ar      4 PHE5        0.0000 
     82 CZ         81.3815   35.2329   37.4806 C.ar      4 PHE5        0.0000 
     83 N          78.8475   36.2952   39.4042 N.2       2 ALA2        0.0000 
     84 DU         79.5692   35.2686   38.5824 H         6 CUB7        0.0000 
     85 DU         80.2909   34.2420   37.7607 H         6 CUB7        0.0000 
     86 CA         76.3135   37.3575   41.3278 C.3       5 GLY6        0.0000 
     87 N          77.0352   36.3309   40.5061 N.2       2 ALA2        0.0000 
     88 N          77.7569   35.3043   39.6843 N.2       2 ALA2        0.0000 
     89 DU         78.4785   34.2776   38.8626 H         6 CUB7        0.0000 
     90 DU         79.2002   33.2510   38.0409 H         6 CUB7        0.0000 
     91 CA         74.5011   37.3931   42.4297 C.3       5 GLY6        0.0000 
     92 N          75.2228   36.3665   41.6079 N.2       2 ALA2        0.0000 
     93 N          75.9445   35.3399   40.7862 N.2       2 ALA2        0.0000 
     94 DU         76.6662   34.3133   39.9645 H         6 CUB7        0.0000 
     95 DU         77.3879   33.2867   39.1427 H         6 CUB7        0.0000 
     96 CA         73.4105   36.4022   42.7098 C.3       5 GLY6        0.0000 
     97 NZ         74.1322   35.3756   41.8881 N.2       3 LYS4        0.0000 
     98 NZ         74.8538   34.3490   41.0663 N.2       3 LYS4        0.0000 
     99 NZ         75.5755   33.3224   40.2446 N.2       3 LYS4        0.0000 
    100 OG         76.2972   32.2958   39.4229 O.2       1 SER1        0.0000 
    101 CA         72.3198   35.4112   42.9899 C.3       5 GLY6        0.0000 
    102 NZ         73.0415   34.3846   42.1682 N.2       3 LYS4        0.0000 
    103 N          78.4819   38.7755   38.7226 N.2       2 ALA2        0.0000 
    104 CZ         79.2036   37.7489   37.9008 C.ar      4 PHE5        0.0000 
    105 CZ         79.9253   36.7223   37.0791 C.ar      4 PHE5        0.0000 
    106 NZ         80.6470   35.6956   36.2574 N.2       3 LYS4        0.0000 
    107 N          77.3912   37.7845   39.0027 N.2       2 ALA2        0.0000 
    108 N          78.1129   36.7579   38.1810 N.2       2 ALA2        0.0000 
    109 NZ         78.8346   35.7313   37.3592 N.2       3 LYS4        0.0000 
    110 NZ         79.5563   34.7047   36.5375 N.2       3 LYS4        0.0000 
    111 N          77.0223   35.7670   38.4611 N.2       2 ALA2        0.0000 
    112 O          77.7439   34.7404   37.6394 O.2       2 ALA2        0.0000 
    113 NZ         78.4656   33.7137   36.8176 N.2       3 LYS4        0.0000 
    114 O          75.9316   34.7760   38.7412 O.2       2 ALA2        0.0000 
    115 O          76.6533   33.7494   37.9195 O.2       2 ALA2        0.0000 
    116 N          73.3976   35.8383   40.6648 N.2       2 ALA2        0.0000 
    117 O          75.5626   32.7585   38.1996 O.2       2 ALA2        0.0000 
    118 CA         77.7473   39.2382   37.4993 C.3       5 GLY6        0.0000 
    119 CA         78.4690   38.2116   36.6776 C.3       5 GLY6        0.0000 
    120 NZ         79.1907   37.1850   35.8559 N.2       3 LYS4        0.0000 
    121 CA         77.3783   37.2206   36.9577 C.3       5 GLY6        0.0000 
    122 NZ         78.1000   36.1940   36.1360 N.2       3 LYS4        0.0000 
@<TRIPOS>BOND
@<TRIPOS>SUBSTRUCTURE
     1 SER1        4 GROUP   
     2 ALA2        7 GROUP   
     3 LYS4        1 GROUP   
     4 PHE5        2 GROUP   
     5 GLY6       35 GROUP   
     6 CUB7        9 GROUP   
@<TRIPOS>SET

