#    Name: 2w0v_LZR_1_INTS_M
#    Modification time : Tue Mar 25 03:29:32 2014

@<TRIPOS>MOLECULE
2w0v_LZR_1_INTS_M
   66     0     6     0     0
SMALL
NO_CHARGES


@<TRIPOS>ATOM
      1 N          75.2615   34.7980   37.3855 N.am      1 SEC2        0.0000 
      2 N          75.8470   34.4880   38.7410 N.am      5 SEL2        0.0000 
      3 N          74.6760   35.1080   36.0300 N.am      3 SEP2        0.0000 
      4 CA         75.5215   33.1820   42.4875 C.3       2 GLC5        0.0000 
      5 CA         75.2280   34.5550   41.4720 C.3       6 GLL5        0.0000 
      6 CA         75.8150   31.8090   43.5030 C.3       4 GLP5        0.0000 
      7 CA         72.5095   34.9345   44.2100 C.3       2 GLC5        0.0000 
      8 CA         73.5140   35.6620   42.6630 C.3       6 GLL5        0.0000 
      9 CA         71.5050   34.2070   45.7570 C.3       4 GLP5        0.0000 
     10 CA         75.0160   38.5245   43.0695 C.3       2 GLC5        0.0000 
     11 CA         74.4860   36.4890   42.6790 C.3       6 GLL5        0.0000 
     12 CA         75.5460   40.5600   43.4600 C.3       4 GLP5        0.0000 
     13 CA         76.8390   35.0595   36.1800 C.3       2 GLC5        0.0000 
     14 CA         78.2030   35.3900   37.4780 C.3       6 GLL5        0.0000 
     15 CA         75.4750   34.7290   34.8820 C.3       4 GLP5        0.0000 
     16 CA         80.7530   38.2895   38.4350 C.3       2 GLC5        0.0000 
     17 CA         80.2600   36.5290   39.3950 C.3       6 GLL5        0.0000 
     18 CA         81.2460   40.0500   37.4750 C.3       4 GLP5        0.0000 
     19 CA         80.1045   37.7335   36.1580 C.3       2 GLC5        0.0000 
     20 CA         79.2200   36.4700   37.1200 C.3       6 GLL5        0.0000 
     21 CA         80.9890   38.9970   35.1960 C.3       4 GLP5        0.0000 
     22 N          80.9305   35.8330   34.9480 N.am      1 SEC2        0.0000 
     23 N          81.7980   35.8160   36.1090 N.am      5 SEL2        0.0000 
     24 N          80.0630   35.8500   33.7870 N.am      3 SEP2        0.0000 
     25 CA         84.6015   35.9930   30.4515 C.3       2 GLC5        0.0000 
     26 CA         83.5080   34.5490   31.3760 C.3       6 GLL5        0.0000 
     27 CA         85.6950   37.4370   29.5270 C.3       4 GLP5        0.0000 
     28 CA         84.7530   33.0860   30.8530 C.3       2 GLC5        0.0000 
     29 CA         85.9980   31.6230   30.3300 C.3       4 GLP5        0.0000 
     30 CA         82.3190   32.9865   30.9890 C.3       2 GLC5        0.0000 
     31 CA         81.1300   31.4240   30.6020 C.3       4 GLP5        0.0000 
     32 CA         82.7970   35.2130   29.9055 C.3       2 GLC5        0.0000 
     33 CA         82.0860   35.8770   28.4350 C.3       4 GLP5        0.0000 
     34 CA         81.4305   34.6905   31.5400 C.3       2 GLC5        0.0000 
     35 CA         79.3530   34.8320   31.7040 C.3       4 GLP5        0.0000 
     36 CA         88.5655   34.7870   31.9985 C.3       2 GLC5        0.0000 
     37 CA         87.6060   34.8670   33.7000 C.3       6 GLL5        0.0000 
     38 CA         89.5250   34.7070   30.2970 C.3       4 GLP5        0.0000 
     39 CA         73.0515   37.3792   43.6650 C.3       2 GLC5        0.0000 
     40 CA         72.1030   38.6830   44.6590 C.3       4 GLP5        0.0000 
     41 CA         74.4580   36.0613   44.7370 C.3       2 GLC5        0.0000 
     42 CA         74.9160   36.0470   46.8030 C.3       4 GLP5        0.0000 
     43 CA         73.5132   37.8124   41.5899 C.3       2 GLC5        0.0000 
     44 CA         72.8450   39.5390   40.7920 C.3       4 GLP5        0.0000 
     45 CA         77.8760   37.5353   42.3585 C.3       2 GLC5        0.0000 
     46 CA         77.4190   35.5480   41.7180 C.3       6 GLL5        0.0000 
     47 CA         77.7230   39.2820   43.2320 C.3       4 GLP5        0.0000 
     48 CA         77.7238   37.2945   36.0300 C.3       2 GLC5        0.0000 
     49 CA         76.7360   38.6590   34.7610 C.3       4 GLP5        0.0000 
     50 CA         82.0235   37.1810   35.0455 C.3       2 GLC5        0.0000 
     51 CA         82.9610   35.3680   35.5850 C.3       6 GLL5        0.0000 
     52 CA         85.9575   35.1990   37.6197 C.3       2 GLC5        0.0000 
     53 CA         83.9640   34.9200   36.4320 C.3       6 GLL5        0.0000 
     54 CA         87.3520   35.7100   39.0800 C.3       4 GLP5        0.0000 
     55 CA         85.3160   36.7819   34.1703 C.3       2 GLC5        0.0000 
     56 CA         84.3470   34.8970   33.6570 C.3       6 GLL5        0.0000 
     57 CA         86.0820   38.7740   34.1240 C.3       4 GLP5        0.0000 
     58 CA         87.9385   35.1580   37.2097 C.3       2 GLC5        0.0000 
     59 CA         88.3690   35.1920   34.9760 C.3       6 GLL5        0.0000 
     60 CA         90.2345   36.2840   35.4000 C.3       2 GLC5        0.0000 
     61 CA         91.4930   37.6730   35.8040 C.3       4 GLP5        0.0000 
     62 CA         88.5986   36.7599   34.8355 C.3       2 GLC5        0.0000 
     63 CA         89.5830   34.5980   35.0160 C.3       6 GLL5        0.0000 
     64 CA         88.4120   38.7060   34.9940 C.3       4 GLP5        0.0000 
     65 CA         90.0840   32.5870   34.9493 C.3       2 GLC5        0.0000 
     66 CA         91.0360   30.8650   34.5390 C.3       4 GLP5        0.0000 
@<TRIPOS>BOND
@<TRIPOS>SUBSTRUCTURE
     1 SEC2        1 GROUP        1 X    SEC  0     ROOT SEC X 2
     2 GLC5        4 GROUP        1 X    GLC  0     **** GLC X 6
     3 SEP2        3 GROUP        1 Y    SEP  0     ROOT SEP Y 9
     4 GLP5        6 GROUP        1 Y    GLP  0     **** GLP Y 13
     5 SEL2        2 GROUP        1 Z    SEL  0     ROOT SEL Z 16
     6 GLL5        5 GROUP        1 Z    GLL  0     **** GLL Z 20
@<TRIPOS>SET

