#    Name: 2w0v_LZR_1_ligand
#    Modification time : Tue Mar 25 03:29:32 2014

@<TRIPOS>MOLECULE
2w0v_LZR_1_ligand
   59    64     1     0     0
SMALL
NO_CHARGES


@<TRIPOS>ATOM
      1 O29        75.8470   34.4880   38.7410 O.2       1 LZR1454     0.0000 
      2 C26        76.7180   34.9680   39.4930 C.2       1 LZR1454     0.0000 
      3 N28        76.4920   35.0350   40.8910 N.am      1 LZR1454     0.0000 
      4 C30        75.2280   34.5550   41.4720 C.3       1 LZR1454     0.0000 
      5 C31        74.2400   35.7030   41.5300 C.3       1 LZR1454     0.0000 
      6 C32        73.5140   35.6620   42.6630 C.3       1 LZR1454     0.0000 
      7 C33        74.4860   36.4890   42.6790 C.3       1 LZR1454     0.0000 
      8 C27        77.4190   35.5480   41.7180 C.2       1 LZR1454     0.0000 
      9 C23        78.6390   36.0290   41.2520 C.2       1 LZR1454     0.0000 
     10 C19        78.9320   35.9980   39.8950 C.2       1 LZR1454     0.0000 
     11 C22        77.9160   35.4350   38.9640 C.2       1 LZR1454     0.0000 
     12 C20        78.2030   35.3900   37.4780 C.3       1 LZR1454     0.0000 
     13 C15        80.2600   36.5290   39.3950 C.3       1 LZR1454     0.0000 
     14 N12        80.4070   36.3030   37.9590 N.3       1 LZR1454     0.0000 
     15 C16        79.2200   36.4700   37.1200 C.3       1 LZR1454     0.0000 
     16 C7         81.5840   35.8400   37.4470 C.2       1 LZR1454     0.0000 
     17 N3         81.7980   35.8160   36.1090 N.2       1 LZR1454     0.0000 
     18 C1         82.9610   35.3680   35.5850 C.ar      1 LZR1454     0.0000 
     19 C2         83.9640   34.9200   36.4320 C.ar      1 LZR1454     0.0000 
     20 C5         85.1620   34.4560   35.8870 C.ar      1 LZR1454     0.0000 
     21 C6         83.7350   34.9490   37.8030 C.2       1 LZR1454     0.0000 
     22 O11        84.6450   34.5250   38.6690 O.2       1 LZR1454     0.0000 
     23 N10        82.5580   35.4080   38.2810 N.am      1 LZR1454     0.0000 
     24 C4         83.1550   35.3620   34.2050 C.ar      1 LZR1454     0.0000 
     25 C8         84.3470   34.8970   33.6570 C.ar      1 LZR1454     0.0000 
     26 O13        84.5470   34.8830   32.2970 O.3       1 LZR1454     0.0000 
     27 C17        83.5080   34.5490   31.3760 C.3       1 LZR1454     0.0000 
     28 C9         85.3490   34.4500   34.5020 C.ar      1 LZR1454     0.0000 
     29 O14        86.5180   33.9850   33.9640 O.3       1 LZR1454     0.0000 
     30 C18        87.6060   34.8670   33.7000 C.3       1 LZR1454     0.0000 
     31 C21        88.3690   35.1920   34.9760 C.3       1 LZR1454     0.0000 
     32 C24        89.5830   34.5980   35.0160 C.2       1 LZR1454     0.0000 
     33 C25        88.6810   34.0200   35.7030 C.2       1 LZR1454     0.0000 
     34 H          75.3888   34.1785   42.4816 H         1 LZR1454     0.0000 
     35 H          74.8045   33.7574   40.8625 H         1 LZR1454     0.0000 
     36 H          73.8951   36.1614   40.8383 H         1 LZR1454     0.0000 
     37 H          73.6716   34.8133   43.1791 H         1 LZR1454     0.0000 
     38 H          72.6062   36.0778   42.5422 H         1 LZR1454     0.0000 
     39 H          74.2396   37.4294   42.4934 H         1 LZR1454     0.0000 
     40 H          75.3050   36.1649   43.1303 H         1 LZR1454     0.0000 
     41 H          77.2366   35.5964   42.7511 H         1 LZR1454     0.0000 
     42 H          79.3271   36.4096   41.9180 H         1 LZR1454     0.0000 
     43 H          77.2867   35.5646   36.9232 H         1 LZR1454     0.0000 
     44 H          78.6063   34.4179   37.2128 H         1 LZR1454     0.0000 
     45 H          81.0657   36.0295   39.9500 H         1 LZR1454     0.0000 
     46 H          80.3151   37.6016   39.6257 H         1 LZR1454     0.0000 
     47 H          78.7607   37.4435   37.2837 H         1 LZR1454     0.0000 
     48 H          79.4710   36.3707   36.0652 H         1 LZR1454     0.0000 
     49 H          85.9098   34.1174   36.5054 H         1 LZR1454     0.0000 
     50 H          82.3951   35.4304   39.3172 H         1 LZR1454     0.0000 
     51 H          82.4062   35.7063   33.5831 H         1 LZR1454     0.0000 
     52 H          87.2600   35.8189   33.2643 H         1 LZR1454     0.0000 
     53 H          88.3205   34.4271   32.9847 H         1 LZR1454     0.0000 
     54 H          88.2660   35.9266   35.5006 H         1 LZR1454     0.0000 
     55 H          90.2903   34.6560   34.7552 H         1 LZR1454     0.0000 
     56 H          88.3741   33.5331   36.1408 H         1 LZR1454     0.0000 
     57 H          83.8243   34.5906   30.4282 H         1 LZR1454     0.0000 
     58 H          83.1598   33.6241   31.5284 H         1 LZR1454     0.0000 
     59 H          82.7293   35.1717   31.4528 H         1 LZR1454     0.0000 
@<TRIPOS>BOND
     1    2    1 2    
     2    3    2 am   
     3   11    2 1    
     4    4    3 1    
     5    8    3 1    
     6    5    4 1    
     7   34    4 1    
     8   35    4 1    
     9    6    5 1    
    10    7    5 1    
    11   36    5 1    
    12    7    6 1    
    13   37    6 1    
    14   38    6 1    
    15   39    7 1    
    16   40    7 1    
    17    9    8 2    
    18   41    8 1    
    19   10    9 1    
    20   42    9 1    
    21   11   10 2    
    22   13   10 1    
    23   12   11 1    
    24   15   12 1    
    25   43   12 1    
    26   44   12 1    
    27   14   13 1    
    28   45   13 1    
    29   46   13 1    
    30   15   14 1    
    31   16   14 1    
    32   47   15 1    
    33   48   15 1    
    34   17   16 2    
    35   23   16 1    
    36   18   17 1    
    37   19   18 ar   
    38   24   18 ar   
    39   20   19 ar   
    40   21   19 1    
    41   28   20 ar   
    42   49   20 1    
    43   22   21 2    
    44   23   21 am   
    45   50   23 1    
    46   25   24 ar   
    47   51   24 1    
    48   26   25 1    
    49   28   25 ar   
    50   27   26 1    
    51   57   27 1    
    52   58   27 1    
    53   59   27 1    
    54   29   28 1    
    55   30   29 1    
    56   31   30 1    
    57   52   30 1    
    58   53   30 1    
    59   32   31 1    
    60   33   31 1    
    61   54   31 1    
    62   33   32 2    
    63   55   32 1    
    64   56   33 1    
@<TRIPOS>SUBSTRUCTURE
     1 LZR1454     1 GROUP   
@<TRIPOS>SET

