#    Name: 3NQ1_2_CAVITY_N1_ALL.mol2
#    Modification time : Tue Mar 11 18:05:18 2014

@<TRIPOS>MOLECULE
3NQ1_2_CAVITY_N1_ALL.mol2
   61     0     5     0     0
SMALL
NO_CHARGES


@<TRIPOS>ATOM
      1 NZ        -34.5445   -8.4320  -23.2156 N.2       2 LYS4        0.0000 
      2 CZ        -33.7595   -6.4804  -21.6908 C.ar      3 PHE5        0.0000 
      3 DU        -33.0227   -7.7711  -21.8936 H         5 CUB7        0.0000 
      4 DU        -32.2859   -9.0619  -22.0965 H         5 CUB7        0.0000 
      5 DU        -33.2595   -7.6740  -23.3716 H         5 CUB7        0.0000 
      6 CA        -32.5227   -8.9647  -23.5745 C.3       4 GLY6        0.0000 
      7 CA        -28.4575   -5.7885  -17.9278 C.3       4 GLY6        0.0000 
      8 CA        -29.4311   -4.4006  -19.2029 C.3       4 GLY6        0.0000 
      9 CA        -28.6943   -5.6914  -19.4058 C.3       4 GLY6        0.0000 
     10 CA        -27.9575   -6.9821  -19.6087 C.3       4 GLY6        0.0000 
     11 CA        -27.2207   -8.2728  -19.8116 C.3       4 GLY6        0.0000 
     12 CZ        -29.6679   -4.3035  -20.6809 C.ar      3 PHE5        0.0000 
     13 O         -28.9311   -5.5942  -20.8838 O.2       1 ALA2        0.0000 
     14 CA        -28.1943   -6.8850  -21.0867 C.3       4 GLY6        0.0000 
     15 N         -27.4575   -8.1757  -21.2896 N.2       1 ALA2        0.0000 
     16 O         -29.1679   -5.4971  -22.3618 O.2       1 ALA2        0.0000 
     17 DU        -28.4311   -6.7878  -22.5647 H         5 CUB7        0.0000 
     18 N         -27.6943   -8.0786  -22.7676 N.2       1 ALA2        0.0000 
     19 N         -28.6679   -6.6907  -24.0427 N.2       1 ALA2        0.0000 
     20 CA        -27.9311   -7.9814  -24.2456 C.3       4 GLY6        0.0000 
     21 CA        -28.1462   -3.6426  -19.3590 C.3       4 GLY6        0.0000 
     22 CA        -27.4094   -4.9334  -19.5619 C.3       4 GLY6        0.0000 
     23 O         -28.3830   -3.5455  -20.8370 O.2       1 ALA2        0.0000 
     24 O         -27.6462   -4.8362  -21.0399 O.2       1 ALA2        0.0000 
     25 CA        -26.9094   -6.1270  -21.2428 C.3       4 GLY6        0.0000 
     26 CA        -26.1726   -7.4177  -21.4456 C.3       4 GLY6        0.0000 
     27 O         -27.1462   -6.0298  -22.7208 O.2       1 ALA2        0.0000 
     28 N         -26.4094   -7.3206  -22.9236 N.2       1 ALA2        0.0000 
     29 CA        -27.3830   -5.9327  -24.1988 C.3       4 GLY6        0.0000 
     30 CA        -26.3612   -4.0782  -21.1959 C.3       4 GLY6        0.0000 
     31 CA        -25.6244   -5.3689  -21.3988 C.3       4 GLY6        0.0000 
     32 CA        -24.8877   -6.6597  -21.6017 C.3       4 GLY6        0.0000 
     33 O         -26.5980   -3.9811  -22.6739 O.2       1 ALA2        0.0000 
     34 CA        -25.8613   -5.2718  -22.8768 C.3       4 GLY6        0.0000 
     35 CA        -25.1245   -6.5625  -23.0797 C.3       4 GLY6        0.0000 
     36 N         -24.1027   -4.7081  -20.0769 N.2       1 ALA2        0.0000 
     37 N         -24.3395   -4.6109  -21.5549 N.2       1 ALA2        0.0000 
     38 O         -23.6027   -5.9017  -21.7577 O.2       1 ALA2        0.0000 
     39 CA        -31.2642   -7.2074  -19.0937 C.3       4 GLY6        0.0000 
     40 CZ        -32.2378   -5.8195  -20.3688 C.ar      3 PHE5        0.0000 
     41 DU        -31.5010   -7.1103  -20.5717 H         5 CUB7        0.0000 
     42 CZ        -32.4746   -5.7224  -21.8468 C.ar      3 PHE5        0.0000 
     43 DU        -31.7378   -7.0131  -22.0497 H         5 CUB7        0.0000 
     44 DU        -31.0010   -8.3039  -22.2526 H         5 CUB7        0.0000 
     45 O         -30.2642   -9.5946  -22.4554 O.2       1 ALA2        0.0000 
     46 CA        -31.9746   -6.9160  -23.5277 C.3       4 GLY6        0.0000 
     47 CA        -31.2378   -8.2067  -23.7306 C.3       4 GLY6        0.0000 
     48 CA        -29.0056   -7.8372  -17.9746 C.3       4 GLY6        0.0000 
     49 CA        -29.9792   -6.4494  -19.2498 C.3       4 GLY6        0.0000 
     50 DU        -29.2424   -7.7401  -19.4526 H         5 CUB7        0.0000 
     51 CA        -28.5057   -9.0308  -19.6555 C.3       4 GLY6        0.0000 
     52 CZ        -30.9528   -5.0615  -20.5249 C.ar      3 PHE5        0.0000 
     53 DU        -30.2160   -6.3522  -20.7278 H         5 CUB7        0.0000 
     54 DU        -29.4793   -7.6430  -20.9306 H         5 CUB7        0.0000 
     55 N         -28.7425   -8.9337  -21.1335 N.2       1 ALA2        0.0000 
     56 N         -28.0057  -10.2244  -21.3364 N.2       1 ALA2        0.0000 
     57 N         -30.4529   -6.2551  -22.2058 N.2       1 ALA2        0.0000 
     58 DU        -29.7161   -7.5458  -22.4086 H         5 CUB7        0.0000 
     59 N         -28.9793   -8.8366  -22.6115 N.2       1 ALA2        0.0000 
     60 CA        -30.6897   -6.1580  -23.6838 C.3       4 GLY6        0.0000 
     61 CA        -29.9529   -7.4487  -23.8866 C.3       4 GLY6        0.0000 
@<TRIPOS>BOND
@<TRIPOS>SUBSTRUCTURE
     1 ALA2       13 GROUP   
     2 LYS4        1 GROUP   
     3 PHE5        2 GROUP   
     4 GLY6        6 GROUP   
     5 CUB7        3 GROUP   
@<TRIPOS>SET

