#    Name: 3nq1_KOJ_2_INTS_M
#    Modification time : Tue Mar 25 01:57:02 2014

@<TRIPOS>MOLECULE
3nq1_KOJ_2_INTS_M
   13     0     3     0     0
SMALL
NO_CHARGES


@<TRIPOS>ATOM
      1 CA        -32.8595   -7.1530  -25.2085 C.3       1 GLC5        0.0000 
      2 CA        -32.8680   -8.2100  -23.2470 C.3       3 GLL5        0.0000 
      3 CA        -32.8510   -6.0960  -27.1700 C.3       2 GLP5        0.0000 
      4 CA        -31.4895   -9.0075  -24.6085 C.3       1 GLC5        0.0000 
      5 CA        -30.1110   -9.8050  -25.9700 C.3       2 GLP5        0.0000 
      6 CA        -32.0177   -6.3182  -25.4828 C.3       1 GLC5        0.0000 
      7 CA        -30.8370   -7.1370  -23.7270 C.3       3 GLL5        0.0000 
      8 CA        -30.1684   -5.2896  -24.5039 C.3       1 GLC5        0.0000 
      9 CA        -29.3690   -7.2000  -23.9000 C.3       3 GLL5        0.0000 
     10 CA        -30.0600   -3.7090  -25.1600 C.3       2 GLP5        0.0000 
     11 CA        -29.9479   -7.7341  -25.2914 C.3       1 GLC5        0.0000 
     12 CA        -31.5320   -5.9440  -23.8640 C.3       3 GLL5        0.0000 
     13 CA        -29.6190   -8.5980  -26.7350 C.3       2 GLP5        0.0000 
@<TRIPOS>BOND
@<TRIPOS>SUBSTRUCTURE
     1 GLC5        1 GROUP        1 X    GLC  0     ROOT GLC X 6
     2 GLP5        3 GROUP        1 Y    GLP  0     ROOT GLP Y 13
     3 GLL5        2 GROUP        1 Z    GLL  0     ROOT GLL Z 20
@<TRIPOS>SET

