#    Name: 3nq1_KOJ_2_ligand
#    Modification time : Tue Mar 25 01:57:02 2014

@<TRIPOS>MOLECULE
3nq1_KOJ_2_ligand
   15    15     1     0     0
SMALL
NO_CHARGES


@<TRIPOS>ATOM
      1 C1        -32.8680   -8.2100  -23.2470 C.2       1 KOJ1351     0.0000 
      2 C2        -33.5900   -7.0400  -23.3990 C.2       1 KOJ1351     0.0000 
      3 C3        -32.9190   -5.9090  -23.7060 C.2       1 KOJ1351     0.0000 
      4 C4        -31.5320   -5.9440  -23.8640 C.2       1 KOJ1351     0.0000 
      5 C5        -30.8370   -7.1370  -23.7270 C.2       1 KOJ1351     0.0000 
      6 C6        -29.3690   -7.2000  -23.9000 C.3       1 KOJ1351     0.0000 
      7 O2        -34.9080   -6.9610  -23.2490 O.co2     1 KOJ1351     0.0000 
      8 O3        -33.6440   -4.8100  -23.8180 O.2       1 KOJ1351     0.0000 
      9 O5        -31.4420   -8.1860  -23.4240 O.3       1 KOJ1351     0.0000 
     10 O6        -28.6370   -7.7630  -22.9430 O.3       1 KOJ1351     0.0000 
     11 H         -33.3193   -9.0912  -23.0124 H         1 KOJ1351     0.0000 
     12 H         -31.0237   -5.0739  -24.0843 H         1 KOJ1351     0.0000 
     13 H         -29.0278   -6.1228  -24.1234 H         1 KOJ1351     0.0000 
     14 H         -29.1897   -7.6950  -24.9245 H         1 KOJ1351     0.0000 
     15 H         -27.8932   -7.1168  -22.7722 H         1 KOJ1351     0.0000 
@<TRIPOS>BOND
     1    2    1 2    
     2    9    1 1    
     3   11    1 1    
     4    3    2 1    
     5    7    2 ar   
     6    4    3 1    
     7    8    3 2    
     8    5    4 2    
     9   12    4 1    
    10    6    5 1    
    11    9    5 1    
    12   10    6 1    
    13   13    6 1    
    14   14    6 1    
    15   15   10 1    
@<TRIPOS>SUBSTRUCTURE
     1 KOJ1351     1 GROUP   
@<TRIPOS>SET

