#    Name: 3fr5_I4A_1_INTS_M
#    Modification time : Tue Mar 25 06:18:25 2014

@<TRIPOS>MOLECULE
3fr5_I4A_1_INTS_M
   55     0    12     0     0
SMALL
NO_CHARGES


@<TRIPOS>ATOM
      1 NZ         17.8595    8.1335    1.7400 N.4       3 LYC4        0.0000 
      2 NZ         17.2000    6.7600    1.9360 N.4      11 LYL4        0.0000 
      3 NZ         18.9510    9.6260    0.2880 N.4       7 LYP4        0.0000 
      4 N          17.8595    8.1335    1.7400 N.am      2 SEC2        0.0000 
      5 N          17.2000    6.7600    1.9360 N.am     10 SEL2        0.0000 
      6 N          18.5190    9.5070    1.5440 N.am      6 SEP2        0.0000 
      7 N          16.2675    6.8230    0.8570 N.am      2 SEC2        0.0000 
      8 N          15.3350    6.8860   -0.2220 N.am      6 SEP2        0.0000 
      9 CA         23.9175    6.0970    5.2530 C.3       4 GLC5        0.0000 
     10 CA         23.7130    4.3500    4.1200 C.3      12 GLL5        0.0000 
     11 CA         24.1220    7.8440    6.3860 C.3       8 GLP5        0.0000 
     12 CA         23.4805    6.4185    2.4810 C.3       4 GLC5        0.0000 
     13 CA         24.6820    4.6820    2.9900 C.3      12 GLL5        0.0000 
     14 CA         22.2790    8.1550    1.9720 C.3       8 GLP5        0.0000 
     15 CA         25.4780    6.5715    2.5300 C.3       4 GLC5        0.0000 
     16 CA         26.2740    8.4610    2.0700 C.3       8 GLP5        0.0000 
     17 CA         26.4560    2.6935    1.6240 C.3       4 GLC5        0.0000 
     18 CA         24.8500    3.6190    1.9050 C.3      12 GLL5        0.0000 
     19 CA         28.0620    1.7680    1.3430 C.3       8 GLP5        0.0000 
     20 CA         20.4875    5.7205    7.3320 C.3       4 GLC5        0.0000 
     21 CA         21.0790    6.2990    5.3200 C.3      12 GLL5        0.0000 
     22 CA         19.8960    5.1420    9.3440 C.3       8 GLP5        0.0000 
     23 CA         18.7230    8.6625    3.6315 C.3       4 GLC5        0.0000 
     24 CA         18.7760    6.7830    4.6900 C.3      12 GLL5        0.0000 
     25 CA         18.6700   10.5420    2.5730 C.3       8 GLP5        0.0000 
     26 CA         17.9145    2.2810   -1.0060 C.3       4 GLC5        0.0000 
     27 CA         19.6180    3.6300   -1.1970 C.3      12 GLL5        0.0000 
     28 CA         16.2110    0.9320   -0.8150 C.3       8 GLP5        0.0000 
     29 O          19.8265    3.2400   -5.8075 O.2       1 ALC1        0.0000 
     30 O          20.2560    3.5060   -4.7760 O.2       9 ALL1        0.0000 
     31 O          19.3970    2.9740   -6.8390 O.2       5 ALP1        0.0000 
     32 N          17.8450    2.1410   -2.4845 N.am      2 SEC2        0.0000 
     33 N          18.8790    2.2320   -3.5540 N.am     10 SEL2        0.0000 
     34 N          16.8110    2.0500   -1.4150 N.am      6 SEP2        0.0000 
     35 CA         22.3515    6.0090   -3.4130 C.3       4 GLC5        0.0000 
     36 CA         20.4610    5.3610   -2.6760 C.3      12 GLL5        0.0000 
     37 CA         24.2420    6.6570   -4.1500 C.3       8 GLP5        0.0000 
     38 CA         20.5050    6.0670   -4.5560 C.3       4 GLC5        0.0000 
     39 CA         20.5490    6.7730   -6.4360 C.3       8 GLP5        0.0000 
     40 CA         22.7310    6.1675   -2.1800 C.3       4 GLC5        0.0000 
     41 CA         20.7220    6.1590   -1.5630 C.3      12 GLL5        0.0000 
     42 CA         24.7400    6.1760   -2.7970 C.3       8 GLP5        0.0000 
     43 CA         23.2242    1.7437    0.2403 C.3       4 GLC5        0.0000 
     44 CA         22.3440    2.9480    1.5820 C.3      12 GLL5        0.0000 
     45 CA         23.4830    0.1970   -0.8170 C.3       8 GLP5        0.0000 
     46 CA         18.4810    6.3558    6.8020 C.3       4 GLC5        0.0000 
     47 CA         19.8700    6.9620    5.5400 C.3      12 GLL5        0.0000 
     48 CA         17.6390    5.8390    8.4890 C.3       8 GLP5        0.0000 
     49 CA         17.5955    7.5288    5.7010 C.3       4 GLC5        0.0000 
     50 CA         15.8680    8.1850    6.2870 C.3       8 GLP5        0.0000 
     51 CA         19.6851    8.1384    5.8910 C.3       4 GLC5        0.0000 
     52 CA         19.7450    9.5700    6.7220 C.3       8 GLP5        0.0000 
     53 CA         18.3360    5.0165   -2.4603 C.3       4 GLC5        0.0000 
     54 CA         16.9100    6.1710   -3.0850 C.3       8 GLP5        0.0000 
     55 CA         18.7508    5.9655   -2.6022 C.3       4 GLC5        0.0000 
@<TRIPOS>BOND
@<TRIPOS>SUBSTRUCTURE
     1 ALC1       29 GROUP        1 X    ALC  0     ROOT ALC X 1
     2 SEC2        4 GROUP        1 X    SEC  0     **** SEC X 2
     3 LYC4        1 GROUP        1 X    LYC  0     **** LYC X 4
     4 GLC5        9 GROUP        1 X    GLC  0     **** GLC X 6
     5 ALP1       31 GROUP        1 Y    ALP  0     ROOT ALP Y 8
     6 SEP2        6 GROUP        1 Y    SEP  0     **** SEP Y 9
     7 LYP4        3 GROUP        1 Y    LYP  0     **** LYP Y 11
     8 GLP5       11 GROUP        1 Y    GLP  0     **** GLP Y 13
     9 ALL1       30 GROUP        1 Z    ALL  0     ROOT ALL Z 15
    10 SEL2        5 GROUP        1 Z    SEL  0     **** SEL Z 16
    11 LYL4        2 GROUP        1 Z    LYL  0     **** LYL Z 18
    12 GLL5       10 GROUP        1 Z    GLL  0     **** GLL Z 20
@<TRIPOS>SET

