#    Name: 3fr5_I4A_1_ligand
#    Modification time : Tue Mar 25 06:18:25 2014

@<TRIPOS>MOLECULE
3fr5_I4A_1_ligand
   48    51     1     0     0
SMALL
NO_CHARGES


@<TRIPOS>ATOM
      1 O27        16.9070    4.7650    2.8130 O.co2     1 I4A132      0.0000 
      2 C25        17.5870    5.7870    2.7560 C.2       1 I4A132      0.0000 
      3 O26        17.2000    6.7600    1.9360 O.co2     1 I4A132      0.0000 
      4 C4         18.8160    5.9430    3.5890 C.ar      1 I4A132      0.0000 
      5 C6         20.0840    5.2170    3.3170 C.ar      1 I4A132      0.0000 
      6 C7         21.2260    5.4290    4.2370 C.ar      1 I4A132      0.0000 
      7 C9         22.3000    4.5840    3.6710 C.2       1 I4A132      0.0000 
      8 C10        23.7130    4.3500    4.1200 C.3       1 I4A132      0.0000 
      9 C12        24.6820    4.6820    2.9900 C.3       1 I4A132      0.0000 
     10 C14        24.8500    3.6190    1.9050 C.3       1 I4A132      0.0000 
     11 C13        23.5870    3.6330    1.0130 C.3       1 I4A132      0.0000 
     12 C11        22.3440    2.9480    1.5820 C.3       1 I4A132      0.0000 
     13 C8         21.6590    3.9210    2.4900 C.2       1 I4A132      0.0000 
     14 C3         21.0790    6.2990    5.3200 C.ar      1 I4A132      0.0000 
     15 C2         19.8700    6.9620    5.5400 C.ar      1 I4A132      0.0000 
     16 C1         18.7760    6.7830    4.6900 C.ar      1 I4A132      0.0000 
     17 N5         20.3970    4.3160    2.3490 N.pl3     1 I4A132      0.0000 
     18 C15        19.5810    3.8280    1.2600 C.3       1 I4A132      0.0000 
     19 C16        19.9060    4.4160   -0.0950 C.ar      1 I4A132      0.0000 
     20 C17        19.6180    3.6300   -1.1970 C.ar      1 I4A132      0.0000 
     21 C18        19.9060    4.0940   -2.4740 C.ar      1 I4A132      0.0000 
     22 C22        19.6230    3.2120   -3.6530 C.2       1 I4A132      0.0000 
     23 N24        20.2560    3.5060   -4.7760 N.am      1 I4A132      0.0000 
     24 O23        18.8790    2.2320   -3.5540 O.2       1 I4A132      0.0000 
     25 C19        20.4610    5.3610   -2.6760 C.ar      1 I4A132      0.0000 
     26 C20        20.7220    6.1590   -1.5630 C.ar      1 I4A132      0.0000 
     27 C21        20.4640    5.6840   -0.2710 C.ar      1 I4A132      0.0000 
     28 H          23.8445    3.3073    4.4042 H         1 I4A132      0.0000 
     29 H          23.9396    4.9813    4.9775 H         1 I4A132      0.0000 
     30 H          25.6814    4.9004    3.4299 H         1 I4A132      0.0000 
     31 H          24.3562    5.6316    2.5083 H         1 I4A132      0.0000 
     32 H          24.9489    2.6483    2.3585 H         1 I4A132      0.0000 
     33 H          25.7097    3.8487    1.3001 H         1 I4A132      0.0000 
     34 H          23.8439    3.1613    0.0400 H         1 I4A132      0.0000 
     35 H          23.3391    4.6908    0.7787 H         1 I4A132      0.0000 
     36 H          22.6472    2.0704    2.1332 H         1 I4A132      0.0000 
     37 H          21.6910    2.6714    0.7678 H         1 I4A132      0.0000 
     38 H          21.8701    6.4527    5.9622 H         1 I4A132      0.0000 
     39 H          19.7821    7.6007    6.3513 H         1 I4A132      0.0000 
     40 H          17.8938    7.3061    4.8971 H         1 I4A132      0.0000 
     41 H          18.4994    4.0212    1.4658 H         1 I4A132      0.0000 
     42 H          19.6632    2.7162    1.1786 H         1 I4A132      0.0000 
     43 H          19.1907    2.7019   -1.0727 H         1 I4A132      0.0000 
     44 H          20.8446    4.3140   -4.7507 H         1 I4A132      0.0000 
     45 H          20.0887    2.8937   -5.5487 H         1 I4A132      0.0000 
     46 H          20.6690    5.6916   -3.6142 H         1 I4A132      0.0000 
     47 H          21.1075    7.1055   -1.6889 H         1 I4A132      0.0000 
     48 H          20.6848    6.2670    0.5422 H         1 I4A132      0.0000 
@<TRIPOS>BOND
     1    2    1 ar   
     2    3    2 ar   
     3    4    2 1    
     4    5    4 ar   
     5   16    4 ar   
     6    6    5 ar   
     7   17    5 1    
     8    7    6 1    
     9   14    6 ar   
    10    8    7 1    
    11   13    7 2    
    12    9    8 1    
    13   28    8 1    
    14   29    8 1    
    15   10    9 1    
    16   30    9 1    
    17   31    9 1    
    18   11   10 1    
    19   32   10 1    
    20   33   10 1    
    21   12   11 1    
    22   34   11 1    
    23   35   11 1    
    24   13   12 1    
    25   36   12 1    
    26   37   12 1    
    27   17   13 1    
    28   15   14 ar   
    29   38   14 1    
    30   16   15 ar   
    31   39   15 1    
    32   40   16 1    
    33   18   17 1    
    34   19   18 1    
    35   41   18 1    
    36   42   18 1    
    37   20   19 ar   
    38   27   19 ar   
    39   21   20 ar   
    40   43   20 1    
    41   22   21 1    
    42   25   21 ar   
    43   23   22 am   
    44   24   22 2    
    45   44   23 1    
    46   45   23 1    
    47   26   25 ar   
    48   46   25 1    
    49   27   26 ar   
    50   47   26 1    
    51   48   27 1    
@<TRIPOS>SUBSTRUCTURE
     1 I4A132      1 GROUP   
@<TRIPOS>SET

