#    Name: 1ry0_PG2_2_INTS_M
#    Modification time : Tue Mar 25 01:28:02 2014

@<TRIPOS>MOLECULE
1ry0_PG2_2_INTS_M
   64     0     9     0     0
SMALL
NO_CHARGES


@<TRIPOS>ATOM
      1 CA         15.8875  -10.5655   47.5105 C.3       3 GLC5        0.0000 
      2 CA         14.5680  -11.6500   46.3930 C.3       9 GLL5        0.0000 
      3 CA         17.2070   -9.4810   48.6280 C.3       6 GLP5        0.0000 
      4 CA         15.6890  -15.4990   46.2165 C.3       3 GLC5        0.0000 
      5 CA         14.4190  -14.1960   46.4960 C.3       9 GLL5        0.0000 
      6 CA         16.9590  -16.8020   45.9370 C.3       6 GLP5        0.0000 
      7 CA         15.8945  -15.9865   47.5660 C.3       3 GLC5        0.0000 
      8 CA         14.5490  -14.7450   47.9020 C.3       9 GLL5        0.0000 
      9 CA         17.2400  -17.2280   47.2300 C.3       6 GLP5        0.0000 
     10 CA         15.1125  -16.9755   48.1295 C.3       3 GLC5        0.0000 
     11 CA         13.7730  -15.7090   48.4700 C.3       9 GLL5        0.0000 
     12 CA         16.4520  -18.2420   47.7890 C.3       6 GLP5        0.0000 
     13 CA         14.0355  -17.6385   47.5200 C.3       3 GLC5        0.0000 
     14 CA         12.6700  -16.4840   48.0180 C.3       9 GLL5        0.0000 
     15 CA         15.4010  -18.7930   47.0220 C.3       6 GLP5        0.0000 
     16 CA         10.0415  -17.8130   45.5940 C.3       3 GLC5        0.0000 
     17 CA         10.4200  -16.2240   46.8170 C.3       9 GLL5        0.0000 
     18 CA          9.6630  -19.4020   44.3710 C.3       6 GLP5        0.0000 
     19 CA          8.3655  -17.9385   46.1120 C.3       3 GLC5        0.0000 
     20 CA          9.3760  -17.0010   47.4430 C.3       9 GLL5        0.0000 
     21 CA          7.3550  -18.8760   44.7810 C.3       6 GLP5        0.0000 
     22 CA          7.4530  -16.5275   47.1800 C.3       3 GLC5        0.0000 
     23 CA          5.5300  -16.0540   46.9170 C.3       6 GLP5        0.0000 
     24 CA         13.2155   -9.6395   54.1030 C.3       3 GLC5        0.0000 
     25 CA         12.0590  -11.3250   54.6560 C.3       9 GLL5        0.0000 
     26 CA         14.3720   -7.9540   53.5500 C.3       6 GLP5        0.0000 
     27 CA         13.8200  -13.2500   54.6275 C.3       3 GLC5        0.0000 
     28 CA         12.9440  -11.8440   55.6570 C.3       9 GLL5        0.0000 
     29 CA         14.6960  -14.6560   53.5980 C.3       6 GLP5        0.0000 
     30 CA         14.2340   -9.3865   54.7910 C.3       3 GLC5        0.0000 
     31 CA         14.0960  -10.8190   56.0320 C.3       9 GLL5        0.0000 
     32 CA         14.5520  -12.2355   54.3550 C.3       3 GLC5        0.0000 
     33 CA         15.0080  -13.6520   52.6780 C.3       6 GLP5        0.0000 
     34 CA         15.7430   -9.9000   56.4055 C.3       3 GLC5        0.0000 
     35 CA         17.3900   -8.9810   56.7790 C.3       6 GLP5        0.0000 
     36 CA         13.2615   -9.4720   57.1620 C.3       3 GLC5        0.0000 
     37 CA         12.4270   -8.1250   58.2920 C.3       6 GLP5        0.0000 
     38 N          14.0045   -9.5550   44.5725 N.am      2 SEC2        0.0000 
     39 N          13.5020   -9.6870   45.8220 N.am      8 SEL2        0.0000 
     40 N          14.5070   -9.4230   43.3230 N.am      5 SEP2        0.0000 
     41 N           6.2555  -16.1115   49.1380 N.am      2 SEC2        0.0000 
     42 N           7.9690  -15.9990   49.1920 N.am      8 SEL2        0.0000 
     43 N           4.5420  -16.2240   49.0840 N.am      5 SEP2        0.0000 
     44 O           8.4265  -13.0655   52.2400 O.2       1 ALC1        0.0000 
     45 O           9.2710  -12.1180   51.6590 O.2       7 ALL1        0.0000 
     46 O           7.5820  -14.0130   52.8210 O.2       4 ALP1        0.0000 
     47 CA         15.0535  -15.2675   49.6955 C.3       3 GLC5        0.0000 
     48 CA         15.9460  -15.3080   51.2050 C.3       6 GLP5        0.0000 
     49 CA          9.4202  -14.9111   46.7260 C.3       3 GLC5        0.0000 
     50 CA         11.3660  -15.7390   47.8570 C.3       9 GLL5        0.0000 
     51 CA          8.7060  -13.3310   46.0620 C.3       6 GLP5        0.0000 
     52 CA          9.5767  -14.1433   47.7387 C.3       3 GLC5        0.0000 
     53 CA         10.4690  -15.6330   49.1570 C.3       9 GLL5        0.0000 
     54 CA          9.2621  -15.5656   51.2211 C.3       3 GLC5        0.0000 
     55 CA         10.4260  -14.2780   49.6740 C.3       9 GLL5        0.0000 
     56 CA          7.9450  -16.7530   52.3160 C.3       6 GLP5        0.0000 
     57 CA         10.1597  -11.0535   55.1532 C.3       3 GLC5        0.0000 
     58 CA         11.5200  -12.4030   53.6010 C.3       9 GLL5        0.0000 
     59 CA          8.5300  -10.2430   56.1780 C.3       6 GLP5        0.0000 
     60 CA         13.4159  -12.6864   53.2302 C.3       3 GLC5        0.0000 
     61 CA         15.3935  -11.7698   55.3173 C.3       3 GLC5        0.0000 
     62 CA         17.2670  -12.2080   54.7900 C.3       6 GLP5        0.0000 
     63 CA         13.9345  -12.2053   57.3713 C.3       3 GLC5        0.0000 
     64 CA         14.3490  -13.0790   58.8980 C.3       6 GLP5        0.0000 
@<TRIPOS>BOND
@<TRIPOS>SUBSTRUCTURE
     1 ALC1       44 GROUP        1 X    ALC  0     ROOT ALC X 1
     2 SEC2       38 GROUP        1 X    SEC  0     **** SEC X 2
     3 GLC5        1 GROUP        1 X    GLC  0     **** GLC X 6
     4 ALP1       46 GROUP        1 Y    ALP  0     ROOT ALP Y 8
     5 SEP2       40 GROUP        1 Y    SEP  0     **** SEP Y 9
     6 GLP5        3 GROUP        1 Y    GLP  0     **** GLP Y 13
     7 ALL1       45 GROUP        1 Z    ALL  0     ROOT ALL Z 15
     8 SEL2       39 GROUP        1 Z    SEL  0     **** SEL Z 16
     9 GLL5        2 GROUP        1 Z    GLL  0     **** GLL Z 20
@<TRIPOS>SET

