#    Name: 1ry0_PG2_2_ligand
#    Modification time : Tue Mar 25 01:28:02 2014

@<TRIPOS>MOLECULE
1ry0_PG2_2_ligand
   56    56     1     0     0
SMALL
NO_CHARGES


@<TRIPOS>ATOM
      1 C1         13.9940  -10.3410   46.7710 C.2       1 PG23325     0.0000 
      2 C2         14.5680  -11.6500   46.3930 C.3       1 PG23325     0.0000 
      3 C3         13.6690  -12.8670   46.5260 C.3       1 PG23325     0.0000 
      4 C4         14.4190  -14.1960   46.4960 C.3       1 PG23325     0.0000 
      5 C5         14.5490  -14.7450   47.9020 C.2       1 PG23325     0.0000 
      6 C6         13.7730  -15.7090   48.4700 C.2       1 PG23325     0.0000 
      7 C7         12.6700  -16.4840   48.0180 C.3       1 PG23325     0.0000 
      8 C8         11.3660  -15.7390   47.8570 C.3       1 PG23325     0.0000 
      9 C9         10.4200  -16.2240   46.8170 C.3       1 PG23325     0.0000 
     10 C10         9.3760  -17.0010   47.4430 C.3       1 PG23325     0.0000 
     11 C11         9.0500  -16.1990   48.6680 C.2       1 PG23325     0.0000 
     12 C12        10.4690  -15.6330   49.1570 C.3       1 PG23325     0.0000 
     13 C13        10.4260  -14.2780   49.6740 C.2       1 PG23325     0.0000 
     14 C14        10.7110  -13.8010   50.8370 C.2       1 PG23325     0.0000 
     15 C15        10.6020  -12.3750   51.1530 C.3       1 PG23325     0.0000 
     16 C16        11.6570  -11.8300   52.2170 C.3       1 PG23325     0.0000 
     17 C17        11.5200  -12.4030   53.6010 C.3       1 PG23325     0.0000 
     18 C18        12.0590  -11.3250   54.6560 C.3       1 PG23325     0.0000 
     19 C19        12.9440  -11.8440   55.6570 C.3       1 PG23325     0.0000 
     20 C20        14.0960  -10.8190   56.0320 C.3       1 PG23325     0.0000 
     21 O1         14.1630   -9.9330   47.8800 O.co2     1 PG23325     0.0000 
     22 O2         13.5020   -9.6870   45.8220 O.co2     1 PG23325     0.0000 
     23 O3         10.9800  -16.9030   45.7130 O.3       1 PG23325     0.0000 
     24 O4          7.9690  -15.9990   49.1920 O.2       1 PG23325     0.0000 
     25 O5          9.2710  -12.1180   51.6590 O.3       1 PG23325     0.0000 
     26 H          15.4968  -11.8396   46.9958 H         1 PG23325     0.0000 
     27 H          14.9341  -11.6058   45.3319 H         1 PG23325     0.0000 
     28 H          12.9269  -12.8588   45.7098 H         1 PG23325     0.0000 
     29 H          13.1052  -12.7979   47.4717 H         1 PG23325     0.0000 
     30 H          15.4068  -14.0390   46.0725 H         1 PG23325     0.0000 
     31 H          13.8711  -14.9013   45.8778 H         1 PG23325     0.0000 
     32 H          15.3396  -14.2972   48.4523 H         1 PG23325     0.0000 
     33 H          14.0524  -15.9620   49.5352 H         1 PG23325     0.0000 
     34 H          12.4786  -17.3489   48.7105 H         1 PG23325     0.0000 
     35 H          12.9015  -16.9716   47.0316 H         1 PG23325     0.0000 
     36 H          11.5867  -14.6640   47.6059 H         1 PG23325     0.0000 
     37 H           9.8982  -15.2832   46.4236 H         1 PG23325     0.0000 
     38 H           9.7274  -17.9679   47.7370 H         1 PG23325     0.0000 
     39 H           8.5073  -17.0659   46.8218 H         1 PG23325     0.0000 
     40 H          10.8572  -16.3517   49.8493 H         1 PG23325     0.0000 
     41 H          10.0792  -13.5650   48.8864 H         1 PG23325     0.0000 
     42 H          11.0410  -14.3982   51.6400 H         1 PG23325     0.0000 
     43 H          10.7523  -11.7777   50.2468 H         1 PG23325     0.0000 
     44 H          11.5480  -10.7324   52.2426 H         1 PG23325     0.0000 
     45 H          12.6605  -12.0422   51.8105 H         1 PG23325     0.0000 
     46 H          12.1176  -13.2887   53.7159 H         1 PG23325     0.0000 
     47 H          10.4907  -12.5977   53.8410 H         1 PG23325     0.0000 
     48 H          11.1505  -10.8622   55.0993 H         1 PG23325     0.0000 
     49 H          12.5368  -10.5263   54.0479 H         1 PG23325     0.0000 
     50 H          13.4485  -12.7663   55.3304 H         1 PG23325     0.0000 
     51 H          12.4207  -12.0748   56.5976 H         1 PG23325     0.0000 
     52 H          14.7102  -11.1893   56.7289 H         1 PG23325     0.0000 
     53 H          14.6589  -10.5865   55.2389 H         1 PG23325     0.0000 
     54 H          13.7277   -9.9616   56.3915 H         1 PG23325     0.0000 
     55 H          11.9370  -16.6139   45.6898 H         1 PG23325     0.0000 
     56 H           8.9640  -12.9922   52.0353 H         1 PG23325     0.0000 
@<TRIPOS>BOND
     1    2    1 1    
     2   21    1 ar   
     3   22    1 ar   
     4    3    2 1    
     5   26    2 1    
     6   27    2 1    
     7    4    3 1    
     8   28    3 1    
     9   29    3 1    
    10    5    4 1    
    11   30    4 1    
    12   31    4 1    
    13    6    5 2    
    14   32    5 1    
    15    7    6 1    
    16   33    6 1    
    17    8    7 1    
    18   34    7 1    
    19   35    7 1    
    20    9    8 1    
    21   12    8 1    
    22   36    8 1    
    23   10    9 1    
    24   23    9 1    
    25   37    9 1    
    26   11   10 1    
    27   38   10 1    
    28   39   10 1    
    29   12   11 1    
    30   24   11 2    
    31   13   12 1    
    32   40   12 1    
    33   14   13 2    
    34   41   13 1    
    35   15   14 1    
    36   42   14 1    
    37   16   15 1    
    38   25   15 1    
    39   43   15 1    
    40   17   16 1    
    41   44   16 1    
    42   45   16 1    
    43   18   17 1    
    44   46   17 1    
    45   47   17 1    
    46   19   18 1    
    47   48   18 1    
    48   49   18 1    
    49   20   19 1    
    50   50   19 1    
    51   51   19 1    
    52   52   20 1    
    53   53   20 1    
    54   54   20 1    
    55   55   23 1    
    56   56   25 1    
@<TRIPOS>SUBSTRUCTURE
     1 PG23325     1 GROUP   
@<TRIPOS>SET

