#    Name: 4b4g_KKT_1_INTS_M
#    Modification time : Tue Mar 25 06:38:18 2014

@<TRIPOS>MOLECULE
4b4g_KKT_1_INTS_M
   50     0     9     0     0
SMALL
NO_CHARGES


@<TRIPOS>ATOM
      1 CA         35.4975    8.9325   10.9160 C.3       3 GLC5        0.0000 
      2 CA         37.2140    7.7820   11.0500 C.3       9 GLL5        0.0000 
      3 CA         33.7810   10.0830   10.7820 C.3       6 GLP5        0.0000 
      4 CA         35.4830    8.8575   12.3095 C.3       3 GLC5        0.0000 
      5 CA         37.1740    7.6680   12.4460 C.3       9 GLL5        0.0000 
      6 CA         33.7920   10.0470   12.1730 C.3       6 GLP5        0.0000 
      7 CA         36.9130    5.3435   14.6250 C.3       3 GLC5        0.0000 
      8 CA         37.7280    6.5620   13.0810 C.3       9 GLL5        0.0000 
      9 CA         36.0980    4.1250   16.1690 C.3       6 GLP5        0.0000 
     10 CA         37.5995    3.9815   13.4325 C.3       3 GLC5        0.0000 
     11 CA         38.3330    5.5680   12.3100 C.3       9 GLL5        0.0000 
     12 CA         36.8660    2.3950   14.5550 C.3       6 GLP5        0.0000 
     13 O          38.1265    0.1675   11.7755 O.2       1 ALC1        0.0000 
     14 O          37.5200    1.3720   11.2640 O.2       7 ALL1        0.0000 
     15 O          38.7330   -1.0370   12.2870 O.2       4 ALP1        0.0000 
     16 N          35.7300   -1.1535   11.1555 N.am      2 SEC2        0.0000 
     17 N          35.8620    0.0910   10.4560 N.am      8 SEL2        0.0000 
     18 N          35.5980   -2.3980   11.8550 N.am      5 SEP2        0.0000 
     19 CA         34.7645    3.0385   10.5015 C.3       3 GLC5        0.0000 
     20 CA         36.3550    2.0560    9.2980 C.3       9 GLL5        0.0000 
     21 CA         33.1740    4.0210   11.7050 C.3       6 GLP5        0.0000 
     22 CA         34.8885   -0.1835    5.9540 C.3       3 GLC5        0.0000 
     23 CA         35.9960    0.8980    7.2370 C.3       9 GLL5        0.0000 
     24 CA         33.7810   -1.2650    4.6710 C.3       6 GLP5        0.0000 
     25 N          32.5545    1.6985    5.6555 N.am      2 SEC2        0.0000 
     26 N          33.4100    1.9710    6.8910 N.am      8 SEL2        0.0000 
     27 N          31.6990    1.4260    4.4200 N.am      5 SEP2        0.0000 
     28 CA         33.6965   -1.1625    9.0550 C.3       3 GLC5        0.0000 
     29 CA         33.1500    0.9250    9.4120 C.3       9 GLL5        0.0000 
     30 CA         34.2430   -3.2500    8.6980 C.3       6 GLP5        0.0000 
     31 CA         30.1940    1.6345   12.8520 C.3       3 GLC5        0.0000 
     32 CA         31.4650    0.9640   11.2850 C.3       9 GLL5        0.0000 
     33 CA         28.9230    2.3050   14.4190 C.3       6 GLP5        0.0000 
     34 CA         32.6440   -1.8125   12.2675 C.3       3 GLC5        0.0000 
     35 CA         31.6870   -0.5040   11.4530 C.3       9 GLL5        0.0000 
     36 CA         33.6010   -3.1210   13.0820 C.3       6 GLP5        0.0000 
     37 CA         35.7280    6.7250   12.4365 C.3       3 GLC5        0.0000 
     38 CA         34.2620    5.7250   13.1250 C.3       6 GLP5        0.0000 
     39 CA         36.1463    5.8950   12.9103 C.3       3 GLC5        0.0000 
     40 CA         39.5598    6.2655   13.7067 C.3       3 GLC5        0.0000 
     41 CA         41.0890    6.4660   14.7180 C.3       6 GLP5        0.0000 
     42 CA         40.3873    5.2942   11.5845 C.3       3 GLC5        0.0000 
     43 CA         38.3890    5.6680   10.9170 C.3       9 GLL5        0.0000 
     44 CA         42.0910    5.4280   12.6350 C.3       6 GLP5        0.0000 
     45 CA         30.6313    2.6473    9.8798 C.3       3 GLC5        0.0000 
     46 CA         31.7340    1.3110    9.8060 C.3       9 GLL5        0.0000 
     47 CA         29.6630    4.1570    9.2140 C.3       6 GLP5        0.0000 
     48 CA         32.0645   -0.0260   13.2925 C.3       3 GLC5        0.0000 
     49 CA         32.5530   -0.2820   15.2160 C.3       6 GLP5        0.0000 
     50 CA         32.5637    2.5310   11.0760 C.3       3 GLC5        0.0000 
@<TRIPOS>BOND
@<TRIPOS>SUBSTRUCTURE
     1 ALC1       13 GROUP        1 X    ALC  0     ROOT ALC X 1
     2 SEC2       16 GROUP        1 X    SEC  0     **** SEC X 2
     3 GLC5        1 GROUP        1 X    GLC  0     **** GLC X 6
     4 ALP1       15 GROUP        1 Y    ALP  0     ROOT ALP Y 8
     5 SEP2       18 GROUP        1 Y    SEP  0     **** SEP Y 9
     6 GLP5        3 GROUP        1 Y    GLP  0     **** GLP Y 13
     7 ALL1       14 GROUP        1 Z    ALL  0     ROOT ALL Z 15
     8 SEL2       17 GROUP        1 Z    SEL  0     **** SEL Z 16
     9 GLL5        2 GROUP        1 Z    GLL  0     **** GLL Z 20
@<TRIPOS>SET

