#    Name: 4b4g_KKT_1_ligand
#    Modification time : Tue Mar 25 06:38:18 2014

@<TRIPOS>MOLECULE
4b4g_KKT_1_ligand
   47    48     1     0     0
SMALL
NO_CHARGES


@<TRIPOS>ATOM
      1 CAW        37.8170    6.7790   10.2840 C.ar      1 KKT400      0.0000 
      2 CAX        37.2140    7.7820   11.0500 C.ar      1 KKT400      0.0000 
      3 CBA        37.1740    7.6680   12.4460 C.ar      1 KKT400      0.0000 
      4 CAZ        37.7280    6.5620   13.0810 C.ar      1 KKT400      0.0000 
      5 CAY        38.3330    5.5680   12.3100 C.ar      1 KKT400      0.0000 
      6 CAV        38.3890    5.6680   10.9170 C.ar      1 KKT400      0.0000 
      7 CAU        38.9780    4.6530   10.1510 C.3       1 KKT400      0.0000 
      8 NAN        38.1190    3.4290   10.1720 N.am      1 KKT400      0.0000 
      9 CAO        37.1740    3.1830    9.2330 C.2       1 KKT400      0.0000 
     10 NAP        36.9580    4.0080    8.2300 N.pl3     1 KKT400      0.0000 
     11 CAM        38.2910    2.5520   11.1720 C.2       1 KKT400      0.0000 
     12 OAL        39.1480    2.7940   12.0180 O.2       1 KKT400      0.0000 
     13 NAD        37.5200    1.3720   11.2640 N.am      1 KKT400      0.0000 
     14 CAE        36.5290    1.1210   10.3320 C.2       1 KKT400      0.0000 
     15 OAA        35.8620    0.0910   10.4560 O.2       1 KKT400      0.0000 
     16 CAF        36.3550    2.0560    9.2980 C.2       1 KKT400      0.0000 
     17 NAG        35.4850    1.7950    8.2840 N.pl3     1 KKT400      0.0000 
     18 CAB        35.9960    0.8980    7.2370 C.3       1 KKT400      0.0000 
     19 SAH        33.9440    2.1590    8.2930 S.o2      1 KKT400      0.0000 
     20 OAC        33.7240    3.6030    8.6830 O.2       1 KKT400      0.0000 
     21 OAQ        33.4100    1.9710    6.8910 O.2       1 KKT400      0.0000 
     22 CAI        33.1500    0.9250    9.4120 C.3       1 KKT400      0.0000 
     23 CAJ        31.7340    1.3110    9.8060 C.3       1 KKT400      0.0000 
     24 CAK        31.4650    0.9640   11.2850 C.3       1 KKT400      0.0000 
     25 CAT        31.6870   -0.5040   11.4530 C.3       1 KKT400      0.0000 
     26 H          37.8407    6.8558    9.2632 H         1 KKT400      0.0000 
     27 H          36.8012    8.6005   10.5915 H         1 KKT400      0.0000 
     28 H          36.7293    8.4125   13.0025 H         1 KKT400      0.0000 
     29 H          37.6940    6.4757   14.0981 H         1 KKT400      0.0000 
     30 H          38.7471    4.7432   12.7766 H         1 KKT400      0.0000 
     31 H          39.9767    4.3769   10.5326 H         1 KKT400      0.0000 
     32 H          39.1133    4.9582    9.0985 H         1 KKT400      0.0000 
     33 H          36.2154    3.7596    7.6080 H         1 KKT400      0.0000 
     34 H          37.5562    4.8079    8.1815 H         1 KKT400      0.0000 
     35 H          37.7047    0.7106   12.0253 H         1 KKT400      0.0000 
     36 H          33.8431    0.9028   10.2307 H         1 KKT400      0.0000 
     37 H          33.2135    0.0308    8.8224 H         1 KKT400      0.0000 
     38 H          31.0210    0.7735    9.1850 H         1 KKT400      0.0000 
     39 H          31.5929    2.3803    9.6659 H         1 KKT400      0.0000 
     40 H          30.4455    1.2229   11.5198 H         1 KKT400      0.0000 
     41 H          32.1497    1.5242   11.9005 H         1 KKT400      0.0000 
     42 H          36.8124    1.2699    6.7953 H         1 KKT400      0.0000 
     43 H          36.2441    0.0017    7.6045 H         1 KKT400      0.0000 
     44 H          35.3187    0.7427    6.5179 H         1 KKT400      0.0000 
     45 H          32.6218   -0.7679   11.2152 H         1 KKT400      0.0000 
     46 H          31.5304   -0.7978   12.3959 H         1 KKT400      0.0000 
     47 H          31.0744   -1.0410   10.8731 H         1 KKT400      0.0000 
@<TRIPOS>BOND
     1    2    1 ar   
     2    6    1 ar   
     3   26    1 1    
     4    3    2 ar   
     5   27    2 1    
     6    4    3 ar   
     7   28    3 1    
     8    5    4 ar   
     9   29    4 1    
    10    6    5 ar   
    11   30    5 1    
    12    7    6 1    
    13    8    7 1    
    14   31    7 1    
    15   32    7 1    
    16    9    8 1    
    17   11    8 1    
    18   10    9 1    
    19   16    9 2    
    20   33   10 1    
    21   34   10 1    
    22   12   11 2    
    23   13   11 1    
    24   14   13 1    
    25   35   13 1    
    26   15   14 2    
    27   16   14 1    
    28   17   16 1    
    29   18   17 1    
    30   19   17 1    
    31   42   18 1    
    32   43   18 1    
    33   44   18 1    
    34   20   19 2    
    35   21   19 2    
    36   22   19 1    
    37   23   22 1    
    38   36   22 1    
    39   37   22 1    
    40   24   23 1    
    41   38   23 1    
    42   39   23 1    
    43   25   24 1    
    44   40   24 1    
    45   41   24 1    
    46   45   25 1    
    47   46   25 1    
    48   47   25 1    
@<TRIPOS>SUBSTRUCTURE
     1 KKT400      1 GROUP   
@<TRIPOS>SET

