#    Name: 3lk1_JKE_1_INTS_M
#    Modification time : Mon Mar 24 21:44:23 2014

@<TRIPOS>MOLECULE
3lk1_JKE_1_INTS_M
    9     0     3     0     0
SMALL
NO_CHARGES


@<TRIPOS>ATOM
      1 CA        -14.1065    8.7048   -7.0532 C.3       1 GLC5        0.0000 
      2 CA        -13.4850   10.5490   -8.3440 C.3       3 GLL5        0.0000 
      3 CA        -14.2310    7.4010   -5.3380 C.3       2 GLP5        0.0000 
      4 CA        -15.4040   11.5297   -6.2990 C.3       1 GLC5        0.0000 
      5 CA        -14.0480   11.4490   -7.4460 C.3       3 GLL5        0.0000 
      6 CA        -17.1670   11.1670   -5.5020 C.3       2 GLP5        0.0000 
      7 CA        -12.2650   14.1765   -6.3360 C.3       1 GLC5        0.0000 
      8 CA        -13.2340   12.3360   -6.7460 C.3       3 GLL5        0.0000 
      9 CA        -11.9870   16.0140   -5.8340 C.3       2 GLP5        0.0000 
@<TRIPOS>BOND
@<TRIPOS>SUBSTRUCTURE
     1 GLC5        1 GROUP        1 X    GLC  0     ROOT GLC X 6
     2 GLP5        3 GROUP        1 Y    GLP  0     ROOT GLP Y 13
     3 GLL5        2 GROUP        1 Z    GLL  0     ROOT GLL Z 20
@<TRIPOS>SET

