#    Name: 3lk1_JKE_1_ligand
#    Modification time : Mon Mar 24 21:44:23 2014

@<TRIPOS>MOLECULE
3lk1_JKE_1_ligand
   14    14     1     0     0
SMALL
NO_CHARGES


@<TRIPOS>ATOM
      1 SD        -14.4790    9.4680   -9.1930 S.3       1 JKE93       0.0000 
      2 CG        -11.3500    9.6020   -9.4850 C.2       1 JKE93       0.0000 
      3 CZ        -12.0090   10.5540   -8.5370 C.ar      1 JKE93       0.0000 
      4 CD1       -14.0480   11.4490   -7.4460 C.ar      1 JKE93       0.0000 
      5 OD1       -11.5380    9.7380  -10.7110 O.co2     1 JKE93       0.0000 
      6 CD2       -11.8520   12.3420   -6.9300 C.ar      1 JKE93       0.0000 
      7 OD2       -10.6300    8.6940   -9.0190 O.co2     1 JKE93       0.0000 
      8 CE1       -13.4850   10.5490   -8.3440 C.ar      1 JKE93       0.0000 
      9 CE2       -11.2390   11.4600   -7.8160 C.ar      1 JKE93       0.0000 
     10 CG1       -13.2340   12.3360   -6.7460 C.ar      1 JKE93       0.0000 
     11 H         -15.0653   11.4604   -7.2981 H         1 JKE93       0.0000 
     12 H         -11.2718   13.0148   -6.3978 H         1 JKE93       0.0000 
     13 H         -10.2188   11.4792   -7.9363 H         1 JKE93       0.0000 
     14 H         -13.6610   13.0015   -6.0785 H         1 JKE93       0.0000 
@<TRIPOS>BOND
     1    8    1 1    
     2    3    2 1    
     3    5    2 ar   
     4    7    2 ar   
     5    8    3 ar   
     6    9    3 ar   
     7    8    4 ar   
     8   10    4 ar   
     9   11    4 1    
    10    9    6 ar   
    11   10    6 ar   
    12   12    6 1    
    13   13    9 1    
    14   14   10 1    
@<TRIPOS>SUBSTRUCTURE
     1 JKE93       1 GROUP   
@<TRIPOS>SET

