#    Name: 1e8w_QUE_1_INTS_M
#    Modification time : Mon Mar 24 23:15:35 2014

@<TRIPOS>MOLECULE
1e8w_QUE_1_INTS_M
   45     0     9     0     0
SMALL
NO_CHARGES


@<TRIPOS>ATOM
      1 CA         19.9125   61.4075   20.2275 C.3       3 GLC5        0.0000 
      2 CA         19.8870   62.7610   22.0100 C.3       9 GLL5        0.0000 
      3 CA         19.9380   60.0540   18.4450 C.3       6 GLP5        0.0000 
      4 CA         21.7320   58.5270   22.1480 C.3       3 GLC5        0.0000 
      5 CA         20.7530   60.1900   23.2100 C.3       9 GLL5        0.0000 
      6 CA         22.7110   56.8640   21.0860 C.3       6 GLP5        0.0000 
      7 CA         20.7995   60.5705   20.4330 C.3       3 GLC5        0.0000 
      8 CA         21.6610   61.0870   22.4210 C.3       9 GLL5        0.0000 
      9 N          17.8330   58.9055   24.1555 N.am      2 SEC2        0.0000 
     10 N          18.6770   59.9140   23.9370 N.am      8 SEL2        0.0000 
     11 N          16.9890   57.8970   24.3740 N.am      5 SEP2        0.0000 
     12 O          26.2535   63.6525   20.6910 O.2       1 ALC1        0.0000 
     13 O          25.6000   62.6310   19.9020 O.2       7 ALL1        0.0000 
     14 O          26.9070   64.6740   21.4800 O.2       4 ALP1        0.0000 
     15 N          27.6245   60.5885   19.5980 N.am      2 SEC2        0.0000 
     16 N          27.2450   60.4850   20.9710 N.am      8 SEL2        0.0000 
     17 N          28.0040   60.6920   18.2250 N.am      5 SEP2        0.0000 
     18 O          20.4930   57.8255   23.1405 O.2       1 ALC1        0.0000 
     19 O          21.0830   58.9730   23.8060 O.2       7 ALL1        0.0000 
     20 O          19.9030   56.6780   22.4750 O.2       4 ALP1        0.0000 
     21 CA         18.0870   63.9735   23.7540 C.3       3 GLC5        0.0000 
     22 CA         17.6500   62.5220   22.8010 C.3       9 GLL5        0.0000 
     23 CA         18.6850   64.7590   25.0010 C.3       6 GLP5        0.0000 
     24 CA         19.7812   63.0520   23.8770 C.3       3 GLC5        0.0000 
     25 CA         18.9720   61.9470   22.7380 C.3       9 GLL5        0.0000 
     26 CA         20.1330   63.7500   25.3800 C.3       6 GLP5        0.0000 
     27 CA         18.8270   64.5570   23.2345 C.3       3 GLC5        0.0000 
     28 CA         19.6050   64.0500   21.4300 C.3       9 GLL5        0.0000 
     29 CA         20.6700   62.1942   24.0978 C.3       3 GLC5        0.0000 
     30 CA         23.2420   62.5335   23.1408 C.3       3 GLC5        0.0000 
     31 CA         24.1250   64.0980   24.0010 C.3       6 GLP5        0.0000 
     32 CA         23.0903   58.5832   21.7372 C.3       3 GLC5        0.0000 
     33 CA         23.0570   60.8510   22.1400 C.3       9 GLL5        0.0000 
     34 CA         25.3165   58.9988   20.6578 C.3       3 GLC5        0.0000 
     35 CA         25.2860   59.6570   22.2540 C.3       9 GLL5        0.0000 
     36 CA         25.0480   57.8630   19.5150 C.3       6 GLP5        0.0000 
     37 CA         25.1415   61.1809   23.6736 C.3       3 GLC5        0.0000 
     38 CA         25.8840   60.6120   21.3470 C.3       9 GLL5        0.0000 
     39 CA         25.0490   62.2030   25.4510 C.3       6 GLP5        0.0000 
     40 CA         24.7312   59.8030   20.2673 C.3       3 GLC5        0.0000 
     41 CA         23.7320   61.7850   21.2330 C.3       9 GLL5        0.0000 
     42 CA         24.2698   62.9205   22.5102 C.3       3 GLC5        0.0000 
     43 CA         25.0970   61.7010   20.8060 C.3       9 GLL5        0.0000 
     44 CA         26.9610   61.5079   22.2716 C.3       3 GLC5        0.0000 
     45 CA         28.5810   62.0980   23.2400 C.3       6 GLP5        0.0000 
@<TRIPOS>BOND
@<TRIPOS>SUBSTRUCTURE
     1 ALC1       12 GROUP        1 X    ALC  0     ROOT ALC X 1
     2 SEC2        9 GROUP        1 X    SEC  0     **** SEC X 2
     3 GLC5        1 GROUP        1 X    GLC  0     **** GLC X 6
     4 ALP1       14 GROUP        1 Y    ALP  0     ROOT ALP Y 8
     5 SEP2       11 GROUP        1 Y    SEP  0     **** SEP Y 9
     6 GLP5        3 GROUP        1 Y    GLP  0     **** GLP Y 13
     7 ALL1       13 GROUP        1 Z    ALL  0     ROOT ALL Z 15
     8 SEL2       10 GROUP        1 Z    SEL  0     **** SEL Z 16
     9 GLL5        2 GROUP        1 Z    GLL  0     **** GLL Z 20
@<TRIPOS>SET

