#    Name: 1e8w_QUE_1_ligand
#    Modification time : Mon Mar 24 23:15:35 2014

@<TRIPOS>MOLECULE
1e8w_QUE_1_ligand
   32    34     1     0     0
SMALL
NO_CHARGES


@<TRIPOS>ATOM
      1 C1         17.3280   63.8540   22.2130 C.ar      1 QUE2095     0.0000 
      2 C2         17.6500   62.5220   22.8010 C.ar      1 QUE2095     0.0000 
      3 C3         18.9720   61.9470   22.7380 C.ar      1 QUE2095     0.0000 
      4 C4         19.8870   62.7610   22.0100 C.ar      1 QUE2095     0.0000 
      5 C5         19.6050   64.0500   21.4300 C.ar      1 QUE2095     0.0000 
      6 C6         18.3330   64.6600   21.5060 C.ar      1 QUE2095     0.0000 
      7 C9         19.4140   60.6480   23.3170 C.2       1 QUE2095     0.0000 
      8 C10        20.7530   60.1900   23.2100 C.2       1 QUE2095     0.0000 
      9 C11        21.6610   61.0870   22.4210 C.2       1 QUE2095     0.0000 
     10 C14        23.0570   60.8510   22.1400 C.ar      1 QUE2095     0.0000 
     11 C15        23.8820   59.7540   22.6370 C.ar      1 QUE2095     0.0000 
     12 C16        25.2860   59.6570   22.2540 C.ar      1 QUE2095     0.0000 
     13 C17        25.8840   60.6120   21.3470 C.ar      1 QUE2095     0.0000 
     14 C18        25.0970   61.7010   20.8060 C.ar      1 QUE2095     0.0000 
     15 C19        23.7320   61.7850   21.2330 C.ar      1 QUE2095     0.0000 
     16 O12        21.1610   62.2980   21.8810 O.3       1 QUE2095     0.0000 
     17 O13        18.6770   59.9140   23.9370 O.2       1 QUE2095     0.0000 
     18 O23        25.6000   62.6310   19.9020 O.3       1 QUE2095     0.0000 
     19 O24        27.2450   60.4850   20.9710 O.3       1 QUE2095     0.0000 
     20 O27        21.0830   58.9730   23.8060 O.3       1 QUE2095     0.0000 
     21 O29        18.1540   65.9470   20.9250 O.3       1 QUE2095     0.0000 
     22 O30        16.6330   61.8640   23.4510 O.3       1 QUE2095     0.0000 
     23 H          16.3820   64.2074   22.3089 H         1 QUE2095     0.0000 
     24 H          20.3748   64.5400   20.9396 H         1 QUE2095     0.0000 
     25 H          23.4791   59.0609   23.2474 H         1 QUE2095     0.0000 
     26 H          25.8508   58.9020   22.6345 H         1 QUE2095     0.0000 
     27 H          23.1511   62.5836   20.8706 H         1 QUE2095     0.0000 
     28 H          25.8306   63.4313   20.4555 H         1 QUE2095     0.0000 
     29 H          27.7517   60.4749   21.8331 H         1 QUE2095     0.0000 
     30 H          20.6274   58.2796   23.2478 H         1 QUE2095     0.0000 
     31 H          18.7505   66.5435   21.4619 H         1 QUE2095     0.0000 
     32 H          17.0474   61.0203   23.7924 H         1 QUE2095     0.0000 
@<TRIPOS>BOND
     1    2    1 ar   
     2    6    1 ar   
     3   23    1 1    
     4    3    2 ar   
     5   22    2 1    
     6    4    3 ar   
     7    7    3 1    
     8    5    4 ar   
     9   16    4 1    
    10    6    5 ar   
    11   24    5 1    
    12   21    6 1    
    13    8    7 1    
    14   17    7 2    
    15    9    8 2    
    16   20    8 1    
    17   10    9 1    
    18   16    9 1    
    19   11   10 ar   
    20   15   10 ar   
    21   12   11 ar   
    22   25   11 1    
    23   13   12 ar   
    24   26   12 1    
    25   14   13 ar   
    26   19   13 1    
    27   15   14 ar   
    28   18   14 1    
    29   27   15 1    
    30   28   18 1    
    31   29   19 1    
    32   30   20 1    
    33   31   21 1    
    34   32   22 1    
@<TRIPOS>SUBSTRUCTURE
     1 QUE2095     1 GROUP   
@<TRIPOS>SET

