#    Name: 4c36_ZO9_1_INTS_M
#    Modification time : Tue Mar 25 08:46:30 2014

@<TRIPOS>MOLECULE
4c36_ZO9_1_INTS_M
   45     0     9     0     0
SMALL
NO_CHARGES


@<TRIPOS>ATOM
      1 N         -34.4090   -9.7225   -4.9485 N.am      2 SEC2        0.0000 
      2 N         -33.0130  -10.0920   -4.3560 N.am      8 SEL2        0.0000 
      3 N         -35.8050   -9.3530   -5.5410 N.am      5 SEP2        0.0000 
      4 O         -34.0200  -10.1330   -1.9810 O.2       1 ALC1        0.0000 
      5 O         -32.6360   -9.7450   -2.0730 O.2       7 ALL1        0.0000 
      6 O         -35.4040  -10.5210   -1.8890 O.2       4 ALP1        0.0000 
      7 CA        -27.3445   -8.5830    1.6080 C.3       3 GLC5        0.0000 
      8 CA        -28.0590  -10.0830    0.2070 C.3       9 GLL5        0.0000 
      9 CA        -26.6300   -7.0830    3.0090 C.3       6 GLP5        0.0000 
     10 CA        -27.6375   -7.3355   -5.9615 C.3       3 GLC5        0.0000 
     11 CA        -27.8910   -9.0660   -4.6010 C.3       9 GLL5        0.0000 
     12 CA        -27.3840   -5.6050   -7.3220 C.3       6 GLP5        0.0000 
     13 CA        -29.1125   -7.5685   -4.7560 C.3       3 GLC5        0.0000 
     14 CA        -30.3340   -6.0710   -4.9110 C.3       6 GLP5        0.0000 
     15 CA        -28.7050   -9.9090   -7.0755 C.3       3 GLC5        0.0000 
     16 CA        -27.5120  -10.2450   -5.4720 C.3       9 GLL5        0.0000 
     17 CA        -29.8980   -9.5730   -8.6790 C.3       6 GLP5        0.0000 
     18 CA        -24.4240  -11.0120   -4.3165 C.3       3 GLC5        0.0000 
     19 CA        -26.1440  -10.8300   -5.3290 C.3       9 GLL5        0.0000 
     20 CA        -22.7040  -11.1940   -3.3040 C.3       6 GLP5        0.0000 
     21 CA        -27.7805  -10.0930   -8.1070 C.3       3 GLC5        0.0000 
     22 CA        -26.4990  -10.0610   -6.5580 C.3       9 GLL5        0.0000 
     23 CA        -29.0620  -10.1250   -9.6560 C.3       6 GLP5        0.0000 
     24 CA        -26.4430  -11.4942   -1.0650 C.3       3 GLC5        0.0000 
     25 CA        -25.8170   -9.5780   -0.5470 C.3       9 GLL5        0.0000 
     26 CA        -26.6230  -13.2490   -2.0930 C.3       6 GLP5        0.0000 
     27 CA        -26.8180  -11.5570    1.5445 C.3       3 GLC5        0.0000 
     28 CA        -26.7090   -9.9010    0.4730 C.3       9 GLL5        0.0000 
     29 CA        -26.2520  -13.1220    2.7490 C.3       6 GLP5        0.0000 
     30 CA        -25.8430   -8.3033    1.0140 C.3       3 GLC5        0.0000 
     31 CA        -25.4230   -6.8670    2.0650 C.3       6 GLP5        0.0000 
     32 CA        -26.7788  -11.3880   -2.0410 C.3       3 GLC5        0.0000 
     33 CA        -26.2570   -9.4310   -1.8600 C.3       9 GLL5        0.0000 
     34 CA        -27.4545  -11.6318   -1.2710 C.3       3 GLC5        0.0000 
     35 CA        -28.5130   -9.9460   -1.1050 C.3       9 GLL5        0.0000 
     36 CA        -29.6830  -10.8223    0.5625 C.3       3 GLC5        0.0000 
     37 CA        -31.0800  -11.6300    1.5740 C.3       6 GLP5        0.0000 
     38 CA        -28.9274   -8.1639   -0.2911 C.3       3 GLC5        0.0000 
     39 CA        -29.7940   -6.3940    0.1200 C.3       6 GLP5        0.0000 
     40 CA        -27.0255  -12.2487   -4.3533 C.3       3 GLC5        0.0000 
     41 CA        -27.2230  -13.9600   -3.3060 C.3       6 GLP5        0.0000 
     42 CA        -25.1962  -11.8447   -6.5887 C.3       3 GLC5        0.0000 
     43 CA        -24.0710  -13.2440   -7.2340 C.3       6 GLP5        0.0000 
     44 CA        -27.6028  -11.9426   -6.8931 C.3       3 GLC5        0.0000 
     45 CA        -28.5420  -13.5860   -7.8070 C.3       6 GLP5        0.0000 
@<TRIPOS>BOND
@<TRIPOS>SUBSTRUCTURE
     1 ALC1        4 GROUP        1 X    ALC  0     ROOT ALC X 1
     2 SEC2        1 GROUP        1 X    SEC  0     **** SEC X 2
     3 GLC5        7 GROUP        1 X    GLC  0     **** GLC X 6
     4 ALP1        6 GROUP        1 Y    ALP  0     ROOT ALP Y 8
     5 SEP2        3 GROUP        1 Y    SEP  0     **** SEP Y 9
     6 GLP5        9 GROUP        1 Y    GLP  0     **** GLP Y 13
     7 ALL1        5 GROUP        1 Z    ALL  0     ROOT ALL Z 15
     8 SEL2        2 GROUP        1 Z    SEL  0     **** SEL Z 16
     9 GLL5        8 GROUP        1 Z    GLL  0     **** GLL Z 20
@<TRIPOS>SET

