#    Name: 4c36_ZO9_1_ligand
#    Modification time : Tue Mar 25 08:46:30 2014

@<TRIPOS>MOLECULE
4c36_ZO9_1_ligand
   32    35     1     0     0
SMALL
NO_CHARGES


@<TRIPOS>ATOM
      1 C         -26.7090   -9.9010    0.4730 C.ar      1 ZO91351     0.0000 
      2 N         -29.8060  -10.0390   -1.6130 N.2       1 ZO91351     0.0000 
      3 O         -32.1650  -10.2230   -5.4680 O.3       1 ZO91351     0.0000 
      4 C1        -25.8170   -9.5780   -0.5470 C.ar      1 ZO91351     0.0000 
      5 N1        -28.3750   -9.5090   -3.2790 N.pl3     1 ZO91351     0.0000 
      6 C2        -26.2570   -9.4310   -1.8600 C.ar      1 ZO91351     0.0000 
      7 N2        -30.8290  -10.1200   -5.1000 N.2       1 ZO91351     0.0000 
      8 C3        -27.6120   -9.6230   -2.1180 C.ar      1 ZO91351     0.0000 
      9 N3        -33.0130  -10.0920   -4.3560 N.2       1 ZO91351     0.0000 
     10 C4        -28.5130   -9.9460   -1.1050 C.ar      1 ZO91351     0.0000 
     11 N4        -32.6360   -9.7450   -2.0730 N.pl3     1 ZO91351     0.0000 
     12 C5        -28.0590  -10.0830    0.2070 C.ar      1 ZO91351     0.0000 
     13 C6        -29.6780   -9.7630   -2.8990 C.2       1 ZO91351     0.0000 
     14 C7        -27.8910   -9.0660   -4.6010 C.3       1 ZO91351     0.0000 
     15 C8        -27.5120  -10.2450   -5.4720 C.3       1 ZO91351     0.0000 
     16 C9        -26.1440  -10.8300   -5.3290 C.3       1 ZO91351     0.0000 
     17 C10       -26.4990  -10.0610   -6.5580 C.3       1 ZO91351     0.0000 
     18 C11       -30.8470   -9.9160   -3.7950 C.2       1 ZO91351     0.0000 
     19 C12       -32.2190   -9.9310   -3.3300 C.2       1 ZO91351     0.0000 
     20 H         -26.3586  -10.0061    1.4405 H         1 ZO91351     0.0000 
     21 H         -24.8161   -9.4458   -0.3264 H         1 ZO91351     0.0000 
     22 H         -25.6123   -9.1921   -2.6036 H         1 ZO91351     0.0000 
     23 H         -31.9206   -9.6094   -1.3876 H         1 ZO91351     0.0000 
     24 H         -33.6258   -9.7582   -1.9313 H         1 ZO91351     0.0000 
     25 H         -28.7117  -10.3134    0.9569 H         1 ZO91351     0.0000 
     26 H         -27.0128   -8.4166   -4.4858 H         1 ZO91351     0.0000 
     27 H         -28.6682   -8.4843   -5.1145 H         1 ZO91351     0.0000 
     28 H         -28.0998  -10.9667   -5.7509 H         1 ZO91351     0.0000 
     29 H         -26.1912  -11.7598   -5.5294 H         1 ZO91351     0.0000 
     30 H         -25.6334  -10.2662   -4.7560 H         1 ZO91351     0.0000 
     31 H         -26.1340   -9.1851   -6.4829 H         1 ZO91351     0.0000 
     32 H         -26.6918  -10.6786   -7.2562 H         1 ZO91351     0.0000 
@<TRIPOS>BOND
     1    4    1 ar   
     2   12    1 ar   
     3   20    1 1    
     4   10    2 1    
     5   13    2 2    
     6    7    3 1    
     7    9    3 1    
     8    6    4 ar   
     9   21    4 1    
    10    8    5 1    
    11   13    5 1    
    12   14    5 1    
    13    8    6 ar   
    14   22    6 1    
    15   18    7 2    
    16   10    8 ar   
    17   19    9 2    
    18   12   10 ar   
    19   19   11 1    
    20   23   11 1    
    21   24   11 1    
    22   25   12 1    
    23   18   13 1    
    24   15   14 1    
    25   26   14 1    
    26   27   14 1    
    27   16   15 1    
    28   17   15 1    
    29   28   15 1    
    30   17   16 1    
    31   29   16 1    
    32   30   16 1    
    33   31   17 1    
    34   32   17 1    
    35   19   18 1    
@<TRIPOS>SUBSTRUCTURE
     1 ZO91351     1 GROUP   
@<TRIPOS>SET

