#    Name: 1vf3_GDN_1_INTS_M
#    Modification time : Tue Mar 25 07:46:02 2014

@<TRIPOS>MOLECULE
1vf3_GDN_1_INTS_M
   70     0    15     0     0
SMALL
NO_CHARGES


@<TRIPOS>ATOM
      1 OD1        25.9005   18.8695   30.0655 O.co2     3 ASC3        0.0000 
      2 OD1        27.0010   17.4050   30.0090 O.co2    13 ASL3        0.0000 
      3 OD1        24.8000   20.3340   30.1220 O.co2     8 ASP3        0.0000 
      4 OD1        26.8175   18.6680   30.6460 O.co2     3 ASC3        0.0000 
      5 OD1        26.6340   19.9310   31.2830 O.co2     8 ASP3        0.0000 
      6 O          28.2955   17.9110   29.7350 O.2       1 ALC1        0.0000 
      7 O          27.0010   17.4050   30.0090 O.2      11 ALL1        0.0000 
      8 O          29.5900   18.4170   29.4610 O.2       6 ALP1        0.0000 
      9 O          26.8175   18.6680   30.6460 O.2       1 ALC1        0.0000 
     10 O          26.6340   19.9310   31.2830 O.2       6 ALP1        0.0000 
     11 CA         29.6675   16.3275   30.0715 C.3       5 GLC5        0.0000 
     12 CA         27.5850   16.4190   30.8630 C.3      15 GLL5        0.0000 
     13 CA         31.7500   16.2360   29.2800 C.3      10 GLP5        0.0000 
     14 N          29.8745   14.4935   29.1650 N.am      2 SEC2        0.0000 
     15 N          28.9830   14.6050   30.2390 N.am     12 SEL2        0.0000 
     16 N          30.7660   14.3820   28.0910 N.am      7 SEP2        0.0000 
     17 N          28.9670   13.4600   29.3560 N.am      2 SEC2        0.0000 
     18 N          28.9510   12.3150   28.4730 N.am      7 SEP2        0.0000 
     19 NZ         26.0305   14.4065   28.3635 N.4       4 LYC4        0.0000 
     20 NZ         27.4920   15.1960   28.8130 N.4      14 LYL4        0.0000 
     21 NZ         24.5690   13.6170   27.9140 N.4       9 LYP4        0.0000 
     22 N          29.1290   14.7890   28.4520 N.am      2 SEC2        0.0000 
     23 N          27.4920   15.1960   28.8130 N.am     12 SEL2        0.0000 
     24 CA         25.4750   14.5920   30.6105 C.3       5 GLC5        0.0000 
     25 CA         26.5120   15.9460   31.8590 C.3      15 GLL5        0.0000 
     26 CA         24.4380   13.2380   29.3620 C.3      10 GLP5        0.0000 
     27 CA         26.2365   13.5510   31.3180 C.3       5 GLC5        0.0000 
     28 CA         27.0050   14.9080   32.8400 C.3      15 GLL5        0.0000 
     29 CA         25.4680   12.1940   29.7960 C.3      10 GLP5        0.0000 
     30 CA         28.1855   15.2065   34.4625 C.3       5 GLC5        0.0000 
     31 CA         29.3660   15.5050   36.0850 C.3      10 GLP5        0.0000 
     32 O          27.5680   12.7840   34.4720 O.2       1 ALC1        0.0000 
     33 O          26.4360   13.5250   34.6890 O.2      11 ALL1        0.0000 
     34 O          28.7000   12.0430   34.2550 O.2       6 ALP1        0.0000 
     35 N          28.8855   12.8875   36.6195 N.am      2 SEC2        0.0000 
     36 N          27.4320   13.0330   37.2750 N.am     12 SEL2        0.0000 
     37 N          30.3390   12.7420   35.9640 N.am      7 SEP2        0.0000 
     38 CA         27.5420   10.6395   36.0040 C.3       5 GLC5        0.0000 
     39 CA         25.6010   11.4100   35.6540 C.3      15 GLL5        0.0000 
     40 CA         29.4830    9.8690   36.3540 C.3      10 GLP5        0.0000 
     41 CA         25.4720   10.9800   37.7215 C.3       5 GLC5        0.0000 
     42 CA         25.3430   10.5500   39.7890 C.3      10 GLP5        0.0000 
     43 CA         26.2665    9.2775   33.8500 C.3       5 GLC5        0.0000 
     44 CA         24.9290   10.7090   34.1200 C.3      15 GLL5        0.0000 
     45 CA         27.6040    7.8460   33.5800 C.3      10 GLP5        0.0000 
     46 O          24.0685   13.9940   37.6990 O.2       1 ALC1        0.0000 
     47 O          25.4190   13.9290   37.9110 O.2      11 ALL1        0.0000 
     48 O          22.7180   14.0590   37.4870 O.2       6 ALP1        0.0000 
     49 CA         27.1850   15.5045   37.9240 C.3       5 GLC5        0.0000 
     50 CA         25.8580   14.3730   39.2110 C.3      15 GLL5        0.0000 
     51 CA         28.5120   16.6360   36.6370 C.3      10 GLP5        0.0000 
     52 CA         25.6005   12.4615   39.5000 C.3       5 GLC5        0.0000 
     53 CA         24.2985   14.7760   40.3470 C.3       5 GLC5        0.0000 
     54 CA         22.7390   15.1790   41.4830 C.3      10 GLP5        0.0000 
     55 NZ         26.7505   17.4595   40.5070 N.4       4 LYC4        0.0000 
     56 NZ         25.7910   16.3520   40.4930 N.4      14 LYL4        0.0000 
     57 NZ         27.6390   19.4190   39.5130 N.4       9 LYP4        0.0000 
     58 N          26.7505   17.4595   40.5070 N.am      2 SEC2        0.0000 
     59 N          25.7910   16.3520   40.4930 N.am     12 SEL2        0.0000 
     60 N          27.7100   18.5670   40.5210 N.am      7 SEP2        0.0000 
     61 NZ         25.9950   17.8675   38.4925 N.4       4 LYC4        0.0000 
     62 NZ         25.2350   16.5220   38.4380 N.4      14 LYL4        0.0000 
     63 N          25.7910   16.9525   37.1420 N.am      2 SEC2        0.0000 
     64 N          25.2350   16.5220   38.4380 N.am     12 SEL2        0.0000 
     65 N          26.3470   17.3830   35.8460 N.am      7 SEP2        0.0000 
     66 N          25.9950   17.8675   38.4925 N.am      2 SEC2        0.0000 
     67 N          26.7550   19.2130   38.5470 N.am      7 SEP2        0.0000 
     68 N          24.9210    8.5535   30.7380 N.am      2 SEC2        0.0000 
     69 N          24.3870    9.3680   31.7850 N.am     12 SEL2        0.0000 
     70 N          25.4550    7.7390   29.6910 N.am      7 SEP2        0.0000 
@<TRIPOS>BOND
@<TRIPOS>SUBSTRUCTURE
     1 ALC1        6 GROUP        1 X    ALC  0     ROOT ALC X 1
     2 SEC2       14 GROUP        1 X    SEC  0     **** SEC X 2
     3 ASC3        1 GROUP        1 X    ASC  0     **** ASC X 3
     4 LYC4       19 GROUP        1 X    LYC  0     **** LYC X 4
     5 GLC5       11 GROUP        1 X    GLC  0     **** GLC X 6
     6 ALP1        8 GROUP        1 Y    ALP  0     ROOT ALP Y 8
     7 SEP2       16 GROUP        1 Y    SEP  0     **** SEP Y 9
     8 ASP3        3 GROUP        1 Y    ASP  0     **** ASP Y 10
     9 LYP4       21 GROUP        1 Y    LYP  0     **** LYP Y 11
    10 GLP5       13 GROUP        1 Y    GLP  0     **** GLP Y 13
    11 ALL1        7 GROUP        1 Z    ALL  0     ROOT ALL Z 15
    12 SEL2       15 GROUP        1 Z    SEL  0     **** SEL Z 16
    13 ASL3        2 GROUP        1 Z    ASL  0     **** ASL Z 17
    14 LYL4       20 GROUP        1 Z    LYL  0     **** LYL Z 18
    15 GLL5       12 GROUP        1 Z    GLL  0     **** GLL Z 20
@<TRIPOS>SET

