#    Name: 1vf3_GDN_1_ligand
#    Modification time : Tue Mar 25 07:46:03 2014

@<TRIPOS>MOLECULE
1vf3_GDN_1_ligand
   50    50     1     0     0
SMALL
NO_CHARGES


@<TRIPOS>ATOM
      1 N1         27.0010   17.4050   30.0090 N.4       1 GDN2500     0.0000 
      2 CA1        27.5850   16.4190   30.8630 C.3       1 GDN2500     0.0000 
      3 C1         28.0550   15.3240   29.8980 C.2       1 GDN2500     0.0000 
      4 O11        28.9830   14.6050   30.2390 O.co2     1 GDN2500     0.0000 
      5 O12        27.4920   15.1960   28.8130 O.co2     1 GDN2500     0.0000 
      6 CB1        26.5120   15.9460   31.8590 C.3       1 GDN2500     0.0000 
      7 CG1        27.0050   14.9080   32.8400 C.3       1 GDN2500     0.0000 
      8 CD1        25.9720   14.4310   33.8390 C.2       1 GDN2500     0.0000 
      9 OE1        24.8150   14.8730   33.8310 O.2       1 GDN2500     0.0000 
     10 N2         26.4360   13.5250   34.6890 N.am      1 GDN2500     0.0000 
     11 CA2        25.6320   12.9200   35.7430 C.3       1 GDN2500     0.0000 
     12 C2         26.2390   13.3050   37.0690 C.2       1 GDN2500     0.0000 
     13 O2         27.4320   13.0330   37.2750 O.2       1 GDN2500     0.0000 
     14 CB2        25.6010   11.4100   35.6540 C.3       1 GDN2500     0.0000 
     15 SG2        24.9290   10.7090   34.1200 S.3       1 GDN2500     0.0000 
     16 N3         25.4190   13.9290   37.9110 N.am      1 GDN2500     0.0000 
     17 CA3        25.8580   14.3730   39.2110 C.3       1 GDN2500     0.0000 
     18 C3         25.6270   15.8510   39.3890 C.2       1 GDN2500     0.0000 
     19 O31        25.7910   16.3520   40.4930 O.co2     1 GDN2500     0.0000 
     20 O32        25.2350   16.5220   38.4380 O.co2     1 GDN2500     0.0000 
     21 C1'        23.2560   10.5730   34.2290 C.ar      1 GDN2500     0.0000 
     22 C2'        22.5740    9.9150   33.1800 C.ar      1 GDN2500     0.0000 
     23 C3'        21.1620    9.8050   33.2820 C.ar      1 GDN2500     0.0000 
     24 C4'        20.4500   10.3610   34.4380 C.ar      1 GDN2500     0.0000 
     25 C5'        21.2120   11.0200   35.4730 C.ar      1 GDN2500     0.0000 
     26 C6'        22.5910   11.1320   35.3850 C.ar      1 GDN2500     0.0000 
     27 N2'        23.1460    9.3180   31.9700 N.pl3     1 GDN2500     0.0000 
     28 O2A        24.3870    9.3680   31.7850 O.2       1 GDN2500     0.0000 
     29 O2B        22.3730    8.7700   31.1410 O.2       1 GDN2500     0.0000 
     30 N4'        19.0430   10.2460   34.5170 N.pl3     1 GDN2500     0.0000 
     31 O4A        18.3870    9.6680   33.5980 O.2       1 GDN2500     0.0000 
     32 O4B        18.4190   10.7270   35.5100 O.2       1 GDN2500     0.0000 
     33 H          28.4199   16.8093   31.3813 H         1 GDN2500     0.0000 
     34 H          25.6621   15.5379   31.2875 H         1 GDN2500     0.0000 
     35 H          26.1370   16.8242   32.4099 H         1 GDN2500     0.0000 
     36 H          27.8754   15.3191   33.3931 H         1 GDN2500     0.0000 
     37 H          27.3892   14.0323   32.2760 H         1 GDN2500     0.0000 
     38 H          27.4352   13.1883   34.6438 H         1 GDN2500     0.0000 
     39 H          24.6235   13.2948   35.7173 H         1 GDN2500     0.0000 
     40 H          24.9684   10.9422   36.4101 H         1 GDN2500     0.0000 
     41 H          26.5900   10.9510   35.6957 H         1 GDN2500     0.0000 
     42 H          24.4230   14.1248   37.6689 H         1 GDN2500     0.0000 
     43 H          26.9322   14.1700   39.3544 H         1 GDN2500     0.0000 
     44 H          25.3203   13.8389   40.0118 H         1 GDN2500     0.0000 
     45 H          20.6212    9.3407   32.5585 H         1 GDN2500     0.0000 
     46 H          20.7003   11.4039   36.2778 H         1 GDN2500     0.0000 
     47 H          23.1427   11.5880   36.0967 H         1 GDN2500     0.0000 
     48 H          27.6012   17.6354   29.2431 H         1 GDN2500     0.0000 
     49 H          26.1349   17.0925   29.6189 H         1 GDN2500     0.0000 
     50 H          26.8116   18.2558   30.4992 H         1 GDN2500     0.0000 
@<TRIPOS>BOND
     1    2    1 1    
     2   48    1 1    
     3   49    1 1    
     4   50    1 1    
     5    3    2 1    
     6    6    2 1    
     7   33    2 1    
     8    4    3 ar   
     9    5    3 ar   
    10    7    6 1    
    11   34    6 1    
    12   35    6 1    
    13    8    7 1    
    14   36    7 1    
    15   37    7 1    
    16    9    8 2    
    17   10    8 am   
    18   11   10 1    
    19   38   10 1    
    20   12   11 1    
    21   14   11 1    
    22   39   11 1    
    23   13   12 2    
    24   16   12 am   
    25   15   14 1    
    26   40   14 1    
    27   41   14 1    
    28   21   15 1    
    29   17   16 1    
    30   42   16 1    
    31   18   17 1    
    32   43   17 1    
    33   44   17 1    
    34   19   18 ar   
    35   20   18 ar   
    36   22   21 ar   
    37   26   21 ar   
    38   23   22 ar   
    39   27   22 1    
    40   24   23 ar   
    41   45   23 1    
    42   25   24 ar   
    43   30   24 1    
    44   26   25 ar   
    45   46   25 1    
    46   47   26 1    
    47   28   27 2    
    48   29   27 2    
    49   31   30 2    
    50   32   30 2    
@<TRIPOS>SUBSTRUCTURE
     1 GDN2500     1 GROUP   
@<TRIPOS>SET

