#    Name: 2c5x_MTW_2_INTS_M
#    Modification time : Mon Mar 24 22:41:19 2014

@<TRIPOS>MOLECULE
2c5x_MTW_2_INTS_M
   41     0     3     0     0
SMALL
NO_CHARGES


@<TRIPOS>ATOM
      1 CA         43.5770   53.6260   23.1605 C.3       1 GLC5        0.0000 
      2 CA         43.2470   51.5030   23.5110 C.3       3 GLL5        0.0000 
      3 CA         43.9070   55.7490   22.8100 C.3       2 GLP5        0.0000 
      4 CA         45.7325   50.1985   22.5700 C.3       1 GLC5        0.0000 
      5 CA         43.9160   50.3320   23.8480 C.3       3 GLL5        0.0000 
      6 CA         47.5490   50.0650   21.2920 C.3       2 GLP5        0.0000 
      7 CA         42.7245   47.5810   20.9385 C.3       1 GLC5        0.0000 
      8 CA         43.5970   49.4810   21.5830 C.3       3 GLL5        0.0000 
      9 CA         41.8520   45.6810   20.2940 C.3       2 GLP5        0.0000 
     10 CA         44.4150   50.1065   19.6380 C.3       1 GLC5        0.0000 
     11 CA         45.2330   50.7320   17.6930 C.3       2 GLP5        0.0000 
     12 CA         42.4245   48.9865   20.0335 C.3       1 GLC5        0.0000 
     13 CA         41.2520   48.4920   18.4840 C.3       2 GLP5        0.0000 
     14 CA         45.5730   49.7730   21.4375 C.3       1 GLC5        0.0000 
     15 CA         47.2190   48.1395   22.2505 C.3       1 GLC5        0.0000 
     16 CA         46.8890   46.2140   23.2090 C.3       3 GLL5        0.0000 
     17 CA         48.3190   45.1415   20.9915 C.3       1 GLC5        0.0000 
     18 CA         47.9390   45.3110   23.0860 C.3       3 GLL5        0.0000 
     19 CA         48.6990   44.9720   18.8970 C.3       2 GLP5        0.0000 
     20 CA         46.1795   44.7710   26.4015 C.3       1 GLC5        0.0000 
     21 CA         47.4390   46.3470   25.5440 C.3       3 GLL5        0.0000 
     22 CA         44.9200   43.1950   27.2590 C.3       2 GLP5        0.0000 
     23 CA         42.9525   49.5540   26.8295 C.3       1 GLC5        0.0000 
     24 CA         44.3810   51.0710   27.6720 C.3       3 GLL5        0.0000 
     25 CA         41.7130   47.9660   26.7380 C.3       2 GLP5        0.0000 
     26 CA         42.9095   49.1275   25.6288 C.3       1 GLC5        0.0000 
     27 CA         44.2960   50.2460   25.1910 C.3       3 GLL5        0.0000 
     28 CA         43.9085   54.0083   24.6130 C.3       1 GLC5        0.0000 
     29 CA         42.9660   52.4810   24.4640 C.3       3 GLL5        0.0000 
     30 CA         44.6790   55.5970   24.0930 C.3       2 GLP5        0.0000 
     31 CA         41.3732   52.0486   25.0730 C.3       1 GLC5        0.0000 
     32 CA         43.3100   52.3580   25.8020 C.3       3 GLL5        0.0000 
     33 CA         39.5540   52.1360   25.8240 C.3       2 GLP5        0.0000 
     34 CA         45.4470   44.9115   24.3317 C.3       1 GLC5        0.0000 
     35 CA         46.6430   46.7420   24.4700 C.3       3 GLL5        0.0000 
     36 CA         44.1280   43.3450   24.8240 C.3       2 GLP5        0.0000 
     37 CA         49.5620   43.9267   22.3095 C.3       1 GLC5        0.0000 
     38 CA         50.7900   42.7300   20.9940 C.3       2 GLP5        0.0000 
     39 CA         50.0625   45.2401   24.1088 C.3       1 GLC5        0.0000 
     40 CA         48.7290   44.9360   24.1640 C.3       3 GLL5        0.0000 
     41 CA         51.7200   45.2010   23.6910 C.3       2 GLP5        0.0000 
@<TRIPOS>BOND
@<TRIPOS>SUBSTRUCTURE
     1 GLC5        1 GROUP        1 X    GLC  0     ROOT GLC X 6
     2 GLP5        3 GROUP        1 Y    GLP  0     ROOT GLP Y 13
     3 GLL5        2 GROUP        1 Z    GLL  0     ROOT GLL Z 20
@<TRIPOS>SET

