#    Name: 2c5x_MTW_2_ligand
#    Modification time : Mon Mar 24 22:41:19 2014

@<TRIPOS>MOLECULE
2c5x_MTW_2_ligand
   43    46     1     0     0
SMALL
NO_CHARGES


@<TRIPOS>ATOM
      1 C          46.1140   49.2460   27.9710 C.2       1 MTW1297     0.0000 
      2 N1         47.4050   49.1840   28.3090 N.2       1 MTW1297     0.0000 
      3 C1         47.7940   50.4430   28.5320 C.2       1 MTW1297     0.0000 
      4 N2         46.7240   51.2190   28.3210 N.2       1 MTW1297     0.0000 
      5 N          45.7450   50.5370   27.9720 N.pl3     1 MTW1297     0.0000 
      6 C2         44.3810   51.0710   27.6720 C.3       1 MTW1297     0.0000 
      7 C3         44.0030   51.2130   26.1700 C.ar      1 MTW1297     0.0000 
      8 C4         44.2960   50.2460   25.1910 C.ar      1 MTW1297     0.0000 
      9 C17        43.3100   52.3580   25.8020 C.ar      1 MTW1297     0.0000 
     10 C18        42.9660   52.4810   24.4640 C.ar      1 MTW1297     0.0000 
     11 C6         43.2470   51.5030   23.5110 C.ar      1 MTW1297     0.0000 
     12 C5         43.9160   50.3320   23.8480 C.ar      1 MTW1297     0.0000 
     13 C7         44.1880   49.3700   22.8500 C.2       1 MTW1297     0.0000 
     14 N3         45.0090   48.3070   23.0160 N.2       1 MTW1297     0.0000 
     15 C8         43.5970   49.4810   21.5830 C.3       1 MTW1297     0.0000 
     16 C9         43.8560   48.5470   20.5710 C.2       1 MTW1297     0.0000 
     17 N4         44.7080   47.5510   20.7660 N.2       1 MTW1297     0.0000 
     18 C10        45.2420   47.4380   21.9990 C.2       1 MTW1297     0.0000 
     19 N5         46.1200   46.4540   22.1420 N.2       1 MTW1297     0.0000 
     20 C11        46.8890   46.2140   23.2090 C.ar      1 MTW1297     0.0000 
     21 C14        46.6430   46.7420   24.4700 C.ar      1 MTW1297     0.0000 
     22 C12        47.9390   45.3110   23.0860 C.ar      1 MTW1297     0.0000 
     23 C13        48.7290   44.9360   24.1640 C.ar      1 MTW1297     0.0000 
     24 C16        48.4760   45.4350   25.4280 C.ar      1 MTW1297     0.0000 
     25 C15        47.4390   46.3470   25.5440 C.ar      1 MTW1297     0.0000 
     26 N6         47.2090   46.8790   26.7310 N.pl3     1 MTW1297     0.0000 
     27 O2         48.2990   47.1290   27.6330 O.2       1 MTW1297     0.0000 
     28 O1         45.8640   47.2230   27.0380 O.2       1 MTW1297     0.0000 
     29 H          45.5418   48.4947   27.7615 H         1 MTW1297     0.0000 
     30 H          48.6699   50.7352   28.7928 H         1 MTW1297     0.0000 
     31 H          44.2564   52.0737   28.1439 H         1 MTW1297     0.0000 
     32 H          43.6091   50.4242   28.1509 H         1 MTW1297     0.0000 
     33 H          44.8434   49.3937   25.4962 H         1 MTW1297     0.0000 
     34 H          43.0682   53.0670   26.4763 H         1 MTW1297     0.0000 
     35 H          42.4695   53.3523   24.1505 H         1 MTW1297     0.0000 
     36 H          42.9492   51.6543   22.5280 H         1 MTW1297     0.0000 
     37 H          43.8145   50.5455   21.1672 H         1 MTW1297     0.0000 
     38 H          42.4449   49.5665   21.7203 H         1 MTW1297     0.0000 
     39 H          43.3541   48.6665   19.6632 H         1 MTW1297     0.0000 
     40 H          45.8848   47.4150   24.6116 H         1 MTW1297     0.0000 
     41 H          48.1404   44.8994   22.1457 H         1 MTW1297     0.0000 
     42 H          49.5128   44.2777   24.0176 H         1 MTW1297     0.0000 
     43 H          49.0190   45.1501   26.2285 H         1 MTW1297     0.0000 
@<TRIPOS>BOND
     1    2    1 2    
     2    5    1 1    
     3   29    1 1    
     4    3    2 1    
     5    4    3 2    
     6   30    3 1    
     7    5    4 1    
     8    6    5 1    
     9    7    6 1    
    10   31    6 1    
    11   32    6 1    
    12    8    7 ar   
    13    9    7 ar   
    14   12    8 ar   
    15   33    8 1    
    16   10    9 ar   
    17   34    9 1    
    18   11   10 ar   
    19   35   10 1    
    20   12   11 ar   
    21   36   11 1    
    22   13   12 1    
    23   14   13 2    
    24   15   13 1    
    25   18   14 1    
    26   16   15 1    
    27   37   15 1    
    28   38   15 1    
    29   17   16 2    
    30   39   16 1    
    31   18   17 1    
    32   19   18 2    
    33   20   19 1    
    34   21   20 ar   
    35   22   20 ar   
    36   25   21 ar   
    37   40   21 1    
    38   23   22 ar   
    39   41   22 1    
    40   24   23 ar   
    41   42   23 1    
    42   25   24 ar   
    43   43   24 1    
    44   26   25 1    
    45   27   26 2    
    46   28   26 2    
@<TRIPOS>SUBSTRUCTURE
     1 MTW1297     1 GROUP   
@<TRIPOS>SET

