#    Name: 3si3_B03_1_INTS_M
#    Modification time : Tue Mar 25 12:38:33 2014

@<TRIPOS>MOLECULE
3si3_B03_1_INTS_M
   55     0     9     0     0
SMALL
NO_CHARGES


@<TRIPOS>ATOM
      1 O          15.8970  -14.6415   24.2425 O.2       1 ALC1        0.0000 
      2 O          16.6920  -15.3670   23.3600 O.2       7 ALL1        0.0000 
      3 O          15.1020  -13.9160   25.1250 O.2       4 ALP1        0.0000 
      4 N          15.9245  -11.9620   24.1465 N.am      2 SEC2        0.0000 
      5 N          16.8250  -12.6150   23.1350 N.am      8 SEL2        0.0000 
      6 N          15.0240  -11.3090   25.1580 N.am      5 SEP2        0.0000 
      7 CA         17.9640  -13.0575   26.2740 C.3       3 GLC5        0.0000 
      8 CA         18.4740  -14.5870   24.7850 C.3       9 GLL5        0.0000 
      9 CA         17.4540  -11.5280   27.7630 C.3       6 GLP5        0.0000 
     10 CA         21.9220  -10.2880   25.0415 C.3       3 GLC5        0.0000 
     11 CA         21.3540  -12.2480   25.5180 C.3       9 GLL5        0.0000 
     12 CA         22.4900   -8.3280   24.5650 C.3       6 GLP5        0.0000 
     13 CA         22.8865  -11.2665   23.7475 C.3       3 GLC5        0.0000 
     14 CA         22.4350  -12.9120   24.9400 C.3       9 GLL5        0.0000 
     15 CA         23.3380   -9.6210   22.5550 C.3       6 GLP5        0.0000 
     16 CA         18.0765  -10.7935   23.0250 C.3       3 GLC5        0.0000 
     17 CA         18.4090  -11.5830   21.2360 C.3       9 GLL5        0.0000 
     18 CA         17.7440  -10.0040   24.8140 C.3       6 GLP5        0.0000 
     19 CA         19.4135   -9.8955   19.1365 C.3       3 GLC5        0.0000 
     20 CA         19.5130  -11.4360   20.1920 C.3       9 GLL5        0.0000 
     21 CA         19.3140   -8.3550   18.0810 C.3       6 GLP5        0.0000 
     22 O          16.9585   -9.1660   21.3840 O.2       1 ALC1        0.0000 
     23 O          16.5610  -10.2570   20.4880 O.2       7 ALL1        0.0000 
     24 O          17.3560   -8.0750   22.2800 O.2       4 ALP1        0.0000 
     25 CA         15.2485   -8.4110   18.5435 C.3       3 GLC5        0.0000 
     26 CA         15.3210   -9.9630   19.8020 C.3       9 GLL5        0.0000 
     27 CA         15.1760   -6.8590   17.2850 C.3       6 GLP5        0.0000 
     28 CA         12.2690   -7.5385   21.2235 C.3       3 GLC5        0.0000 
     29 CA         11.8840   -9.4570   21.0420 C.3       9 GLL5        0.0000 
     30 CA         12.6540   -5.6200   21.4050 C.3       6 GLP5        0.0000 
     31 CA         19.8790  -14.6196   26.5207 C.3       3 GLC5        0.0000 
     32 CA         19.6960  -14.7460   28.5090 C.3       6 GLP5        0.0000 
     33 CA         20.2078  -13.6367   27.0010 C.3       3 GLC5        0.0000 
     34 CA         20.0850  -12.8070   25.4680 C.3       9 GLL5        0.0000 
     35 CA         19.2317  -11.2658   25.1535 C.3       3 GLC5        0.0000 
     36 CA         23.1647  -11.7675   26.4135 C.3       3 GLC5        0.0000 
     37 CA         24.4350  -10.9550   27.5980 C.3       6 GLP5        0.0000 
     38 CA         21.9458  -13.3195   20.3492 C.3       3 GLC5        0.0000 
     39 CA         20.5110  -12.5460   20.4710 C.3       9 GLL5        0.0000 
     40 CA         23.7560  -13.5580   19.8350 C.3       6 GLP5        0.0000 
     41 CA         20.3155  -10.5194   21.6557 C.3       3 GLC5        0.0000 
     42 CA         20.8950   -9.0110   22.7190 C.3       6 GLP5        0.0000 
     43 CA         19.3425  -13.6877   19.2284 C.3       3 GLC5        0.0000 
     44 CA         18.7990  -14.5720   17.6630 C.3       6 GLP5        0.0000 
     45 CA         13.7590  -11.4482   24.0613 C.3       3 GLC5        0.0000 
     46 CA         14.0980  -10.8910   21.7950 C.3       9 GLL5        0.0000 
     47 CA         13.9960  -11.9620   25.9440 C.3       6 GLP5        0.0000 
     48 CA         14.9420  -10.0998   23.1322 C.3       3 GLC5        0.0000 
     49 CA         12.9460  -10.9780   22.5620 C.3       9 GLL5        0.0000 
     50 CA         16.3620   -9.4670   24.3680 C.3       6 GLP5        0.0000 
     51 CA         10.5520   -8.3635   21.8400 C.3       3 GLC5        0.0000 
     52 CA         11.8280  -10.2510   22.1760 C.3       9 GLL5        0.0000 
     53 CA          9.2480   -6.8730   22.0710 C.3       6 GLP5        0.0000 
     54 CA         10.3915  -10.1775   20.6520 C.3       3 GLC5        0.0000 
     55 CA          8.9270  -10.5010   19.6950 C.3       6 GLP5        0.0000 
@<TRIPOS>BOND
@<TRIPOS>SUBSTRUCTURE
     1 ALC1        1 GROUP        1 X    ALC  0     ROOT ALC X 1
     2 SEC2        4 GROUP        1 X    SEC  0     **** SEC X 2
     3 GLC5        7 GROUP        1 X    GLC  0     **** GLC X 6
     4 ALP1        3 GROUP        1 Y    ALP  0     ROOT ALP Y 8
     5 SEP2        6 GROUP        1 Y    SEP  0     **** SEP Y 9
     6 GLP5        9 GROUP        1 Y    GLP  0     **** GLP Y 13
     7 ALL1        2 GROUP        1 Z    ALL  0     ROOT ALL Z 15
     8 SEL2        5 GROUP        1 Z    SEL  0     **** SEL Z 16
     9 GLL5        8 GROUP        1 Z    GLL  0     **** GLL Z 20
@<TRIPOS>SET

