#    Name: 3si3_B03_1_ligand
#    Modification time : Tue Mar 25 12:38:33 2014

@<TRIPOS>MOLECULE
3si3_B03_1_ligand
   51    53     1     0     0
SMALL
NO_CHARGES


@<TRIPOS>ATOM
      1 N10        16.6920  -15.3670   23.3600 N.4       1 B035        0.0000 
      2 C8         17.9710  -14.6840   23.3400 C.3       1 B035        0.0000 
      3 C9         17.7590  -13.3150   22.7490 C.2       1 B035        0.0000 
      4 O12        16.8250  -12.6150   23.1350 O.2       1 B035        0.0000 
      5 C7         18.4740  -14.5870   24.7850 C.3       1 B035        0.0000 
      6 C4         19.8740  -14.0180   24.8370 C.ar      1 B035        0.0000 
      7 C3         20.9500  -14.6840   24.2540 C.ar      1 B035        0.0000 
      8 C5         20.0850  -12.8070   25.4680 C.ar      1 B035        0.0000 
      9 C2         22.2250  -14.1270   24.3100 C.ar      1 B035        0.0000 
     10 C6         21.3540  -12.2480   25.5180 C.ar      1 B035        0.0000 
     11 C1         22.4350  -12.9120   24.9400 C.ar      1 B035        0.0000 
     12 N11        18.6040  -12.9030   21.8160 N.am      1 B035        0.0000 
     13 C13        18.4090  -11.5830   21.2360 C.3       1 B035        0.0000 
     14 C17        17.1020  -11.4690   20.5220 C.2       1 B035        0.0000 
     15 O28        16.5670  -12.4430   20.0060 O.2       1 B035        0.0000 
     16 C15        19.5130  -11.4360   20.1920 C.3       1 B035        0.0000 
     17 C16        20.5110  -12.5460   20.4710 C.3       1 B035        0.0000 
     18 C14        19.7600  -13.6160   21.2560 C.3       1 B035        0.0000 
     19 N18        16.5610  -10.2570   20.4880 N.am      1 B035        0.0000 
     20 C19        15.3210   -9.9630   19.8020 C.3       1 B035        0.0000 
     21 C20        14.0980  -10.0830   20.6670 C.ar      1 B035        0.0000 
     22 C22        14.0980  -10.8910   21.7950 C.ar      1 B035        0.0000 
     23 C23        12.9460  -10.9780   22.5620 C.ar      1 B035        0.0000 
     24 C24        11.8280  -10.2510   22.1760 C.ar      1 B035        0.0000 
     25 C25        11.8840   -9.4570   21.0420 C.ar      1 B035        0.0000 
     26 N21        13.0000   -9.3840   20.3110 N.ar      1 B035        0.0000 
     27 H          18.6808  -15.2237   22.7611 H         1 B035        0.0000 
     28 H          18.4654  -15.5836   25.2290 H         1 B035        0.0000 
     29 H          17.7959  -13.9476   25.3523 H         1 B035        0.0000 
     30 H          20.8026  -15.5850   23.7834 H         1 B035        0.0000 
     31 H          19.2912  -12.3105   25.9080 H         1 B035        0.0000 
     32 H          23.0182  -14.6269   23.8771 H         1 B035        0.0000 
     33 H          21.5006  -11.3411   25.9822 H         1 B035        0.0000 
     34 H          23.3720  -12.5022   24.9832 H         1 B035        0.0000 
     35 H          18.5236  -10.8169   21.9494 H         1 B035        0.0000 
     36 H          19.9879  -10.4827   20.3046 H         1 B035        0.0000 
     37 H          19.0980  -11.5574   19.2122 H         1 B035        0.0000 
     38 H          21.3200  -12.1671   21.0640 H         1 B035        0.0000 
     39 H          20.8628  -12.9595   19.5464 H         1 B035        0.0000 
     40 H          19.4509  -14.3870   20.5837 H         1 B035        0.0000 
     41 H          20.3960  -13.9900   22.0291 H         1 B035        0.0000 
     42 H          17.0173   -9.4383   20.9673 H         1 B035        0.0000 
     43 H          15.1936  -10.6384   18.9244 H         1 B035        0.0000 
     44 H          15.3471   -8.9324   19.3781 H         1 B035        0.0000 
     45 H          14.9366  -11.4152   22.0570 H         1 B035        0.0000 
     46 H          12.9197  -11.5663   23.3963 H         1 B035        0.0000 
     47 H          10.9640  -10.3024   22.7293 H         1 B035        0.0000 
     48 H          11.0314   -8.9170   20.7733 H         1 B035        0.0000 
     49 H          16.7675  -16.2856   23.7479 H         1 B035        0.0000 
     50 H          16.0156  -14.8729   23.9062 H         1 B035        0.0000 
     51 H          16.3101  -15.4673   22.4412 H         1 B035        0.0000 
@<TRIPOS>BOND
     1    2    1 1    
     2   49    1 1    
     3   50    1 1    
     4   51    1 1    
     5    3    2 1    
     6    5    2 1    
     7   27    2 1    
     8    4    3 2    
     9   12    3 am   
    10    6    5 1    
    11   28    5 1    
    12   29    5 1    
    13    7    6 ar   
    14    8    6 ar   
    15    9    7 ar   
    16   30    7 1    
    17   10    8 ar   
    18   31    8 1    
    19   11    9 ar   
    20   32    9 1    
    21   11   10 ar   
    22   33   10 1    
    23   34   11 1    
    24   13   12 1    
    25   18   12 1    
    26   14   13 1    
    27   16   13 1    
    28   35   13 1    
    29   15   14 2    
    30   19   14 am   
    31   17   16 1    
    32   36   16 1    
    33   37   16 1    
    34   18   17 1    
    35   38   17 1    
    36   39   17 1    
    37   40   18 1    
    38   41   18 1    
    39   20   19 1    
    40   42   19 1    
    41   21   20 1    
    42   43   20 1    
    43   44   20 1    
    44   22   21 ar   
    45   26   21 ar   
    46   23   22 ar   
    47   45   22 1    
    48   24   23 ar   
    49   46   23 1    
    50   25   24 ar   
    51   47   24 1    
    52   26   25 ar   
    53   48   25 1    
@<TRIPOS>SUBSTRUCTURE
     1 B035        1 GROUP   
@<TRIPOS>SET

