#    Name: 2w71_L23_1_INTS_M
#    Modification time : Tue Mar 25 03:43:39 2014

@<TRIPOS>MOLECULE
2w71_L23_1_INTS_M
   64     0     9     0     0
SMALL
NO_CHARGES


@<TRIPOS>ATOM
      1 CA         31.4065   22.4510   25.6810 C.3       3 GLC5        0.0000 
      2 CA         32.3510   22.2820   24.0110 C.3       9 GLL5        0.0000 
      3 CA         30.4620   22.6200   27.3510 C.3       6 GLP5        0.0000 
      4 CA         33.5200   23.4175   25.5165 C.3       3 GLC5        0.0000 
      5 CA         34.6890   24.5530   27.0220 C.3       6 GLP5        0.0000 
      6 CA         32.1830   24.0550   24.2595 C.3       3 GLC5        0.0000 
      7 CA         32.0150   25.8280   24.5080 C.3       6 GLP5        0.0000 
      8 CA         32.0290   20.6035   26.2985 C.3       3 GLC5        0.0000 
      9 CA         33.3080   19.8790   24.9520 C.3       9 GLL5        0.0000 
     10 CA         30.7500   21.3280   27.6450 C.3       6 GLP5        0.0000 
     11 CA         34.2075   19.6355   26.6695 C.3       3 GLC5        0.0000 
     12 CA         35.1070   19.3920   28.3870 C.3       6 GLP5        0.0000 
     13 CA         35.1215   18.5710   26.3470 C.3       3 GLC5        0.0000 
     14 CA         34.0980   18.7300   24.8940 C.3       9 GLL5        0.0000 
     15 CA         36.1450   18.4120   27.8000 C.3       6 GLP5        0.0000 
     16 CA         33.9740   21.6630   19.8535 C.3       3 GLC5        0.0000 
     17 CA         34.3050   21.6170   21.7110 C.3       9 GLL5        0.0000 
     18 CA         33.6430   21.7090   17.9960 C.3       6 GLP5        0.0000 
     19 CA         35.5650   25.7940   21.0750 C.3       3 GLC5        0.0000 
     20 CA         34.5060   24.1100   21.7910 C.3       9 GLL5        0.0000 
     21 CA         36.6240   27.4780   20.3590 C.3       6 GLP5        0.0000 
     22 CA         35.7350   24.0285   20.1865 C.3       3 GLC5        0.0000 
     23 CA         36.9640   23.9470   18.5820 C.3       6 GLP5        0.0000 
     24 CA         33.4480   23.0980   19.5200 C.3       3 GLC5        0.0000 
     25 CA         33.2530   24.4870   21.0440 C.3       9 GLL5        0.0000 
     26 CA         34.4710   24.6620   19.3745 C.3       3 GLC5        0.0000 
     27 CA         35.6890   24.8370   17.7050 C.3       6 GLP5        0.0000 
     28 O          35.5040   26.3630   21.8745 O.2       1 ALC1        0.0000 
     29 O          35.3750   25.0060   22.2880 O.2       7 ALL1        0.0000 
     30 O          35.6330   27.7200   21.4610 O.2       4 ALP1        0.0000 
     31 CA         40.7160   25.6125   26.3705 C.3       3 GLC5        0.0000 
     32 CA         39.5160   24.9170   24.9060 C.3       9 GLL5        0.0000 
     33 CA         41.9160   26.3080   27.8350 C.3       6 GLP5        0.0000 
     34 CA         38.8735   23.9755   26.8145 C.3       3 GLC5        0.0000 
     35 CA         38.2310   23.0340   28.7230 C.3       6 GLP5        0.0000 
     36 N          40.7845   26.5475   25.6285 N.am      2 SEC2        0.0000 
     37 N          39.6160   26.2500   24.7860 N.am      8 SEL2        0.0000 
     38 N          41.9530   26.8450   26.4710 N.am      5 SEP2        0.0000 
     39 CA         39.6425   27.5955   22.4870 C.3       3 GLC5        0.0000 
     40 CA         38.7000   26.9630   24.0780 C.3       9 GLL5        0.0000 
     41 CA         40.5850   28.2280   20.8960 C.3       6 GLP5        0.0000 
     42 CA         37.6620   27.2205   22.2185 C.3       3 GLC5        0.0000 
     43 CA         40.8345   27.4235   24.3025 C.3       3 GLC5        0.0000 
     44 CA         42.9690   27.8840   24.5270 C.3       6 GLP5        0.0000 
     45 CA         37.5275   26.6460   25.3050 C.3       3 GLC5        0.0000 
     46 CA         36.3550   26.3290   26.5320 C.3       6 GLP5        0.0000 
     47 O          37.7895   29.1460   23.1630 O.2       1 ALC1        0.0000 
     48 O          38.8070   28.3090   23.9700 O.2       7 ALL1        0.0000 
     49 O          36.7720   29.9830   22.3560 O.2       4 ALP1        0.0000 
     50 O          39.9165   29.0605   24.3425 O.2       1 ALC1        0.0000 
     51 O          41.0260   29.8120   24.7150 O.2       4 ALP1        0.0000 
     52 CA         33.8465   16.8888   25.0505 C.3       3 GLC5        0.0000 
     53 CA         34.9500   18.5250   23.8160 C.3       9 GLL5        0.0000 
     54 CA         33.1690   15.1500   25.7460 C.3       6 GLP5        0.0000 
     55 CA         36.1940   19.5005   24.7545 C.3       3 GLC5        0.0000 
     56 CA         37.4080   20.0030   26.2040 C.3       6 GLP5        0.0000 
     57 CA         36.6033   23.8042   20.7010 C.3       3 GLC5        0.0000 
     58 CA         36.1100   22.9850   22.7540 C.3       9 GLL5        0.0000 
     59 CA         32.9472   25.0633   22.9627 C.3       3 GLC5        0.0000 
     60 CA         36.7892   26.0700   21.7915 C.3       3 GLC5        0.0000 
     61 CA         36.3750   24.3380   22.8860 C.3       9 GLL5        0.0000 
     62 CA         36.6547   25.4955   24.8780 C.3       3 GLC5        0.0000 
     63 CA         37.6725   25.4540   25.5650 C.3       3 GLC5        0.0000 
     64 CA         38.4640   24.2410   24.2900 C.3       9 GLL5        0.0000 
@<TRIPOS>BOND
@<TRIPOS>SUBSTRUCTURE
     1 ALC1       28 GROUP        1 X    ALC  0     ROOT ALC X 1
     2 SEC2       36 GROUP        1 X    SEC  0     **** SEC X 2
     3 GLC5        1 GROUP        1 X    GLC  0     **** GLC X 6
     4 ALP1       30 GROUP        1 Y    ALP  0     ROOT ALP Y 8
     5 SEP2       38 GROUP        1 Y    SEP  0     **** SEP Y 9
     6 GLP5        3 GROUP        1 Y    GLP  0     **** GLP Y 13
     7 ALL1       29 GROUP        1 Z    ALL  0     ROOT ALL Z 15
     8 SEL2       37 GROUP        1 Z    SEL  0     **** SEL Z 16
     9 GLL5        2 GROUP        1 Z    GLL  0     **** GLL Z 20
@<TRIPOS>SET

