#    Name: 2w71_L23_1_ligand
#    Modification time : Tue Mar 25 03:43:39 2014

@<TRIPOS>MOLECULE
2w71_L23_1_ligand
   36    38     1     0     0
SMALL
NO_CHARGES


@<TRIPOS>ATOM
      1 CL21       32.3510   22.2820   24.0110 Cl        1 L231448     0.0000 
      2 C17        33.3720   20.8150   23.9210 C.ar      1 L231448     0.0000 
      3 C20        33.3080   19.8790   24.9520 C.ar      1 L231448     0.0000 
      4 C22        34.0980   18.7300   24.8940 C.ar      1 L231448     0.0000 
      5 C18        34.9500   18.5250   23.8160 C.ar      1 L231448     0.0000 
      6 C16        35.0100   19.4710   22.7940 C.ar      1 L231448     0.0000 
      7 CL19       36.1160   19.2150   21.4080 Cl        1 L231448     0.0000 
      8 C15        34.2260   20.6150   22.8440 C.ar      1 L231448     0.0000 
      9 C11        34.3050   21.6170   21.7110 C.3       1 L231448     0.0000 
     10 N7         34.9560   22.8750   22.0840 N.pl3     1 L231448     0.0000 
     11 C3         36.1100   22.9850   22.7540 C.2       1 L231448     0.0000 
     12 C8         34.5060   24.1100   21.7910 C.2       1 L231448     0.0000 
     13 C12        33.2530   24.4870   21.0440 C.3       1 L231448     0.0000 
     14 N4         35.3750   25.0060   22.2880 N.pl3     1 L231448     0.0000 
     15 C1         36.3750   24.3380   22.8860 C.2       1 L231448     0.0000 
     16 C2         37.5340   24.9860   23.5620 C.ar      1 L231448     0.0000 
     17 C6         38.4640   24.2410   24.2900 C.ar      1 L231448     0.0000 
     18 C10        39.5160   24.9170   24.9060 C.ar      1 L231448     0.0000 
     19 N13        39.6160   26.2500   24.7860 N.ar      1 L231448     0.0000 
     20 C9         38.7000   26.9630   24.0780 C.ar      1 L231448     0.0000 
     21 N5         37.6670   26.3310   23.4700 N.ar      1 L231448     0.0000 
     22 N14        38.8070   28.3090   23.9700 N.pl3     1 L231448     0.0000 
     23 H          32.6834   20.0334   25.7500 H         1 L231448     0.0000 
     24 H          34.0474   18.0363   25.6511 H         1 L231448     0.0000 
     25 H          35.5329   17.6823   23.7704 H         1 L231448     0.0000 
     26 H          33.2752   21.8116   21.3471 H         1 L231448     0.0000 
     27 H          34.8437   21.1428   20.8650 H         1 L231448     0.0000 
     28 H          36.6627   22.2850   23.0873 H         1 L231448     0.0000 
     29 H          35.2941   25.9681   22.2256 H         1 L231448     0.0000 
     30 H          38.3753   23.2330   24.3680 H         1 L231448     0.0000 
     31 H          40.2070   24.3707   25.4500 H         1 L231448     0.0000 
     32 H          39.5950   28.7255   24.4233 H         1 L231448     0.0000 
     33 H          38.0885   28.7669   23.4465 H         1 L231448     0.0000 
     34 H          33.1544   25.4786   20.9608 H         1 L231448     0.0000 
     35 H          33.2468   24.1130   20.1166 H         1 L231448     0.0000 
     36 H          32.4313   24.1482   21.5022 H         1 L231448     0.0000 
@<TRIPOS>BOND
     1    2    1 1    
     2    3    2 ar   
     3    8    2 ar   
     4    4    3 ar   
     5   23    3 1    
     6    5    4 ar   
     7   24    4 1    
     8    6    5 ar   
     9   25    5 1    
    10    7    6 1    
    11    8    6 ar   
    12    9    8 1    
    13   10    9 1    
    14   26    9 1    
    15   27    9 1    
    16   11   10 1    
    17   12   10 2    
    18   15   11 2    
    19   28   11 1    
    20   13   12 1    
    21   14   12 1    
    22   34   13 1    
    23   35   13 1    
    24   36   13 1    
    25   15   14 1    
    26   29   14 1    
    27   16   15 1    
    28   17   16 ar   
    29   21   16 ar   
    30   18   17 ar   
    31   30   17 1    
    32   19   18 ar   
    33   31   18 1    
    34   20   19 ar   
    35   21   20 ar   
    36   22   20 1    
    37   32   22 1    
    38   33   22 1    
@<TRIPOS>SUBSTRUCTURE
     1 L231448     1 GROUP   
@<TRIPOS>SET

