#    Name: 1V48_1_CAVITY_N1_6.mol2
#    Modification time : Mon Mar 10 12:21:08 2014

@<TRIPOS>MOLECULE
1V48_1_CAVITY_N1_6.mol2
   62     0     6     0     0
SMALL
NO_CHARGES


@<TRIPOS>ATOM
      1 CZ         72.4234   50.5573   49.5991 C.ar      4 PHE5        0.0000 
      2 NZ         74.7043   49.3650   49.2437 N.2       3 LYS4        0.0000 
      3 CA         75.5747   48.8175   50.3357 C.3       5 GLY6        0.0000 
      4 O          72.6297   49.3015   48.8051 O.2       2 ALA2        0.0000 
      5 CZ         73.5002   48.7541   49.8971 C.ar      4 PHE5        0.0000 
      6 CZ         74.3706   48.2066   50.9892 C.ar      4 PHE5        0.0000 
      7 O          71.4257   48.6906   49.4585 O.2       2 ALA2        0.0000 
      8 CZ         72.2961   48.1431   50.5505 C.ar      4 PHE5        0.0000 
      9 CZ         71.0921   47.5321   51.2040 C.ar      4 PHE5        0.0000 
     10 OG         69.8880   46.9211   51.8574 O.2       1 SER1        0.0000 
     11 CZ         70.7585   46.3736   52.9494 C.ar      4 PHE5        0.0000 
     12 N          74.9106   48.1093   48.4497 N.2       2 ALA2        0.0000 
     13 N          73.7065   47.4983   49.1031 N.2       2 ALA2        0.0000 
     14 CA         74.5770   46.9508   50.1951 C.3       5 GLY6        0.0000 
     15 O          72.5025   46.8873   49.7565 O.2       2 ALA2        0.0000 
     16 CZ         73.3729   46.3398   50.8486 C.ar      4 PHE5        0.0000 
     17 CZ         74.2434   45.7923   51.9406 C.ar      4 PHE5        0.0000 
     18 CA         75.1138   45.2448   53.0327 C.3       5 GLY6        0.0000 
     19 CA         75.9843   44.6974   54.1247 C.3       5 GLY6        0.0000 
     20 CA         71.2984   46.2763   50.4099 C.3       5 GLY6        0.0000 
     21 CZ         72.1689   45.7288   51.5020 C.ar      4 PHE5        0.0000 
     22 CZ         73.0393   45.1814   52.5940 C.ar      4 PHE5        0.0000 
     23 DU         73.9098   44.6339   53.6861 H         6 CUB7        0.0000 
     24 OG         70.0944   45.6654   51.0634 O.2       1 SER1        0.0000 
     25 DU         70.9648   45.1179   52.1554 H         6 CUB7        0.0000 
     26 DU         71.8353   44.5704   53.2475 H         6 CUB7        0.0000 
     27 OG         69.7607   44.5069   52.8088 O.2       1 SER1        0.0000 
     28 CA         74.7833   45.6950   49.4011 C.3       5 GLY6        0.0000 
     29 N          72.7088   45.6315   48.9625 N.2       2 ALA2        0.0000 
     30 N          73.5792   45.0840   50.0545 N.2       2 ALA2        0.0000 
     31 CA         74.4497   44.5366   51.1466 C.3       5 GLY6        0.0000 
     32 CA         75.3201   43.9891   52.2386 C.3       5 GLY6        0.0000 
     33 CZ         76.1906   43.4416   53.3307 C.ar      4 PHE5        0.0000 
     34 N          72.3752   44.4731   50.7080 N.2       2 ALA2        0.0000 
     35 DU         73.2456   43.9256   51.8000 H         6 CUB7        0.0000 
     36 DU         74.1161   43.3781   52.8921 H         6 CUB7        0.0000 
     37 OG         74.9865   42.8306   53.9841 O.2       1 SER1        0.0000 
     38 CA         71.1711   43.8621   51.3614 C.3       5 GLY6        0.0000 
     39 OG         72.0416   43.3146   52.4534 O.2       1 SER1        0.0000 
     40 OG         72.9120   42.7671   53.5455 O.2       1 SER1        0.0000 
     41 OG         70.8375   42.7036   53.1069 O.2       1 SER1        0.0000 
     42 N          73.7855   43.8283   49.2605 N.2       2 ALA2        0.0000 
     43 O          74.6560   43.2808   50.3526 O.2       2 ALA2        0.0000 
     44 CA         75.5264   42.7333   51.4446 C.3       5 GLY6        0.0000 
     45 CZ         76.3969   42.1858   52.5367 C.ar      4 PHE5        0.0000 
     46 N          73.4519   42.6698   51.0060 N.2       2 ALA2        0.0000 
     47 DU         74.3224   42.1223   52.0980 H         6 CUB7        0.0000 
     48 OG         75.1928   41.5748   53.1901 O.2       1 SER1        0.0000 
     49 OG         72.2479   42.0588   51.6594 O.2       1 SER1        0.0000 
     50 OG         73.1183   41.5113   52.7515 O.2       1 SER1        0.0000 
     51 OG         73.9888   40.9639   53.8435 O.2       1 SER1        0.0000 
     52 O          74.8623   42.0250   49.5586 O.2       2 ALA2        0.0000 
     53 N          75.7328   41.4775   50.6506 N.2       2 ALA2        0.0000 
     54 N          73.6583   41.4140   50.2120 N.2       2 ALA2        0.0000 
     55 N          74.5287   40.8665   51.3040 N.2       2 ALA2        0.0000 
     56 OG         72.4542   40.8031   50.8654 O.2       1 SER1        0.0000 
     57 OG         73.3247   40.2556   51.9575 O.2       1 SER1        0.0000 
     58 OG         74.1951   39.7081   53.0495 O.2       1 SER1        0.0000 
     59 N          75.0656   39.1606   54.1416 N.2       2 ALA2        0.0000 
     60 OG         73.8646   40.1583   49.4180 O.2       1 SER1        0.0000 
     61 N          74.7350   39.6108   50.5100 N.2       2 ALA2        0.0000 
     62 N          74.4014   38.4523   52.2555 N.2       2 ALA2        0.0000 
@<TRIPOS>BOND
@<TRIPOS>SUBSTRUCTURE
     1 SER1       10 GROUP   
     2 ALA2        4 GROUP   
     3 LYS4        2 GROUP   
     4 PHE5        1 GROUP   
     5 GLY6        3 GROUP   
     6 CUB7       23 GROUP   
@<TRIPOS>SET

