#    Name: 1v48_HA1_1_INTS_M
#    Modification time : Tue Mar 25 07:29:03 2014

@<TRIPOS>MOLECULE
1v48_HA1_1_INTS_M
   59     0    12     0     0
SMALL
NO_CHARGES


@<TRIPOS>ATOM
      1 N          69.6370   48.8180   50.3825 N.am      2 SEC2        0.0000 
      2 N          71.0510   48.2700   50.0890 N.am     10 SEL2        0.0000 
      3 N          68.2230   49.3660   50.6760 N.am      6 SEP2        0.0000 
      4 CA         71.0625   48.8150   48.1975 C.3       4 GLC5        0.0000 
      5 CA         72.2950   48.6540   49.6530 C.3      12 GLL5        0.0000 
      6 CA         69.8300   48.9760   46.7420 C.3       8 GLP5        0.0000 
      7 O          74.8870   51.0015   48.6490 O.2       1 ALC1        0.0000 
      8 O          74.1800   49.9120   48.8540 O.2       9 ALL1        0.0000 
      9 O          75.5940   52.0910   48.4440 O.2       5 ALP1        0.0000 
     10 O          75.9390   50.4695   48.4620 O.2       1 ALC1        0.0000 
     11 O          76.2840   48.8480   48.4800 O.2       9 ALL1        0.0000 
     12 O          76.9225   49.9920   48.4300 O.2       1 ALC1        0.0000 
     13 O          77.5610   51.1360   48.3800 O.2       5 ALP1        0.0000 
     14 CA         74.2040   46.4905   48.0125 C.3       4 GLC5        0.0000 
     15 CA         73.1450   47.5500   49.6440 C.3      12 GLL5        0.0000 
     16 CA         75.2630   45.4310   46.3810 C.3       8 GLP5        0.0000 
     17 CA         71.0965   43.5995   50.0935 C.3       4 GLC5        0.0000 
     18 CA         72.6500   45.1320   50.2120 C.3      12 GLL5        0.0000 
     19 CA         69.5430   42.0670   49.9750 C.3       8 GLP5        0.0000 
     20 CA         71.5550   45.1895   48.4605 C.3       4 GLC5        0.0000 
     21 CA         70.4600   45.2470   46.7090 C.3       8 GLP5        0.0000 
     22 CA         73.0380   46.8205   52.4475 C.3       4 GLC5        0.0000 
     23 CA         73.4070   44.8400   51.5340 C.3      12 GLL5        0.0000 
     24 CA         72.6690   48.8010   53.3610 C.3       8 GLP5        0.0000 
     25 CA         76.1245   44.8000   51.5030 C.3       4 GLC5        0.0000 
     26 CA         74.3640   43.6420   51.3350 C.3      12 GLL5        0.0000 
     27 CA         77.8850   45.9580   51.6710 C.3       8 GLP5        0.0000 
     28 CA         71.5720   42.2205   50.4050 C.3       4 GLC5        0.0000 
     29 CA         73.6010   42.3740   50.8350 C.3      12 GLL5        0.0000 
     30 CA         72.7780   39.8775   53.2075 C.3       4 GLC5        0.0000 
     31 CA         74.4940   40.7400   52.2830 C.3      12 GLL5        0.0000 
     32 CA         71.0620   39.0150   54.1320 C.3       8 GLP5        0.0000 
     33 CA         77.3000   41.9320   51.9905 C.3       4 GLC5        0.0000 
     34 CA         75.7270   41.3680   50.5970 C.3      12 GLL5        0.0000 
     35 CA         78.8730   42.4960   53.3840 C.3       8 GLP5        0.0000 
     36 CA         77.0255   42.7520   50.0865 C.3       4 GLC5        0.0000 
     37 CA         78.3240   44.1360   49.5760 C.3       8 GLP5        0.0000 
     38 CA         76.6725   40.3785   49.0715 C.3       4 GLC5        0.0000 
     39 CA         77.6180   39.3890   47.5460 C.3       8 GLP5        0.0000 
     40 N          71.8345   38.6195   51.3150 N.am      2 SEC2        0.0000 
     41 N          72.4530   39.8050   50.3640 N.am     10 SEL2        0.0000 
     42 N          71.2160   37.4340   52.2660 N.am      6 SEP2        0.0000 
     43 N          71.7510   39.9615   51.7990 N.am      2 SEC2        0.0000 
     44 N          71.0490   40.1180   53.2340 N.am      6 SEP2        0.0000 
     45 N          71.4815   40.3195   49.2250 N.am      2 SEC2        0.0000 
     46 N          70.5100   40.8340   48.0860 N.am      6 SEP2        0.0000 
     47 N          75.2110   39.8835   47.9315 N.am      2 SEC2        0.0000 
     48 N          74.1700   40.2640   48.6970 N.am     10 SEL2        0.0000 
     49 N          76.2520   39.5030   47.1660 N.am      6 SEP2        0.0000 
     50 NZ         74.5935   37.7800   49.3280 N.4       3 LYC4        0.0000 
     51 NZ         74.6210   38.6860   50.4980 N.4      11 LYL4        0.0000 
     52 NZ         75.5010   36.2110   47.4910 N.4       7 LYP4        0.0000 
     53 N          74.5935   37.7800   49.3280 N.am      2 SEC2        0.0000 
     54 N          74.6210   38.6860   50.4980 N.am     10 SEL2        0.0000 
     55 N          74.5660   36.8740   48.1580 N.am      6 SEP2        0.0000 
     56 N          75.8895   38.7830   51.2035 N.am      2 SEC2        0.0000 
     57 N          77.1580   38.8800   51.9090 N.am      6 SEP2        0.0000 
     58 CA         76.6684   40.3679   51.2761 C.3       4 GLC5        0.0000 
     59 CA         78.2320   39.5920   51.4360 C.3       8 GLP5        0.0000 
@<TRIPOS>BOND
@<TRIPOS>SUBSTRUCTURE
     1 ALC1        7 GROUP        1 X    ALC  0     ROOT ALC X 1
     2 SEC2        1 GROUP        1 X    SEC  0     **** SEC X 2
     3 LYC4       50 GROUP        1 X    LYC  0     **** LYC X 4
     4 GLC5        4 GROUP        1 X    GLC  0     **** GLC X 6
     5 ALP1        9 GROUP        1 Y    ALP  0     ROOT ALP Y 8
     6 SEP2        3 GROUP        1 Y    SEP  0     **** SEP Y 9
     7 LYP4       52 GROUP        1 Y    LYP  0     **** LYP Y 11
     8 GLP5        6 GROUP        1 Y    GLP  0     **** GLP Y 13
     9 ALL1        8 GROUP        1 Z    ALL  0     ROOT ALL Z 15
    10 SEL2        2 GROUP        1 Z    SEL  0     **** SEL Z 16
    11 LYL4       51 GROUP        1 Z    LYL  0     **** LYL Z 18
    12 GLL5        5 GROUP        1 Z    GLL  0     **** GLL Z 20
@<TRIPOS>SET

