#    Name: 1v48_HA1_1_ligand
#    Modification time : Tue Mar 25 07:29:03 2014

@<TRIPOS>MOLECULE
1v48_HA1_1_ligand
   34    35     1     0     0
SMALL
NO_CHARGES


@<TRIPOS>ATOM
      1 N9         72.3650   46.4880   50.0860 N.pl3     1 HA1290      0.0000 
      2 C8         71.1030   46.9890   50.3430 C.2       1 HA1290      0.0000 
      3 N7         71.0510   48.2700   50.0890 N.2       1 HA1290      0.0000 
      4 C5         72.2950   48.6540   49.6530 C.2       1 HA1290      0.0000 
      5 C6         72.8050   49.9450   49.2380 C.2       1 HA1290      0.0000 
      6 O6         72.1750   51.0160   49.1910 O.2       1 HA1290      0.0000 
      7 N1         74.1800   49.9120   48.8540 N.am      1 HA1290      0.0000 
      8 C2         74.9780   48.7450   48.8730 C.2       1 HA1290      0.0000 
      9 N2         76.2840   48.8480   48.4800 N.pl3     1 HA1290      0.0000 
     10 N3         74.4860   47.5150   49.2700 N.2       1 HA1290      0.0000 
     11 C4         73.1450   47.5500   49.6440 C.2       1 HA1290      0.0000 
     12 C10        72.6500   45.1320   50.2120 C.3       1 HA1290      0.0000 
     13 C11        73.4070   44.8400   51.5340 C.3       1 HA1290      0.0000 
     14 C12        74.3640   43.6420   51.3350 C.3       1 HA1290      0.0000 
     15 C13        73.6010   42.3740   50.8350 C.3       1 HA1290      0.0000 
     16 C14        74.4710   41.0990   50.9880 C.3       1 HA1290      0.0000 
     17 F15        74.4940   40.7400   52.2830 F         1 HA1290      0.0000 
     18 F16        75.7270   41.3680   50.5970 F         1 HA1290      0.0000 
     19 P          73.9180   39.9670   50.1360 P.3       1 HA1290      0.0000 
     20 O2P        72.4530   39.8050   50.3640 O.co2     1 HA1290      0.0000 
     21 O1P        74.1700   40.2640   48.6970 O.co2     1 HA1290      0.0000 
     22 O3P        74.6210   38.6860   50.4980 O.co2     1 HA1290      0.0000 
     23 H          70.3693   46.4227   50.6725 H         1 HA1290      0.0000 
     24 H          74.6186   50.8094   48.5402 H         1 HA1290      0.0000 
     25 H          76.6024   49.7670   48.2474 H         1 HA1290      0.0000 
     26 H          76.8060   47.9953   48.4597 H         1 HA1290      0.0000 
     27 H          73.2881   44.7500   49.3952 H         1 HA1290      0.0000 
     28 H          71.7425   44.5023   50.2255 H         1 HA1290      0.0000 
     29 H          72.6908   44.6001   52.3055 H         1 HA1290      0.0000 
     30 H          73.9799   45.7116   51.8129 H         1 HA1290      0.0000 
     31 H          74.8467   43.4074   52.2794 H         1 HA1290      0.0000 
     32 H          75.1202   43.9047   50.6008 H         1 HA1290      0.0000 
     33 H          73.3468   42.5092   49.7898 H         1 HA1290      0.0000 
     34 H          72.6945   42.2595   51.4184 H         1 HA1290      0.0000 
@<TRIPOS>BOND
     1    2    1 1    
     2   11    1 1    
     3   12    1 1    
     4    3    2 2    
     5   23    2 1    
     6    4    3 1    
     7    5    4 1    
     8   11    4 2    
     9    6    5 2    
    10    7    5 am   
    11    8    7 1    
    12   24    7 1    
    13    9    8 1    
    14   10    8 2    
    15   25    9 1    
    16   26    9 1    
    17   11   10 1    
    18   13   12 1    
    19   27   12 1    
    20   28   12 1    
    21   14   13 1    
    22   29   13 1    
    23   30   13 1    
    24   15   14 1    
    25   31   14 1    
    26   32   14 1    
    27   16   15 1    
    28   33   15 1    
    29   34   15 1    
    30   17   16 1    
    31   18   16 1    
    32   19   16 1    
    33   20   19 ar   
    34   21   19 ar   
    35   22   19 ar   
@<TRIPOS>SUBSTRUCTURE
     1 HA1290      1 GROUP   
@<TRIPOS>SET

