#    Name: 3kud_GDP_1_INTS_M
#    Modification time : Mon Mar 24 20:31:22 2014

@<TRIPOS>MOLECULE
3kud_GDP_1_INTS_M
   69     0    15     0     0
SMALL
NO_CHARGES


@<TRIPOS>ATOM
      1 NZ        -30.3125  -22.3860  -27.8865 N.4       3 LYC4        0.0000 
      2 NZ        -29.8310  -23.6110  -28.2250 N.4      13 LYL4        0.0000 
      3 NZ        -30.7940  -21.1610  -27.5480 N.4       8 LYP4        0.0000 
      4 N         -29.7390  -24.4705  -29.5145 N.am      2 SEC2        0.0000 
      5 N         -29.8310  -23.6110  -28.2250 N.am     12 SEL2        0.0000 
      6 N         -29.6470  -25.3300  -30.8040 N.am      7 SEP2        0.0000 
      7 N         -28.7935  -23.4055  -29.2695 N.am      2 SEC2        0.0000 
      8 N         -27.7560  -23.2000  -30.3140 N.am      7 SEP2        0.0000 
      9 N         -30.3125  -22.3860  -27.8865 N.am      2 SEC2        0.0000 
     10 N         -30.7940  -21.1610  -27.5480 N.am      7 SEP2        0.0000 
     11 Zn        -27.6375  -23.8135  -25.8725 Zn        4 ZIC7        0.0000 
     12 Zn        -27.6960  -24.0230  -26.9660 Zn       14 ZIL7        0.0000 
     13 Zn        -27.5790  -23.6040  -24.7790 Zn        9 ZIP7        0.0000 
     14 N         -26.5810  -23.6800  -27.7495 N.am      2 SEC2        0.0000 
     15 N         -27.6960  -24.0230  -26.9660 N.am     12 SEL2        0.0000 
     16 N         -25.4660  -23.3370  -28.5330 N.am      7 SEP2        0.0000 
     17 N         -27.3045  -22.8585  -26.2905 N.am      2 SEC2        0.0000 
     18 N         -26.9130  -21.6940  -25.6150 N.am      7 SEP2        0.0000 
     19 NZ        -30.4235  -22.9165  -26.8305 N.4       3 LYC4        0.0000 
     20 NZ        -30.0530  -24.6720  -26.1130 N.4      13 LYL4        0.0000 
     21 N         -31.3810  -24.9625  -26.5710 N.am      2 SEC2        0.0000 
     22 N         -30.0530  -24.6720  -26.1130 N.am     12 SEL2        0.0000 
     23 N         -32.7090  -25.2530  -27.0290 N.am      7 SEP2        0.0000 
     24 N         -29.3290  -25.6830  -29.3125 N.am      2 SEC2        0.0000 
     25 N         -29.0110  -26.0360  -27.8210 N.am     12 SEL2        0.0000 
     26 N         -26.0090  -24.8145  -28.5095 N.am      2 SEC2        0.0000 
     27 N         -26.5520  -26.2920  -28.4860 N.am     12 SEL2        0.0000 
     28 N         -25.3285  -25.9205  -28.9390 N.am      2 SEC2        0.0000 
     29 N         -24.1050  -25.5490  -29.3920 N.am      7 SEP2        0.0000 
     30 CA        -31.0090  -27.6405  -28.0235 C.3       5 GLC5        0.0000 
     31 CA        -29.5200  -28.8100  -28.2460 C.3      15 GLL5        0.0000 
     32 CA        -32.4980  -26.4710  -27.8010 C.3      10 GLP5        0.0000 
     33 CA        -29.5980  -28.8900  -26.3610 C.3       5 GLC5        0.0000 
     34 CA        -29.6760  -28.9700  -24.4760 C.3      10 GLP5        0.0000 
     35 N         -30.7810  -29.9780  -30.9020 N.am      2 SEC2        0.0000 
     36 N         -29.5790  -30.4150  -30.0520 N.am     12 SEL2        0.0000 
     37 N         -31.9830  -29.5410  -31.7520 N.am      7 SEP2        0.0000 
     38 CA        -26.0325  -31.7615  -31.0255 C.3       5 GLC5        0.0000 
     39 CA        -27.3570  -30.8380  -29.4910 C.3      15 GLL5        0.0000 
     40 CA        -24.7080  -32.6850  -32.5600 C.3      10 GLP5        0.0000 
     41 O         -25.1930  -31.6615  -29.1940 O.2       1 ALC1        0.0000 
     42 O         -26.4850  -31.9380  -29.6160 O.2      11 ALL1        0.0000 
     43 O         -23.9010  -31.3850  -28.7720 O.2       6 ALP1        0.0000 
     44 CA        -29.9380  -29.9030  -31.7305 C.3       5 GLC5        0.0000 
     45 CA        -28.4050  -31.0440  -30.5780 C.3      15 GLL5        0.0000 
     46 CA        -31.4710  -28.7620  -32.8830 C.3      10 GLP5        0.0000 
     47 N         -27.6570  -27.3925  -33.8845 N.am      2 SEC2        0.0000 
     48 N         -27.1490  -28.6610  -33.0320 N.am     12 SEL2        0.0000 
     49 N         -28.1650  -26.1240  -34.7370 N.am      7 SEP2        0.0000 
     50 CA        -29.1430  -29.1390  -34.5885 C.3       5 GLC5        0.0000 
     51 CA        -27.4620  -29.6900  -33.8640 C.3      15 GLL5        0.0000 
     52 CA        -30.8240  -28.5880  -35.3130 C.3      10 GLP5        0.0000 
     53 CA        -25.6685  -28.5470  -34.1870 C.3       5 GLC5        0.0000 
     54 CA        -23.8750  -27.4040  -34.5100 C.3      10 GLP5        0.0000 
     55 N         -26.1605  -29.7360  -37.5445 N.am      2 SEC2        0.0000 
     56 N         -26.9560  -29.1150  -36.1390 N.am     12 SEL2        0.0000 
     57 N         -25.3650  -30.3570  -38.9500 N.am      7 SEP2        0.0000 
     58 O         -27.6430  -31.3455  -37.1060 O.2       1 ALC1        0.0000 
     59 O         -27.7660  -31.1590  -35.7450 O.2      11 ALL1        0.0000 
     60 O         -27.5200  -31.5320  -38.4670 O.2       6 ALP1        0.0000 
     61 O         -28.2560  -33.4820  -36.8445 O.2       1 ALC1        0.0000 
     62 O         -28.5890  -33.2840  -35.4220 O.2      11 ALL1        0.0000 
     63 O         -27.9230  -33.6800  -38.2670 O.2       6 ALP1        0.0000 
     64 CA        -29.7260  -30.1585  -33.5960 C.3       5 GLC5        0.0000 
     65 CA        -27.9970  -30.7740  -33.0210 C.3      15 GLL5        0.0000 
     66 CA        -31.4550  -29.5430  -34.1710 C.3      10 GLP5        0.0000 
     67 CA        -29.1567  -31.0810  -26.5927 C.3       5 GLC5        0.0000 
     68 CA        -29.4960  -30.3040  -28.6140 C.3      15 GLL5        0.0000 
     69 CA        -29.4850  -31.5250  -24.7640 C.3      10 GLP5        0.0000 
@<TRIPOS>BOND
@<TRIPOS>SUBSTRUCTURE
     1 ALC1       41 GROUP        1 X    ALC  0     ROOT ALC X 1
     2 SEC2        4 GROUP        1 X    SEC  0     **** SEC X 2
     3 LYC4        1 GROUP        1 X    LYC  0     **** LYC X 4
     4 ZIC7       11 GROUP        1 X    ZIC  0     **** ZIC X 5
     5 GLC5       30 GROUP        1 X    GLC  0     **** GLC X 6
     6 ALP1       43 GROUP        1 Y    ALP  0     ROOT ALP Y 8
     7 SEP2        6 GROUP        1 Y    SEP  0     **** SEP Y 9
     8 LYP4        3 GROUP        1 Y    LYP  0     **** LYP Y 11
     9 ZIP7       13 GROUP        1 Y    ZIP  0     **** ZIP Y 12
    10 GLP5       32 GROUP        1 Y    GLP  0     **** GLP Y 13
    11 ALL1       42 GROUP        1 Z    ALL  0     ROOT ALL Z 15
    12 SEL2        5 GROUP        1 Z    SEL  0     **** SEL Z 16
    13 LYL4        2 GROUP        1 Z    LYL  0     **** LYL Z 18
    14 ZIL7       12 GROUP        1 Z    ZIL  0     **** ZIL Z 19
    15 GLL5       31 GROUP        1 Z    GLL  0     **** GLL Z 20
@<TRIPOS>SET

