#    Name: 3kud_GDP_1_ligand
#    Modification time : Mon Mar 24 20:31:22 2014

@<TRIPOS>MOLECULE
3kud_GDP_1_ligand
   40    42     1     0     0
SMALL
NO_CHARGES


@<TRIPOS>ATOM
      1 PB        -29.1050  -24.5420  -27.3100 P.3       1 GDP170      0.0000 
      2 O1B       -29.8310  -23.6110  -28.2250 O.co2     1 GDP170      0.0000 
      3 O2B       -27.6960  -24.0230  -26.9660 O.co2     1 GDP170      0.0000 
      4 O3B       -30.0530  -24.6720  -26.1130 O.co2     1 GDP170      0.0000 
      5 O3A       -29.0110  -26.0360  -27.8210 O.3       1 GDP170      0.0000 
      6 PA        -27.7050  -26.9560  -27.7280 P.3       1 GDP170      0.0000 
      7 O1A       -27.5450  -27.2030  -26.3070 O.co2     1 GDP170      0.0000 
      8 O2A       -26.5520  -26.2920  -28.4860 O.co2     1 GDP170      0.0000 
      9 O5'       -28.1690  -28.3120  -28.4550 O.3       1 GDP170      0.0000 
     10 C5'       -29.5200  -28.8100  -28.2460 C.3       1 GDP170      0.0000 
     11 C4'       -29.4960  -30.3040  -28.6140 C.3       1 GDP170      0.0000 
     12 O4'       -29.5790  -30.4150  -30.0520 O.3       1 GDP170      0.0000 
     13 C3'       -28.1610  -30.9700  -28.2290 C.3       1 GDP170      0.0000 
     14 O3'       -28.3710  -32.3630  -28.1460 O.3       1 GDP170      0.0000 
     15 C2'       -27.3570  -30.8380  -29.4910 C.3       1 GDP170      0.0000 
     16 O2'       -26.4850  -31.9380  -29.6160 O.3       1 GDP170      0.0000 
     17 C1'       -28.4050  -31.0440  -30.5780 C.3       1 GDP170      0.0000 
     18 N9        -27.9600  -30.3030  -31.7720 N.pl3     1 GDP170      0.0000 
     19 C8        -27.4790  -29.0390  -31.7740 C.2       1 GDP170      0.0000 
     20 N7        -27.1490  -28.6610  -33.0320 N.2       1 GDP170      0.0000 
     21 C5        -27.4620  -29.6900  -33.8640 C.2       1 GDP170      0.0000 
     22 C6        -27.3640  -29.9590  -35.3110 C.2       1 GDP170      0.0000 
     23 O6        -26.9560  -29.1150  -36.1390 O.2       1 GDP170      0.0000 
     24 N1        -27.7660  -31.1590  -35.7450 N.am      1 GDP170      0.0000 
     25 C2        -28.2400  -32.1030  -34.8960 C.2       1 GDP170      0.0000 
     26 N2        -28.5890  -33.2840  -35.4220 N.pl3     1 GDP170      0.0000 
     27 N3        -28.3660  -31.9570  -33.5700 N.2       1 GDP170      0.0000 
     28 C4        -27.9970  -30.7740  -33.0210 C.2       1 GDP170      0.0000 
     29 H         -30.2298  -28.3157  -28.8899 H         1 GDP170      0.0000 
     30 H         -29.8209  -28.7219  -27.2143 H         1 GDP170      0.0000 
     31 H         -30.2885  -30.8089  -28.1410 H         1 GDP170      0.0000 
     32 H         -27.7240  -30.5234  -27.4579 H         1 GDP170      0.0000 
     33 H         -26.9383  -29.9166  -29.5826 H         1 GDP170      0.0000 
     34 H         -28.5278  -32.0540  -30.7559 H         1 GDP170      0.0000 
     35 H         -27.3827  -28.4770  -30.9806 H         1 GDP170      0.0000 
     36 H         -27.7156  -31.3838  -36.7746 H         1 GDP170      0.0000 
     37 H         -28.4892  -33.3710  -36.4132 H         1 GDP170      0.0000 
     38 H         -28.9182  -33.9732  -34.7765 H         1 GDP170      0.0000 
     39 H         -27.8293  -32.7511  -28.8915 H         1 GDP170      0.0000 
     40 H         -25.6068  -31.6132  -29.2648 H         1 GDP170      0.0000 
@<TRIPOS>BOND
     1    2    1 ar   
     2    3    1 ar   
     3    4    1 ar   
     4    5    1 1    
     5    6    5 1    
     6    7    6 ar   
     7    8    6 ar   
     8    9    6 1    
     9   10    9 1    
    10   11   10 1    
    11   29   10 1    
    12   30   10 1    
    13   12   11 1    
    14   13   11 1    
    15   31   11 1    
    16   17   12 1    
    17   14   13 1    
    18   15   13 1    
    19   32   13 1    
    20   39   14 1    
    21   16   15 1    
    22   17   15 1    
    23   33   15 1    
    24   40   16 1    
    25   18   17 1    
    26   34   17 1    
    27   19   18 1    
    28   28   18 1    
    29   20   19 2    
    30   35   19 1    
    31   21   20 1    
    32   22   21 1    
    33   28   21 2    
    34   23   22 2    
    35   24   22 am   
    36   25   24 1    
    37   36   24 1    
    38   26   25 1    
    39   27   25 2    
    40   37   26 1    
    41   38   26 1    
    42   28   27 1    
@<TRIPOS>SUBSTRUCTURE
     1 GDP170      1 GROUP   
@<TRIPOS>SET

