#    Name: 3en5_KS4_2_INTS_M
#    Modification time : Tue Mar 25 02:11:17 2014

@<TRIPOS>MOLECULE
3en5_KS4_2_INTS_M
   65     0     9     0     0
SMALL
NO_CHARGES


@<TRIPOS>ATOM
      1 CA          3.4615  -19.2955  -30.3715 C.3       3 GLC5        0.0000 
      2 CA          3.0450  -21.3740  -29.9910 C.3       9 GLL5        0.0000 
      3 CA          3.8780  -17.2170  -30.7520 C.3       6 GLP5        0.0000 
      4 CA          3.6745  -21.1635  -31.7945 C.3       3 GLC5        0.0000 
      5 CA          4.3040  -20.9530  -33.5980 C.3       6 GLP5        0.0000 
      6 CA          2.8530  -22.4065  -31.7045 C.3       3 GLC5        0.0000 
      7 CA          2.3310  -22.6650  -29.5710 C.3       9 GLL5        0.0000 
      8 CA          3.3750  -22.1480  -33.8380 C.3       6 GLP5        0.0000 
      9 CA          0.5670  -23.1450  -32.0485 C.3       3 GLC5        0.0000 
     10 CA          1.7600  -24.5960  -30.9920 C.3       9 GLL5        0.0000 
     11 CA         -0.6260  -21.6940  -33.1050 C.3       6 GLP5        0.0000 
     12 CA         -0.4405  -23.6225  -32.3360 C.3       3 GLC5        0.0000 
     13 CA         -0.2550  -25.5510  -31.5670 C.3       9 GLL5        0.0000 
     14 CA          0.4770  -25.6465  -33.6545 C.3       3 GLC5        0.0000 
     15 CA          1.2090  -25.7420  -35.7420 C.3       6 GLP5        0.0000 
     16 CA         -1.0910  -27.1710  -31.1340 C.3       3 GLC5        0.0000 
     17 CA         -1.9270  -28.7910  -30.7010 C.3       6 GLP5        0.0000 
     18 N          -0.6240  -27.4945  -32.1900 N.am      2 SEC2        0.0000 
     19 N           0.3540  -26.4830  -32.2860 N.am      8 SEL2        0.0000 
     20 N          -1.6020  -28.5060  -32.0940 N.am      5 SEP2        0.0000 
     21 CA          0.5205  -27.7825  -31.1435 C.3       3 GLC5        0.0000 
     22 CA          1.6960  -26.5250  -32.4040 C.3       9 GLL5        0.0000 
     23 CA         -0.6550  -29.0400  -29.8830 C.3       6 GLP5        0.0000 
     24 CA          2.6845  -27.5905  -31.1020 C.3       3 GLC5        0.0000 
     25 CA          3.6730  -28.6560  -29.8000 C.3       6 GLP5        0.0000 
     26 O           1.4365  -28.5955  -33.9555 O.2       1 ALC1        0.0000 
     27 O           2.2300  -27.4950  -33.1500 O.2       7 ALL1        0.0000 
     28 O           0.6430  -29.6960  -34.7610 O.2       4 ALP1        0.0000 
     29 CA          3.1145  -25.8040  -34.6035 C.3       3 GLC5        0.0000 
     30 CA          5.0200  -25.8660  -33.4650 C.3       9 GLL5        0.0000 
     31 CA          7.1365  -28.5165  -30.6745 C.3       3 GLC5        0.0000 
     32 CA          7.1910  -26.7710  -31.9930 C.3       9 GLL5        0.0000 
     33 CA          7.0820  -30.2620  -29.3560 C.3       6 GLP5        0.0000 
     34 CA          8.3835  -25.3120  -33.9115 C.3       3 GLC5        0.0000 
     35 CA          7.2170  -26.8770  -33.4040 C.3       9 GLL5        0.0000 
     36 CA          9.5500  -23.7470  -34.4190 C.3       6 GLP5        0.0000 
     37 CA          9.4530  -25.9375  -33.9800 C.3       3 GLC5        0.0000 
     38 CA          9.3560  -28.1280  -33.5410 C.3       9 GLL5        0.0000 
     39 CA         10.2370  -28.7645  -32.0750 C.3       3 GLC5        0.0000 
     40 CA         11.1180  -29.4010  -30.6090 C.3       6 GLP5        0.0000 
     41 CA          5.8240  -28.0060  -35.3975 C.3       3 GLC5        0.0000 
     42 CA          6.1100  -26.4040  -34.1240 C.3       9 GLL5        0.0000 
     43 CA          5.5380  -29.6080  -36.6710 C.3       6 GLP5        0.0000 
     44 CA          3.0560  -25.9880  -36.0060 C.3       3 GLC5        0.0000 
     45 CA          4.9030  -26.2340  -36.2700 C.3       9 GLL5        0.0000 
     46 CA          4.3190  -24.9875  -37.6000 C.3       3 GLC5        0.0000 
     47 CA          3.7350  -23.7410  -38.9300 C.3       6 GLP5        0.0000 
     48 CA          6.2990  -25.0335  -36.2275 C.3       3 GLC5        0.0000 
     49 CA          7.6950  -23.8330  -36.1850 C.3       6 GLP5        0.0000 
     50 CA          5.2205  -27.9210  -36.4705 C.3       3 GLC5        0.0000 
     51 CA          1.4685  -20.7983  -30.9150 C.3       3 GLC5        0.0000 
     52 CA          0.2490  -19.5770  -32.0490 C.3       6 GLP5        0.0000 
     53 CA          1.2935  -23.6973  -27.8732 C.3       3 GLC5        0.0000 
     54 CA         -0.1880  -24.6980  -26.7980 C.3       6 GLP5        0.0000 
     55 CA          2.8150  -24.8083  -28.5922 C.3       3 GLC5        0.0000 
     56 CA          3.2190  -22.7280  -28.3260 C.3       9 GLL5        0.0000 
     57 CA          2.8550  -26.9200  -28.2360 C.3       6 GLP5        0.0000 
     58 CA          2.7425  -23.6075  -32.6033 C.3       3 GLC5        0.0000 
     59 CA          2.4825  -25.9935  -29.8023 C.3       3 GLC5        0.0000 
     60 CA          1.6435  -25.8867  -33.9082 C.3       3 GLC5        0.0000 
     61 CA          2.4600  -25.5380  -31.7450 C.3       9 GLL5        0.0000 
     62 CA          4.1840  -23.9860  -33.3090 C.3       3 GLC5        0.0000 
     63 CA          4.5927  -27.3295  -30.7602 C.3       3 GLC5        0.0000 
     64 CA          4.9660  -25.7820  -32.0950 C.3       9 GLL5        0.0000 
     65 CA          6.6300  -24.9840  -34.9898 C.3       3 GLC5        0.0000 
@<TRIPOS>BOND
@<TRIPOS>SUBSTRUCTURE
     1 ALC1       26 GROUP        1 X    ALC  0     ROOT ALC X 1
     2 SEC2       18 GROUP        1 X    SEC  0     **** SEC X 2
     3 GLC5        1 GROUP        1 X    GLC  0     **** GLC X 6
     4 ALP1       28 GROUP        1 Y    ALP  0     ROOT ALP Y 8
     5 SEP2       20 GROUP        1 Y    SEP  0     **** SEP Y 9
     6 GLP5        3 GROUP        1 Y    GLP  0     **** GLP Y 13
     7 ALL1       27 GROUP        1 Z    ALL  0     ROOT ALL Z 15
     8 SEL2       19 GROUP        1 Z    SEL  0     **** SEL Z 16
     9 GLL5        2 GROUP        1 Z    GLL  0     **** GLL Z 20
@<TRIPOS>SET

