#    Name: 3en5_KS4_2_ligand
#    Modification time : Tue Mar 25 02:11:17 2014

@<TRIPOS>MOLECULE
3en5_KS4_2_ligand
   43    46     1     0     0
SMALL
NO_CHARGES


@<TRIPOS>ATOM
      1 CAI         3.0450  -21.3740  -29.9910 C.3       1 KS42        0.0000 
      2 CAH         3.5190  -21.2300  -28.5550 C.3       1 KS42        0.0000 
      3 CAJ         3.2190  -22.7280  -28.3260 C.3       1 KS42        0.0000 
      4 CAW         2.3310  -22.6650  -29.5710 C.3       1 KS42        0.0000 
      5 NAX         2.6690  -23.7940  -30.4620 N.pl3     1 KS42        0.0000 
      6 NAM         3.8290  -24.1160  -30.7770 N.2       1 KS42        0.0000 
      7 C4          1.7600  -24.5960  -30.9920 C.ar      1 KS42        0.0000 
      8 N3          0.4260  -24.6200  -30.9110 N.ar      1 KS42        0.0000 
      9 C2         -0.2550  -25.5510  -31.5670 C.ar      1 KS42        0.0000 
     10 N1          0.3540  -26.4830  -32.2860 N.ar      1 KS42        0.0000 
     11 C6          1.6960  -26.5250  -32.4040 C.ar      1 KS42        0.0000 
     12 NAC         2.2300  -27.4950  -33.1500 N.pl3     1 KS42        0.0000 
     13 C5          2.4600  -25.5380  -31.7450 C.ar      1 KS42        0.0000 
     14 CAT         3.8230  -25.1930  -31.5510 C.2       1 KS42        0.0000 
     15 CAP         4.9660  -25.7820  -32.0950 C.ar      1 KS42        0.0000 
     16 CAG         5.0200  -25.8660  -33.4650 C.ar      1 KS42        0.0000 
     17 CAD         6.0590  -26.2240  -31.3460 C.ar      1 KS42        0.0000 
     18 CAE         7.1910  -26.7710  -31.9930 C.ar      1 KS42        0.0000 
     19 CAR         7.2170  -26.8770  -33.4040 C.ar      1 KS42        0.0000 
     20 OAN         8.2700  -27.4110  -34.1570 O.3       1 KS42        0.0000 
     21 CAA         9.3560  -28.1280  -33.5410 C.3       1 KS42        0.0000 
     22 CAS         6.1100  -26.4040  -34.1240 C.ar      1 KS42        0.0000 
     23 OAO         6.1130  -26.4750  -35.5070 O.3       1 KS42        0.0000 
     24 CAB         4.9030  -26.2340  -36.2700 C.3       1 KS42        0.0000 
     25 H           3.8204  -21.5959  -30.5946 H         1 KS42        0.0000 
     26 H           2.3637  -20.6642  -30.2072 H         1 KS42        0.0000 
     27 H           2.8677  -20.6719  -28.0221 H         1 KS42        0.0000 
     28 H           4.5170  -21.0792  -28.5257 H         1 KS42        0.0000 
     29 H           2.6537  -22.8343  -27.5050 H         1 KS42        0.0000 
     30 H           4.0422  -23.2671  -28.5172 H         1 KS42        0.0000 
     31 H           1.4021  -22.4907  -29.3217 H         1 KS42        0.0000 
     32 H          -1.3150  -25.5486  -31.5141 H         1 KS42        0.0000 
     33 H           1.5850  -28.1374  -33.5640 H         1 KS42        0.0000 
     34 H           3.2270  -27.4919  -33.2278 H         1 KS42        0.0000 
     35 H           4.2135  -25.5131  -34.0307 H         1 KS42        0.0000 
     36 H           6.0478  -26.1549  -30.3234 H         1 KS42        0.0000 
     37 H           7.9893  -27.0894  -31.4432 H         1 KS42        0.0000 
     38 H          10.0242  -28.4415  -34.2158 H         1 KS42        0.0000 
     39 H           9.8493  -27.5604  -32.8819 H         1 KS42        0.0000 
     40 H           9.0350  -28.9370  -33.0487 H         1 KS42        0.0000 
     41 H           5.0610  -26.3196  -37.2537 H         1 KS42        0.0000 
     42 H           4.1788  -26.8812  -36.0320 H         1 KS42        0.0000 
     43 H           4.5398  -25.3161  -36.1103 H         1 KS42        0.0000 
@<TRIPOS>BOND
     1    2    1 1    
     2    4    1 1    
     3   25    1 1    
     4   26    1 1    
     5    3    2 1    
     6   27    2 1    
     7   28    2 1    
     8    4    3 1    
     9   29    3 1    
    10   30    3 1    
    11    5    4 1    
    12   31    4 1    
    13    6    5 1    
    14    7    5 1    
    15   14    6 2    
    16    8    7 ar   
    17   13    7 ar   
    18    9    8 ar   
    19   10    9 ar   
    20   32    9 1    
    21   11   10 ar   
    22   12   11 1    
    23   13   11 ar   
    24   33   12 1    
    25   34   12 1    
    26   14   13 1    
    27   15   14 1    
    28   16   15 ar   
    29   17   15 ar   
    30   22   16 ar   
    31   35   16 1    
    32   18   17 ar   
    33   36   17 1    
    34   19   18 ar   
    35   37   18 1    
    36   20   19 1    
    37   22   19 ar   
    38   21   20 1    
    39   38   21 1    
    40   39   21 1    
    41   40   21 1    
    42   23   22 1    
    43   24   23 1    
    44   41   24 1    
    45   42   24 1    
    46   43   24 1    
@<TRIPOS>SUBSTRUCTURE
     1 KS42        1 GROUP   
@<TRIPOS>SET

