#    Name: 3ag6_PAJ_1_INTS_M
#    Modification time : Tue Mar 25 11:52:12 2014

@<TRIPOS>MOLECULE
3ag6_PAJ_1_INTS_M
   95     0     9     0     0
SMALL
NO_CHARGES


@<TRIPOS>ATOM
      1 N          -4.0150   -7.3305  -42.9730 N.am      2 SEC2        0.0000 
      2 N          -4.6900   -6.2740  -43.7250 N.am      8 SEL2        0.0000 
      3 N          -3.3400   -8.3870  -42.2210 N.am      5 SEP2        0.0000 
      4 N          -3.9245   -5.6670  -45.0855 N.am      2 SEC2        0.0000 
      5 N          -3.1590   -5.0600  -46.4460 N.am      5 SEP2        0.0000 
      6 CA         -2.2910   -5.2915  -42.4135 C.3       3 GLC5        0.0000 
      7 CA         -3.1260   -3.6480  -42.9890 C.3       9 GLL5        0.0000 
      8 CA         -1.4560   -6.9350  -41.8380 C.3       6 GLP5        0.0000 
      9 CA         -1.1355   -1.5940  -44.0445 C.3       3 GLC5        0.0000 
     10 CA         -2.6070   -2.2150  -43.1830 C.3       9 GLL5        0.0000 
     11 CA          0.3360   -0.9730  -44.9060 C.3       6 GLP5        0.0000 
     12 N          -2.3465    1.0120  -42.2435 N.am      2 SEC2        0.0000 
     13 N          -2.7320   -0.3530  -41.6180 N.am      8 SEL2        0.0000 
     14 N          -1.9610    2.3770  -42.8690 N.am      5 SEP2        0.0000 
     15 N          -3.6215    0.9565  -40.9160 N.am      2 SEC2        0.0000 
     16 N          -4.5110    2.2660  -40.2140 N.am      5 SEP2        0.0000 
     17 O          -1.5960   -0.9830  -41.2335 O.2       1 ALC1        0.0000 
     18 O          -2.7320   -0.3530  -41.6180 O.2       7 ALL1        0.0000 
     19 O          -0.4600   -1.6130  -40.8490 O.2       4 ALP1        0.0000 
     20 N          -3.2875    1.6170  -43.0200 N.am      2 SEC2        0.0000 
     21 N          -4.6140    0.8570  -43.1710 N.am      8 SEL2        0.0000 
     22 O          -5.9640    0.4740  -43.0935 O.2       1 ALC1        0.0000 
     23 O          -4.6140    0.8570  -43.1710 O.2       7 ALL1        0.0000 
     24 O          -7.3140    0.0910  -43.0160 O.2       4 ALP1        0.0000 
     25 CA         -2.6105   -2.5430  -45.5775 C.3       3 GLC5        0.0000 
     26 CA         -3.3060   -0.6110  -44.7240 C.3       9 GLL5        0.0000 
     27 CA         -1.9150   -4.4750  -46.4310 C.3       6 GLP5        0.0000 
     28 CA         -1.4850   -0.7920  -44.8150 C.3       3 GLC5        0.0000 
     29 N          -4.8555   -2.0355  -48.6195 N.am      2 SEC2        0.0000 
     30 N          -5.4200   -0.9160  -47.6250 N.am      8 SEL2        0.0000 
     31 N          -4.2910   -3.1550  -49.6140 N.am      5 SEP2        0.0000 
     32 CA         -5.7650    2.9555  -49.7395 C.3       3 GLC5        0.0000 
     33 CA         -4.7270    1.0820  -49.0830 C.3       9 GLL5        0.0000 
     34 CA         -6.8030    4.8290  -50.3960 C.3       6 GLP5        0.0000 
     35 CA         -3.4790    1.6905  -50.7315 C.3       3 GLC5        0.0000 
     36 CA         -2.2310    2.2990  -52.3800 C.3       6 GLP5        0.0000 
     37 O          -5.4255    1.5305  -51.3985 O.2       1 ALC1        0.0000 
     38 O          -5.5810    0.8730  -50.1460 O.2       7 ALL1        0.0000 
     39 O          -5.2700    2.1880  -52.6510 O.2       4 ALP1        0.0000 
     40 O          -6.4940   -0.1225  -50.1620 O.2       1 ALC1        0.0000 
     41 O          -7.4070   -1.1180  -50.1780 O.2       4 ALP1        0.0000 
     42 N          -3.7745    3.0310  -50.1435 N.am      2 SEC2        0.0000 
     43 N          -3.8710    2.1310  -49.0820 N.am      8 SEL2        0.0000 
     44 N          -3.6780    3.9310  -51.2050 N.am      5 SEP2        0.0000 
     45 CA         -2.2340    0.7655  -49.3385 C.3       3 GLC5        0.0000 
     46 CA         -3.0340    2.3560  -48.0660 C.3       9 GLL5        0.0000 
     47 CA         -1.4340   -0.8250  -50.6110 C.3       6 GLP5        0.0000 
     48 CA         -2.7950    2.7400  -46.0140 C.3       3 GLC5        0.0000 
     49 CA         -2.5560    3.1240  -43.9620 C.3       6 GLP5        0.0000 
     50 CA         -5.0490    2.5655  -47.1345 C.3       3 GLC5        0.0000 
     51 CA         -7.0640    2.7750  -46.2030 C.3       6 GLP5        0.0000 
     52 CA         -1.2325    2.6730  -47.8355 C.3       3 GLC5        0.0000 
     53 CA          0.5690    2.9900  -47.6050 C.3       6 GLP5        0.0000 
     54 CA         -3.7760    3.9535  -48.8360 C.3       3 GLC5        0.0000 
     55 CA         -4.5180    5.5510  -49.6060 C.3       6 GLP5        0.0000 
     56 CA         -2.0110    2.5710  -49.8540 C.3       3 GLC5        0.0000 
     57 CA         -0.9880    2.7860  -51.6420 C.3       6 GLP5        0.0000 
     58 CA         -3.1905    1.8010  -45.4385 C.3       3 GLC5        0.0000 
     59 CA         -3.8250    0.4780  -46.9150 C.3       9 GLL5        0.0000 
     60 N          -5.6120   -1.7180  -40.0165 N.am      2 SEC2        0.0000 
     61 N          -5.6160   -3.1480  -40.6710 N.am      8 SEL2        0.0000 
     62 N          -5.6080   -0.2880  -39.3620 N.am      5 SEP2        0.0000 
     63 CA         -5.6755   -6.6645  -39.6880 C.3       3 GLC5        0.0000 
     64 CA         -5.5350   -4.8010  -38.9450 C.3       9 GLL5        0.0000 
     65 CA         -5.8160   -8.5280  -40.4310 C.3       6 GLP5        0.0000 
     66 N          -7.4155   -4.9030  -37.8930 N.am      2 SEC2        0.0000 
     67 N          -6.3800   -3.9140  -38.2110 N.am      8 SEL2        0.0000 
     68 N          -8.4510   -5.8920  -37.5750 N.am      5 SEP2        0.0000 
     69 O          -6.6395   -2.6505  -38.0475 O.2       1 ALC1        0.0000 
     70 O          -6.3800   -3.9140  -38.2110 O.2       7 ALL1        0.0000 
     71 O          -6.8990   -1.3870  -37.8840 O.2       4 ALP1        0.0000 
     72 CA         -1.2745   -5.3540  -38.5565 C.3       3 GLC5        0.0000 
     73 CA         -3.1810   -5.8350  -38.9920 C.3       9 GLL5        0.0000 
     74 CA          0.6320   -4.8730  -38.1210 C.3       6 GLP5        0.0000 
     75 CA         -2.3185   -6.3850  -40.4150 C.3       3 GLC5        0.0000 
     76 CA         -4.4985   -7.1815  -39.7115 C.3       3 GLC5        0.0000 
     77 CA         -1.3715   -3.4560  -38.1655 C.3       3 GLC5        0.0000 
     78 CA         -3.4880   -3.5290  -38.0530 C.3       9 GLL5        0.0000 
     79 CA          0.7450   -3.3830  -38.2780 C.3       6 GLP5        0.0000 
     80 CA         -2.9865   -3.3580  -36.0420 C.3       3 GLC5        0.0000 
     81 CA         -2.4850   -3.1870  -34.0310 C.3       6 GLP5        0.0000 
     82 CA         -2.4175   -1.9640  -37.6660 C.3       3 GLC5        0.0000 
     83 CA         -1.3470   -0.3990  -37.2790 C.3       6 GLP5        0.0000 
     84 CA         -4.2655   -6.2665  -35.1530 C.3       3 GLC5        0.0000 
     85 CA         -4.3500   -5.5140  -36.8090 C.3       9 GLL5        0.0000 
     86 CA         -4.1810   -7.0190  -33.4970 C.3       6 GLP5        0.0000 
     87 CA         -3.4175   -4.3505  -35.4200 C.3       3 GLC5        0.0000 
     88 O          -6.1665   -6.7750  -36.3565 O.2       1 ALC1        0.0000 
     89 O          -4.9810   -6.7980  -36.8990 O.2       7 ALL1        0.0000 
     90 O          -7.3520   -6.7520  -35.8140 O.2       4 ALP1        0.0000 
     91 CA         -2.3908   -3.7032  -44.7585 C.3       3 GLC5        0.0000 
     92 CA         -3.1733    1.2880  -44.0440 C.3       3 GLC5        0.0000 
     93 CA         -3.0818   -0.0922  -49.5682 C.3       3 GLC5        0.0000 
     94 CA         -4.7320    0.1990  -47.9680 C.3       9 GLL5        0.0000 
     95 CA         -5.6706    1.6671  -46.9616 C.3       3 GLC5        0.0000 
@<TRIPOS>BOND
@<TRIPOS>SUBSTRUCTURE
     1 ALC1       17 GROUP        1 X    ALC  0     ROOT ALC X 1
     2 SEC2        1 GROUP        1 X    SEC  0     **** SEC X 2
     3 GLC5        6 GROUP        1 X    GLC  0     **** GLC X 6
     4 ALP1       19 GROUP        1 Y    ALP  0     ROOT ALP Y 8
     5 SEP2        3 GROUP        1 Y    SEP  0     **** SEP Y 9
     6 GLP5        8 GROUP        1 Y    GLP  0     **** GLP Y 13
     7 ALL1       18 GROUP        1 Z    ALL  0     ROOT ALL Z 15
     8 SEL2        2 GROUP        1 Z    SEL  0     **** SEL Z 16
     9 GLL5        7 GROUP        1 Z    GLL  0     **** GLL Z 20
@<TRIPOS>SET

