#    Name: 3ag6_PAJ_1_ligand
#    Modification time : Tue Mar 25 11:52:12 2014

@<TRIPOS>MOLECULE
3ag6_PAJ_1_ligand
   55    57     1     0     0
SMALL
NO_CHARGES


@<TRIPOS>ATOM
      1 P          -5.2700   -4.9890  -42.9640 P.3       1 PAJ501      0.0000 
      2 O1P        -6.7130   -4.8560  -43.2620 O.co2     1 PAJ501      0.0000 
      3 O2P        -4.6900   -6.2740  -43.7250 O.co2     1 PAJ501      0.0000 
      4 O5'        -4.4920   -3.6690  -43.4760 O.3       1 PAJ501      0.0000 
      5 C5'        -3.1260   -3.6480  -42.9890 C.3       1 PAJ501      0.0000 
      6 C4'        -2.6070   -2.2150  -43.1830 C.3       1 PAJ501      0.0000 
      7 O4'        -2.7440   -1.9430  -44.5910 O.3       1 PAJ501      0.0000 
      8 C3'        -3.5290   -1.2430  -42.4180 C.3       1 PAJ501      0.0000 
      9 O3'        -2.7320   -0.3530  -41.6180 O.3       1 PAJ501      0.0000 
     10 C2'        -4.2750   -0.4850  -43.5280 C.3       1 PAJ501      0.0000 
     11 O2'        -4.6140    0.8570  -43.1710 O.3       1 PAJ501      0.0000 
     12 C1'        -3.3060   -0.6110  -44.7240 C.3       1 PAJ501      0.0000 
     13 N9         -4.0270   -0.4960  -45.9880 N.pl3     1 PAJ501      0.0000 
     14 C8         -5.0080   -1.3280  -46.4620 C.2       1 PAJ501      0.0000 
     15 N7         -5.4200   -0.9160  -47.6250 N.2       1 PAJ501      0.0000 
     16 C5         -4.7320    0.1990  -47.9680 C.ar      1 PAJ501      0.0000 
     17 C6         -4.7270    1.0820  -49.0830 C.ar      1 PAJ501      0.0000 
     18 N6         -5.5810    0.8730  -50.1460 N.pl3     1 PAJ501      0.0000 
     19 N1         -3.8710    2.1310  -49.0820 N.ar      1 PAJ501      0.0000 
     20 C2         -3.0340    2.3560  -48.0660 C.ar      1 PAJ501      0.0000 
     21 N3         -3.0060    1.5500  -46.9990 N.ar      1 PAJ501      0.0000 
     22 C4         -3.8250    0.4780  -46.9150 C.ar      1 PAJ501      0.0000 
     23 O11        -5.6160   -3.1480  -40.6710 O.2       1 PAJ501      0.0000 
     24 C11        -5.4120   -4.3220  -40.3940 C.2       1 PAJ501      0.0000 
     25 O12        -5.0650   -5.2200  -41.3550 O.3       1 PAJ501      0.0000 
     26 C12        -5.5350   -4.8010  -38.9450 C.3       1 PAJ501      0.0000 
     27 O13        -6.3800   -3.9140  -38.2110 O.3       1 PAJ501      0.0000 
     28 C13        -4.1430   -4.9150  -38.2160 C.3       1 PAJ501      0.0000 
     29 C14        -3.1810   -5.8350  -38.9920 C.3       1 PAJ501      0.0000 
     30 C15        -3.4880   -3.5290  -38.0530 C.3       1 PAJ501      0.0000 
     31 C16        -4.3500   -5.5140  -36.8090 C.3       1 PAJ501      0.0000 
     32 O14        -4.9810   -6.7980  -36.8990 O.3       1 PAJ501      0.0000 
     33 H          -2.4909   -4.3157  -43.5533 H         1 PAJ501      0.0000 
     34 H          -3.0740   -3.8856  -41.9362 H         1 PAJ501      0.0000 
     35 H          -1.6329   -2.1385  -42.8439 H         1 PAJ501      0.0000 
     36 H          -4.2222   -1.8109  -41.8670 H         1 PAJ501      0.0000 
     37 H          -5.1436   -1.0928  -43.7762 H         1 PAJ501      0.0000 
     38 H          -2.5565    0.1261  -44.6171 H         1 PAJ501      0.0000 
     39 H          -5.3266   -2.1127  -45.9646 H         1 PAJ501      0.0000 
     40 H          -6.4556    0.4395  -49.9291 H         1 PAJ501      0.0000 
     41 H          -5.2511    1.1732  -51.0410 H         1 PAJ501      0.0000 
     42 H          -2.3825    3.1845  -48.1048 H         1 PAJ501      0.0000 
     43 H          -5.9630   -5.8061  -38.9565 H         1 PAJ501      0.0000 
     44 H          -4.9554   -4.8018  -36.2350 H         1 PAJ501      0.0000 
     45 H          -3.3648   -5.5768  -36.3309 H         1 PAJ501      0.0000 
     46 H          -2.2927   -5.9102  -38.5390 H         1 PAJ501      0.0000 
     47 H          -3.5444   -6.7624  -39.0804 H         1 PAJ501      0.0000 
     48 H          -3.0103   -5.4976  -39.9177 H         1 PAJ501      0.0000 
     49 H          -2.6011   -3.5889  -37.5949 H         1 PAJ501      0.0000 
     50 H          -3.3326   -3.0856  -38.9357 H         1 PAJ501      0.0000 
     51 H          -4.0569   -2.9108  -37.5106 H         1 PAJ501      0.0000 
     52 H          -1.9121   -0.8769  -41.3871 H         1 PAJ501      0.0000 
     53 H          -5.6102    0.8576  -43.0834 H         1 PAJ501      0.0000 
     54 H          -6.3155   -3.0390  -38.6908 H         1 PAJ501      0.0000 
     55 H          -5.6092   -6.8326  -36.1217 H         1 PAJ501      0.0000 
@<TRIPOS>BOND
     1    2    1 ar   
     2    3    1 ar   
     3    4    1 1    
     4   25    1 1    
     5    5    4 1    
     6    6    5 1    
     7   33    5 1    
     8   34    5 1    
     9    7    6 1    
    10    8    6 1    
    11   35    6 1    
    12   12    7 1    
    13    9    8 1    
    14   10    8 1    
    15   36    8 1    
    16   52    9 1    
    17   11   10 1    
    18   12   10 1    
    19   37   10 1    
    20   53   11 1    
    21   13   12 1    
    22   38   12 1    
    23   14   13 1    
    24   22   13 1    
    25   15   14 2    
    26   39   14 1    
    27   16   15 1    
    28   17   16 ar   
    29   22   16 ar   
    30   18   17 1    
    31   19   17 ar   
    32   40   18 1    
    33   41   18 1    
    34   20   19 ar   
    35   21   20 ar   
    36   42   20 1    
    37   22   21 ar   
    38   24   23 2    
    39   25   24 1    
    40   26   24 1    
    41   27   26 1    
    42   28   26 1    
    43   43   26 1    
    44   54   27 1    
    45   29   28 1    
    46   30   28 1    
    47   31   28 1    
    48   46   29 1    
    49   47   29 1    
    50   48   29 1    
    51   49   30 1    
    52   50   30 1    
    53   51   30 1    
    54   32   31 1    
    55   44   31 1    
    56   45   31 1    
    57   55   32 1    
@<TRIPOS>SUBSTRUCTURE
     1 PAJ501      1 GROUP   
@<TRIPOS>SET

