#    Name: 4fju_NAI_1_INTS_M
#    Modification time : Mon Mar 24 20:07:35 2014

@<TRIPOS>MOLECULE
4fju_NAI_1_INTS_M
   88     0    12     0     0
SMALL
NO_CHARGES


@<TRIPOS>ATOM
      1 CA         48.5610   -9.5365  -20.1035 C.3       4 GLC5        0.0000 
      2 CA         49.6490   -9.2460  -21.8320 C.3      12 GLL5        0.0000 
      3 CA         47.4730   -9.8270  -18.3750 C.3       8 GLP5        0.0000 
      4 CA         46.9235   -9.5955  -22.5805 C.3       4 GLC5        0.0000 
      5 CA         48.6960   -9.7630  -22.8120 C.3      12 GLL5        0.0000 
      6 CA         45.1510   -9.4280  -22.3490 C.3       8 GLP5        0.0000 
      7 CA         47.1335  -10.7530  -23.3310 C.3       4 GLC5        0.0000 
      8 CA         49.2670  -10.9240  -23.5370 C.3      12 GLL5        0.0000 
      9 CA         45.0000  -10.5820  -23.1250 C.3       8 GLP5        0.0000 
     10 N          47.4920  -12.6120  -22.8200 N.am      2 SEC2        0.0000 
     11 N          48.2450  -11.8450  -23.8580 N.am     10 SEL2        0.0000 
     12 N          46.7390  -13.3790  -21.7820 N.am      6 SEP2        0.0000 
     13 O          50.3670  -10.8805  -26.9440 O.2       1 ALC1        0.0000 
     14 O          49.8890  -11.2740  -25.7390 O.2       9 ALL1        0.0000 
     15 O          50.8450  -10.4870  -28.1490 O.2       5 ALP1        0.0000 
     16 CA         46.9250   -9.9110  -24.0745 C.3       4 GLC5        0.0000 
     17 CA         48.8500   -9.2400  -25.0240 C.3      12 GLL5        0.0000 
     18 CA         48.4535   -7.0895  -24.8240 C.3       4 GLC5        0.0000 
     19 CA         48.0570   -4.9390  -24.6240 C.3       8 GLP5        0.0000 
     20 CA         48.8570   -6.7640  -30.5975 C.3       4 GLC5        0.0000 
     21 CA         49.6400   -6.0740  -28.6110 C.3      12 GLL5        0.0000 
     22 CA         48.0740   -7.4540  -32.5840 C.3       8 GLP5        0.0000 
     23 CA         47.9700   -7.5045  -30.7945 C.3       4 GLC5        0.0000 
     24 CA         47.8660   -7.5550  -29.0050 C.3      12 GLL5        0.0000 
     25 CA         46.3190   -8.7350  -28.6290 C.3       4 GLC5        0.0000 
     26 CA         44.7720   -9.9150  -28.2530 C.3       8 GLP5        0.0000 
     27 N          47.4395   -9.6565  -27.8805 N.am      2 SEC2        0.0000 
     28 N          48.0520   -8.1700  -27.8300 N.am     10 SEL2        0.0000 
     29 N          46.8270  -11.1430  -27.9310 N.am      6 SEP2        0.0000 
     30 NZ         50.9440   -7.8050  -17.5995 N.4       3 LYC4        0.0000 
     31 NZ         51.5000   -9.2290  -18.1940 N.4      11 LYL4        0.0000 
     32 NZ         50.3880   -6.3810  -17.0050 N.4       7 LYP4        0.0000 
     33 N          50.6700   -9.8905  -17.2265 N.am      2 SEC2        0.0000 
     34 N          51.5000   -9.2290  -18.1940 N.am     10 SEL2        0.0000 
     35 N          49.8400  -10.5520  -16.2590 N.am      6 SEP2        0.0000 
     36 NZ         55.6630   -8.5185  -19.2580 N.4       3 LYC4        0.0000 
     37 NZ         53.9660   -9.2700  -18.5880 N.4      11 LYL4        0.0000 
     38 NZ         57.3600   -7.7670  -19.9280 N.4       7 LYP4        0.0000 
     39 CA         52.2360  -11.0780  -16.1510 C.3       4 GLC5        0.0000 
     40 CA         52.9150  -12.2070  -17.7090 C.3      12 GLL5        0.0000 
     41 CA         51.5570   -9.9490  -14.5930 C.3       8 GLP5        0.0000 
     42 CA         54.4105  -11.0340  -16.5575 C.3       4 GLC5        0.0000 
     43 CA         55.9060   -9.8610  -15.4060 C.3       8 GLP5        0.0000 
     44 O          51.0615  -16.0660  -19.5110 O.2       1 ALC1        0.0000 
     45 O          52.2550  -15.5510  -19.0660 O.2       9 ALL1        0.0000 
     46 O          49.8680  -16.5810  -19.9560 O.2       5 ALP1        0.0000 
     47 CA         50.2920  -14.7435  -15.4880 C.3       4 GLC5        0.0000 
     48 CA         51.5840  -14.8810  -16.9430 C.3      12 GLL5        0.0000 
     49 CA         49.0000  -14.6060  -14.0330 C.3       8 GLP5        0.0000 
     50 N          50.6720  -17.7270  -17.1420 N.am      2 SEC2        0.0000 
     51 N          50.8200  -16.0850  -17.0470 N.am     10 SEL2        0.0000 
     52 N          50.5240  -19.3690  -17.2370 N.am      6 SEP2        0.0000 
     53 O          49.7520  -15.7270  -17.8090 O.2       1 ALC1        0.0000 
     54 O          50.8200  -16.0850  -17.0470 O.2       9 ALL1        0.0000 
     55 O          48.6840  -15.3690  -18.5710 O.2       5 ALP1        0.0000 
     56 O          50.3440  -16.3330  -18.5015 O.2       1 ALC1        0.0000 
     57 CA         54.7595  -16.2490  -16.1650 C.3       4 GLC5        0.0000 
     58 CA         52.8890  -15.1430  -16.2970 C.3      12 GLL5        0.0000 
     59 CA         56.6300  -17.3550  -16.0330 C.3       8 GLP5        0.0000 
     60 CA         52.8655  -17.2040  -17.1375 C.3       4 GLC5        0.0000 
     61 CA         52.8420  -19.2650  -17.9780 C.3       8 GLP5        0.0000 
     62 O          53.3495  -16.0545   -9.3145 O.2       1 ALC1        0.0000 
     63 O          53.0330  -17.1510  -10.3890 O.2       9 ALL1        0.0000 
     64 O          53.6660  -14.9580   -8.2400 O.2       5 ALP1        0.0000 
     65 CA         52.5435  -14.8195  -10.0165 C.3       4 GLC5        0.0000 
     66 CA         52.8030  -14.7930  -12.1090 C.3      12 GLL5        0.0000 
     67 CA         52.2840  -14.8460   -7.9240 C.3       8 GLP5        0.0000 
     68 CA         50.8915  -14.2195  -14.1635 C.3       4 GLC5        0.0000 
     69 CA         52.7830  -13.8330  -14.2940 C.3      12 GLL5        0.0000 
     70 CA         48.5075  -11.0475  -26.3633 C.3       4 GLC5        0.0000 
     71 CA         49.8000  -10.3460  -24.7110 C.3      12 GLL5        0.0000 
     72 CA         47.6900  -12.3020  -27.8590 C.3       8 GLP5        0.0000 
     73 CA         48.7250   -6.0021  -26.0599 C.3       4 GLC5        0.0000 
     74 CA         49.8620   -6.6830  -27.3760 C.3      12 GLL5        0.0000 
     75 CA         54.1790  -14.7282  -19.0922 C.3       4 GLC5        0.0000 
     76 CA         51.9570  -14.4180  -18.2090 C.3      12 GLL5        0.0000 
     77 CA         55.7810  -15.4170  -20.1000 C.3       8 GLP5        0.0000 
     78 CA         54.6477  -16.7570  -14.0220 C.3       4 GLC5        0.0000 
     79 CA         52.9000  -16.1720  -14.0770 C.3      12 GLL5        0.0000 
     80 CA         56.4070  -17.3950  -14.6580 C.3       8 GLP5        0.0000 
     81 CA         51.0757  -15.8800  -13.1835 C.3       4 GLC5        0.0000 
     82 CA         49.2630  -15.6410  -12.9810 C.3       8 GLP5        0.0000 
     83 CA         52.8303  -12.4570  -11.5320 C.3       4 GLC5        0.0000 
     84 CA         52.8830  -10.6870  -10.5500 C.3       8 GLP5        0.0000 
     85 CA         51.0252  -14.5475  -12.0945 C.3       4 GLC5        0.0000 
     86 CA         52.7520  -13.6610  -12.9190 C.3      12 GLL5        0.0000 
     87 CA         49.2730  -14.8680  -11.6750 C.3       8 GLP5        0.0000 
     88 CA         52.1623  -11.8480  -14.0998 C.3       4 GLC5        0.0000 
@<TRIPOS>BOND
@<TRIPOS>SUBSTRUCTURE
     1 ALC1       13 GROUP        1 X    ALC  0     ROOT ALC X 1
     2 SEC2       10 GROUP        1 X    SEC  0     **** SEC X 2
     3 LYC4       30 GROUP        1 X    LYC  0     **** LYC X 4
     4 GLC5        1 GROUP        1 X    GLC  0     **** GLC X 6
     5 ALP1       15 GROUP        1 Y    ALP  0     ROOT ALP Y 8
     6 SEP2       12 GROUP        1 Y    SEP  0     **** SEP Y 9
     7 LYP4       32 GROUP        1 Y    LYP  0     **** LYP Y 11
     8 GLP5        3 GROUP        1 Y    GLP  0     **** GLP Y 13
     9 ALL1       14 GROUP        1 Z    ALL  0     ROOT ALL Z 15
    10 SEL2       11 GROUP        1 Z    SEL  0     **** SEL Z 16
    11 LYL4       31 GROUP        1 Z    LYL  0     **** LYL Z 18
    12 GLL5        2 GROUP        1 Z    GLL  0     **** GLL Z 20
@<TRIPOS>SET

