#    Name: 4fju_NAI_1_ligand
#    Modification time : Mon Mar 24 20:07:36 2014

@<TRIPOS>MOLECULE
4fju_NAI_1_ligand
   71    75     1     0     0
SMALL
NO_CHARGES


@<TRIPOS>ATOM
      1 PA         52.2110   -8.5480  -21.4580 P.3       1 NAI401      0.0000 
      2 O1A        53.4230   -8.5470  -22.4040 O.co2     1 NAI401      0.0000 
      3 O2A        52.0720   -7.2030  -20.8180 O.co2     1 NAI401      0.0000 
      4 O5B        50.9070   -8.8250  -22.3550 O.3       1 NAI401      0.0000 
      5 C5B        49.6490   -9.2460  -21.8320 C.3       1 NAI401      0.0000 
      6 C4B        48.6960   -9.7630  -22.8120 C.3       1 NAI401      0.0000 
      7 O4B        48.4220   -8.7720  -23.7810 O.3       1 NAI401      0.0000 
      8 C3B        49.2670  -10.9240  -23.5370 C.3       1 NAI401      0.0000 
      9 O3B        48.2450  -11.8450  -23.8580 O.3       1 NAI401      0.0000 
     10 C2B        49.8000  -10.3460  -24.7110 C.3       1 NAI401      0.0000 
     11 O2B        49.8890  -11.2740  -25.7390 O.3       1 NAI401      0.0000 
     12 C1B        48.8500   -9.2400  -25.0240 C.3       1 NAI401      0.0000 
     13 N9A        49.4390   -8.1610  -25.7840 N.pl3     1 NAI401      0.0000 
     14 C8A        50.4820   -7.3870  -25.4010 C.2       1 NAI401      0.0000 
     15 N7A        50.7490   -6.4950  -26.3700 N.2       1 NAI401      0.0000 
     16 C5A        49.8620   -6.6830  -27.3760 C.ar      1 NAI401      0.0000 
     17 C6A        49.6400   -6.0740  -28.6110 C.ar      1 NAI401      0.0000 
     18 N6A        50.4330   -5.0110  -29.0420 N.pl3     1 NAI401      0.0000 
     19 N1A        48.6440   -6.5330  -29.3890 N.ar      1 NAI401      0.0000 
     20 C2A        47.8660   -7.5550  -29.0050 C.ar      1 NAI401      0.0000 
     21 N3A        48.0520   -8.1700  -27.8300 N.ar      1 NAI401      0.0000 
     22 C4A        49.0350   -7.7520  -26.9980 C.ar      1 NAI401      0.0000 
     23 O3         52.3660   -9.7750  -20.5310 O.3       1 NAI401      0.0000 
     24 PN         52.6300   -9.8860  -18.9880 P.3       1 NAI401      0.0000 
     25 O1N        51.5000   -9.2290  -18.1940 O.co2     1 NAI401      0.0000 
     26 O2N        53.9660   -9.2700  -18.5880 O.co2     1 NAI401      0.0000 
     27 O5D        52.6500  -11.4620  -18.8770 O.3       1 NAI401      0.0000 
     28 C5D        52.9150  -12.2070  -17.7090 C.3       1 NAI401      0.0000 
     29 C4D        53.1970  -13.6610  -17.9600 C.3       1 NAI401      0.0000 
     30 O4D        53.7550  -14.2010  -16.8100 O.3       1 NAI401      0.0000 
     31 C3D        51.9570  -14.4180  -18.2090 C.3       1 NAI401      0.0000 
     32 O3D        52.2550  -15.5510  -19.0660 O.3       1 NAI401      0.0000 
     33 C2D        51.5840  -14.8810  -16.9430 C.3       1 NAI401      0.0000 
     34 O2D        50.8200  -16.0850  -17.0470 O.3       1 NAI401      0.0000 
     35 C1D        52.8890  -15.1430  -16.2970 C.3       1 NAI401      0.0000 
     36 N1N        52.8530  -15.0610  -14.8260 N.pl3     1 NAI401      0.0000 
     37 C2N        52.9000  -16.1720  -14.0770 C.2       1 NAI401      0.0000 
     38 C3N        52.8770  -16.0660  -12.6950 C.2       1 NAI401      0.0000 
     39 C7N        52.9080  -17.2500  -11.8700 C.2       1 NAI401      0.0000 
     40 O7N        52.8130  -18.3280  -12.3870 O.2       1 NAI401      0.0000 
     41 N7N        53.0330  -17.1510  -10.3890 N.am      1 NAI401      0.0000 
     42 C4N        52.8030  -14.7930  -12.1090 C.3       1 NAI401      0.0000 
     43 C5N        52.7520  -13.6610  -12.9190 C.2       1 NAI401      0.0000 
     44 C6N        52.7830  -13.8330  -14.2940 C.2       1 NAI401      0.0000 
     45 H          49.1617   -8.3966  -21.2712 H         1 NAI401      0.0000 
     46 H          49.8062  -10.0304  -21.0360 H         1 NAI401      0.0000 
     47 H          47.7905  -10.0752  -22.3202 H         1 NAI401      0.0000 
     48 H          50.0362  -11.3509  -22.9396 H         1 NAI401      0.0000 
     49 H          50.7578   -9.8875  -24.4811 H         1 NAI401      0.0000 
     50 H          48.0079   -9.6707  -25.5636 H         1 NAI401      0.0000 
     51 H          50.9576   -7.4683  -24.5587 H         1 NAI401      0.0000 
     52 H          51.1867   -4.7513  -28.4383 H         1 NAI401      0.0000 
     53 H          50.1797   -4.5999  -29.9177 H         1 NAI401      0.0000 
     54 H          47.0914   -7.8811  -29.6420 H         1 NAI401      0.0000 
     55 H          52.0605  -12.1480  -16.9886 H         1 NAI401      0.0000 
     56 H          53.7876  -11.7854  -17.1491 H         1 NAI401      0.0000 
     57 H          53.8521  -13.7550  -18.7995 H         1 NAI401      0.0000 
     58 H          51.2321  -13.7834  -18.6333 H         1 NAI401      0.0000 
     59 H          51.0779  -14.1252  -16.3897 H         1 NAI401      0.0000 
     60 H          53.2113  -16.1476  -16.5919 H         1 NAI401      0.0000 
     61 H          52.9533  -17.1110  -14.5074 H         1 NAI401      0.0000 
     62 H          53.0402  -18.0171   -9.8892 H         1 NAI401      0.0000 
     63 H          53.0996  -16.2264  -10.0139 H         1 NAI401      0.0000 
     64 H          53.6760  -14.6806  -11.3590 H         1 NAI401      0.0000 
     65 H          51.9066  -14.7744  -11.3786 H         1 NAI401      0.0000 
     66 H          52.6935  -12.7321  -12.5084 H         1 NAI401      0.0000 
     67 H          52.7507  -12.9876  -14.9016 H         1 NAI401      0.0000 
     68 H          48.7231  -12.6494  -24.2107 H         1 NAI401      0.0000 
     69 H          50.2810  -10.7704  -26.5089 H         1 NAI401      0.0000 
     70 H          51.4953  -16.1865  -18.9281 H         1 NAI401      0.0000 
     71 H          50.0508  -15.8527  -17.6423 H         1 NAI401      0.0000 
@<TRIPOS>BOND
     1    2    1 ar   
     2    3    1 ar   
     3    4    1 1    
     4   23    1 1    
     5    5    4 1    
     6    6    5 1    
     7   45    5 1    
     8   46    5 1    
     9    7    6 1    
    10    8    6 1    
    11   47    6 1    
    12   12    7 1    
    13    9    8 1    
    14   10    8 1    
    15   48    8 1    
    16   68    9 1    
    17   11   10 1    
    18   12   10 1    
    19   49   10 1    
    20   69   11 1    
    21   13   12 1    
    22   50   12 1    
    23   14   13 1    
    24   22   13 1    
    25   15   14 2    
    26   51   14 1    
    27   16   15 1    
    28   17   16 ar   
    29   22   16 ar   
    30   18   17 1    
    31   19   17 ar   
    32   52   18 1    
    33   53   18 1    
    34   20   19 ar   
    35   21   20 ar   
    36   54   20 1    
    37   22   21 ar   
    38   24   23 1    
    39   25   24 ar   
    40   26   24 ar   
    41   27   24 1    
    42   28   27 1    
    43   29   28 1    
    44   55   28 1    
    45   56   28 1    
    46   30   29 1    
    47   31   29 1    
    48   57   29 1    
    49   35   30 1    
    50   32   31 1    
    51   33   31 1    
    52   58   31 1    
    53   70   32 1    
    54   34   33 1    
    55   35   33 1    
    56   59   33 1    
    57   71   34 1    
    58   36   35 1    
    59   60   35 1    
    60   37   36 1    
    61   44   36 1    
    62   38   37 2    
    63   61   37 1    
    64   39   38 1    
    65   42   38 1    
    66   40   39 2    
    67   41   39 am   
    68   62   41 1    
    69   63   41 1    
    70   43   42 1    
    71   64   42 1    
    72   65   42 1    
    73   44   43 2    
    74   66   43 1    
    75   67   44 1    
@<TRIPOS>SUBSTRUCTURE
     1 NAI401      1 GROUP   
@<TRIPOS>SET

