#    Name: 3owh_52X_2_INTS_M
#    Modification time : Tue Mar 25 05:28:16 2014

@<TRIPOS>MOLECULE
3owh_52X_2_INTS_M
   27     0     3     0     0
SMALL
NO_CHARGES


@<TRIPOS>ATOM
      1 CA         -5.3530   -6.7985  -12.6120 C.3       1 GLC5        0.0000 
      2 CA         -5.4530   -7.6000  -14.6330 C.3       3 GLL5        0.0000 
      3 CA         -5.2530   -5.9970  -10.5910 C.3       2 GLP5        0.0000 
      4 CA         -6.1085   -8.5190  -12.9510 C.3       1 GLC5        0.0000 
      5 CA         -6.7640   -9.4380  -11.2690 C.3       2 GLP5        0.0000 
      6 CA         -7.2615   -5.7875  -16.6990 C.3       1 GLC5        0.0000 
      7 CA         -6.6040   -6.8740  -15.3060 C.3       3 GLL5        0.0000 
      8 CA         -7.9190   -4.7010  -18.0920 C.3       2 GLP5        0.0000 
      9 CA         -9.2065   -9.7595  -14.4825 C.3       1 GLC5        0.0000 
     10 CA         -9.1450   -8.1960  -15.6110 C.3       3 GLL5        0.0000 
     11 CA         -9.2680  -11.3230  -13.3540 C.3       2 GLP5        0.0000 
     12 CA        -10.0075   -6.5540  -16.3800 C.3       1 GLC5        0.0000 
     13 CA        -10.8700   -4.9120  -17.1490 C.3       2 GLP5        0.0000 
     14 CA         -9.2700   -8.3265  -17.4645 C.3       1 GLC5        0.0000 
     15 CA         -9.3950   -8.4570  -19.3180 C.3       2 GLP5        0.0000 
     16 CA         -3.6485    1.3005  -14.3545 C.3       1 GLC5        0.0000 
     17 CA         -4.7920   -0.1540  -14.0730 C.3       3 GLL5        0.0000 
     18 CA         -2.5050    2.7550  -14.6360 C.3       2 GLP5        0.0000 
     19 CA         -1.8520   -5.8502  -15.1735 C.3       1 GLC5        0.0000 
     20 CA         -1.8140   -5.3050  -17.2860 C.3       3 GLL5        0.0000 
     21 CA         -1.5380   -5.8300  -13.2870 C.3       2 GLP5        0.0000 
     22 CA         -2.1322   -4.8605  -14.8417 C.3       1 GLC5        0.0000 
     23 CA         -2.1870   -4.0040  -16.8390 C.3       3 GLL5        0.0000 
     24 CA         -2.6745   -5.6605  -14.4960 C.3       1 GLC5        0.0000 
     25 CA         -3.9830   -4.8610  -15.4980 C.3       3 GLL5        0.0000 
     26 CA         -2.7037   -6.8400  -14.5915 C.3       1 GLC5        0.0000 
     27 CA         -4.2700   -7.3710  -15.5250 C.3       3 GLL5        0.0000 
@<TRIPOS>BOND
@<TRIPOS>SUBSTRUCTURE
     1 GLC5        1 GROUP        1 X    GLC  0     ROOT GLC X 6
     2 GLP5        3 GROUP        1 Y    GLP  0     ROOT GLP Y 13
     3 GLL5        2 GROUP        1 Z    GLL  0     ROOT GLL Z 20
@<TRIPOS>SET

