#    Name: 3owh_52X_2_ligand
#    Modification time : Tue Mar 25 05:28:16 2014

@<TRIPOS>MOLECULE
3owh_52X_2_ligand
   37    38     1     0     0
SMALL
NO_CHARGES


@<TRIPOS>ATOM
      1 C1         -2.5180   -6.4360  -16.8340 C.ar      1 52X232      0.0000 
      2 N1         -2.4540   -7.8140  -17.0060 N.pl3     1 52X232      0.0000 
      3 O1         -9.6870   -7.1540  -13.5510 O.2       1 52X232      0.0000 
      4 C2         -1.8140   -5.3050  -17.2860 C.ar      1 52X232      0.0000 
      5 N2         -7.6970   -6.6280  -14.3980 N.am      1 52X232      0.0000 
      6 O2         -4.3260   -0.2760  -15.4300 O.3       1 52X232      0.0000 
      7 C3         -2.1870   -4.0040  -16.8390 C.ar      1 52X232      0.0000 
      8 N3         -3.7410   -2.6020  -15.4420 N.am      1 52X232      0.0000 
      9 O3         -2.5160   -1.1280  -16.5810 O.2       1 52X232      0.0000 
     10 C4         -3.2660   -3.7780  -15.9540 C.ar      1 52X232      0.0000 
     11 C5         -3.9830   -4.8610  -15.4980 C.ar      1 52X232      0.0000 
     12 C6         -3.6390   -6.1210  -15.9120 C.ar      1 52X232      0.0000 
     13 C7         -4.2700   -7.3710  -15.5250 C.2       1 52X232      0.0000 
     14 C8         -3.4690   -8.3290  -16.2670 C.2       1 52X232      0.0000 
     15 C11        -5.4530   -7.6000  -14.6330 C.3       1 52X232      0.0000 
     16 C12        -6.6040   -6.8740  -15.3060 C.3       1 52X232      0.0000 
     17 C14        -8.8600   -7.2870  -14.4420 C.2       1 52X232      0.0000 
     18 C15        -9.1450   -8.1960  -15.6110 C.3       1 52X232      0.0000 
     19 C18        -3.4610   -1.3760  -15.8530 C.2       1 52X232      0.0000 
     20 C33        -4.7920   -0.1540  -14.0730 C.3       1 52X232      0.0000 
     21 H          -1.8266   -8.2763  -17.5322 H         1 52X232      0.0000 
     22 H          -1.0332   -5.4077  -17.9355 H         1 52X232      0.0000 
     23 H          -7.5279   -5.8785  -13.6745 H         1 52X232      0.0000 
     24 H          -1.6395   -3.1900  -17.1810 H         1 52X232      0.0000 
     25 H          -4.4292   -2.7046  -14.5974 H         1 52X232      0.0000 
     26 H          -4.7723   -4.7221  -14.8500 H         1 52X232      0.0000 
     27 H          -3.6897   -9.2997  -16.2063 H         1 52X232      0.0000 
     28 H          -5.2776   -7.1744  -13.6672 H         1 52X232      0.0000 
     29 H          -5.6756   -8.6447  -14.5725 H         1 52X232      0.0000 
     30 H          -6.2133   -5.9270  -15.7213 H         1 52X232      0.0000 
     31 H          -6.9341   -7.4831  -16.1673 H         1 52X232      0.0000 
     32 H          -8.3867   -8.2117  -16.2628 H         1 52X232      0.0000 
     33 H          -9.2997   -9.1397  -15.3186 H         1 52X232      0.0000 
     34 H          -9.9591   -7.9082  -16.1154 H         1 52X232      0.0000 
     35 H          -4.0341   -0.0686  -13.4263 H         1 52X232      0.0000 
     36 H          -5.3735    0.6504  -13.9509 H         1 52X232      0.0000 
     37 H          -5.3290   -0.9493  -13.7918 H         1 52X232      0.0000 
@<TRIPOS>BOND
     1    2    1 1    
     2    4    1 ar   
     3   12    1 ar   
     4   14    2 1    
     5   21    2 1    
     6   17    3 2    
     7    7    4 ar   
     8   22    4 1    
     9   16    5 1    
    10   17    5 am   
    11   23    5 1    
    12   19    6 1    
    13   20    6 1    
    14   10    7 ar   
    15   24    7 1    
    16   10    8 1    
    17   19    8 am   
    18   25    8 1    
    19   19    9 2    
    20   11   10 ar   
    21   12   11 ar   
    22   26   11 1    
    23   13   12 1    
    24   14   13 2    
    25   15   13 1    
    26   27   14 1    
    27   16   15 1    
    28   28   15 1    
    29   29   15 1    
    30   30   16 1    
    31   31   16 1    
    32   18   17 1    
    33   32   18 1    
    34   33   18 1    
    35   34   18 1    
    36   35   20 1    
    37   36   20 1    
    38   37   20 1    
@<TRIPOS>SUBSTRUCTURE
     1 52X232      1 GROUP   
@<TRIPOS>SET

