#    Name: 2ilt_NN1_1_INTS_M
#    Modification time : Tue Mar 25 18:20:45 2014

@<TRIPOS>MOLECULE
2ilt_NN1_1_INTS_M
   72     0     6     0     0
SMALL
NO_CHARGES


@<TRIPOS>ATOM
      1 CA         60.3030  108.9805   46.2305 C.3       2 GLC5        0.0000 
      2 CA         60.9580  107.4350   45.9520 C.3       6 GLL5        0.0000 
      3 CA         59.6480  110.5260   46.5090 C.3       4 GLP5        0.0000 
      4 CA         61.3915  106.9590   47.9385 C.3       2 GLC5        0.0000 
      5 CA         61.8250  106.4830   49.9250 C.3       4 GLP5        0.0000 
      6 CA         59.4855  106.5960   46.6835 C.3       2 GLC5        0.0000 
      7 CA         58.0130  105.7570   47.4150 C.3       4 GLP5        0.0000 
      8 CA         68.2095  103.1495   47.9565 C.3       2 GLC5        0.0000 
      9 CA         68.3230  101.3260   46.8720 C.3       6 GLL5        0.0000 
     10 CA         68.0960  104.9730   49.0410 C.3       4 GLP5        0.0000 
     11 CA         61.7815  102.4945   45.8665 C.3       2 GLC5        0.0000 
     12 CA         63.5370  103.5220   45.9560 C.3       6 GLL5        0.0000 
     13 CA         60.0260  101.4670   45.7770 C.3       4 GLP5        0.0000 
     14 CA         66.8620  104.9255   47.6560 C.3       2 GLC5        0.0000 
     15 CA         65.6280  104.8780   46.2710 C.3       6 GLL5        0.0000 
     16 CA         63.7190  107.9780   47.3240 C.3       2 GLC5        0.0000 
     17 CA         63.4090  105.9020   46.6000 C.3       6 GLL5        0.0000 
     18 CA         64.0290  110.0540   48.0480 C.3       4 GLP5        0.0000 
     19 CA         62.6870  105.5055   48.2445 C.3       2 GLC5        0.0000 
     20 CA         61.9650  105.1090   49.8890 C.3       4 GLP5        0.0000 
     21 CA         62.6890   97.8395   48.6985 C.3       2 GLC5        0.0000 
     22 CA         63.0250   99.0770   46.9960 C.3       6 GLL5        0.0000 
     23 CA         62.3530   96.6020   50.4010 C.3       4 GLP5        0.0000 
     24 CA         61.6710   97.8050   46.6210 C.3       2 GLC5        0.0000 
     25 CA         60.3170   96.5330   46.2460 C.3       4 GLP5        0.0000 
     26 CA         62.3565   98.7240   45.1045 C.3       2 GLC5        0.0000 
     27 CA         61.6880   98.3710   43.2130 C.3       4 GLP5        0.0000 
     28 CA         61.5255  100.2720   46.3865 C.3       2 GLC5        0.0000 
     29 CA         63.5680   98.1855   49.4780 C.3       2 GLC5        0.0000 
     30 CA         64.7830   99.7690   48.5550 C.3       6 GLL5        0.0000 
     31 CA         64.7230  100.4465   50.3275 C.3       2 GLC5        0.0000 
     32 CA         64.6630  101.1240   52.1000 C.3       4 GLP5        0.0000 
     33 CA         65.4555   98.5965   49.9820 C.3       2 GLC5        0.0000 
     34 CA         66.1280   97.4240   51.4090 C.3       4 GLP5        0.0000 
     35 N          62.2135  101.3550   49.1785 N.am      1 SEC2        0.0000 
     36 N          62.7550  101.8220   48.0080 N.am      5 SEL2        0.0000 
     37 N          61.6720  100.8880   50.3490 N.am      3 SEP2        0.0000 
     38 N          61.8705  103.0785   48.6680 N.am      1 SEC2        0.0000 
     39 N          60.9860  104.3350   49.3280 N.am      3 SEP2        0.0000 
     40 CA         63.6500  104.5630   48.5835 C.3       2 GLC5        0.0000 
     41 CA         64.2130  104.6220   46.7660 C.3       6 GLL5        0.0000 
     42 CA         63.0870  104.5040   50.4010 C.3       4 GLP5        0.0000 
     43 CA         64.0230  104.6525   42.2620 C.3       2 GLC5        0.0000 
     44 CA         64.9720  104.1450   43.9970 C.3       6 GLL5        0.0000 
     45 CA         63.0740  105.1600   40.5270 C.3       4 GLP5        0.0000 
     46 CA         66.1740  103.2635   42.8815 C.3       2 GLC5        0.0000 
     47 CA         67.3760  102.3820   41.7660 C.3       4 GLP5        0.0000 
     48 CA         67.0915   96.9270   47.9260 C.3       2 GLC5        0.0000 
     49 CA         66.5080   97.2930   46.0600 C.3       6 GLL5        0.0000 
     50 CA         67.6750   96.5610   49.7920 C.3       4 GLP5        0.0000 
     51 CA         67.3970   95.7745   44.8340 C.3       2 GLC5        0.0000 
     52 CA         68.2860   94.2560   43.6080 C.3       4 GLP5        0.0000 
     53 CA         69.4985   98.9220   48.6475 C.3       2 GLC5        0.0000 
     54 CA         70.4180  100.2710   47.1680 C.3       6 GLL5        0.0000 
     55 CA         68.5790   97.5730   50.1270 C.3       4 GLP5        0.0000 
     56 CA         68.4907  103.0222   46.1852 C.3       2 GLC5        0.0000 
     57 CA         69.3300  104.7670   45.6380 C.3       4 GLP5        0.0000 
     58 CA         67.4710  104.9212   45.5872 C.3       2 GLC5        0.0000 
     59 CA         64.0832  102.2403   43.2993 C.3       2 GLC5        0.0000 
     60 CA         63.9030  100.4660   42.3590 C.3       4 GLP5        0.0000 
     61 CA         62.6585  104.2717   42.6803 C.3       2 GLC5        0.0000 
     62 CA         63.5550  103.8840   44.4820 C.3       6 GLL5        0.0000 
     63 CA         62.1720  104.0270   40.9640 C.3       4 GLP5        0.0000 
     64 CA         61.3320  103.4973   44.6727 C.3       2 GLC5        0.0000 
     65 CA         62.7350  105.1490   44.3110 C.3       6 GLL5        0.0000 
     66 CA         59.5190  102.4780   44.9490 C.3       4 GLP5        0.0000 
     67 CA         65.8828  106.3107   43.1174 C.3       2 GLC5        0.0000 
     68 CA         64.7590  106.5340   44.6280 C.3       6 GLL5        0.0000 
     69 CA         66.7440  107.0000   41.7210 C.3       4 GLP5        0.0000 
     70 CA         70.2837   99.9377   45.0780 C.3       2 GLC5        0.0000 
     71 CA         69.0960  100.1850   46.8960 C.3       6 GLL5        0.0000 
     72 CA         70.9510   99.9560   43.1870 C.3       4 GLP5        0.0000 
@<TRIPOS>BOND
@<TRIPOS>SUBSTRUCTURE
     1 SEC2       35 GROUP        1 X    SEC  0     ROOT SEC X 2
     2 GLC5        1 GROUP        1 X    GLC  0     **** GLC X 6
     3 SEP2       37 GROUP        1 Y    SEP  0     ROOT SEP Y 9
     4 GLP5        3 GROUP        1 Y    GLP  0     **** GLP Y 13
     5 SEL2       36 GROUP        1 Z    SEL  0     ROOT SEL Z 16
     6 GLL5        2 GROUP        1 Z    GLL  0     **** GLL Z 20
@<TRIPOS>SET

