#    Name: 2ilt_NN1_1_ligand
#    Modification time : Tue Mar 25 18:20:45 2014

@<TRIPOS>MOLECULE
2ilt_NN1_1_ligand
   56    59     1     0     0
SMALL
NO_CHARGES


@<TRIPOS>ATOM
      1 C4         66.4060   99.9950   46.3490 C.ar      1 NN1902      0.0000 
      2 C5         60.9580  107.4350   45.9520 C.3       1 NN1902      0.0000 
      3 C6         67.1870   98.8550   46.3660 C.ar      1 NN1902      0.0000 
      4 C7         66.9800  101.2290   46.5930 C.ar      1 NN1902      0.0000 
      5 C8         68.3230  101.3260   46.8720 C.ar      1 NN1902      0.0000 
      6 C10        69.0960  100.1850   46.8960 C.ar      1 NN1902      0.0000 
      7 C15        63.5370  103.5220   45.9560 C.3       1 NN1902      0.0000 
      8 C17        65.6280  104.8780   46.2710 C.3       1 NN1902      0.0000 
      9 C20        63.5550  103.8840   44.4820 C.3       1 NN1902      0.0000 
     10 C21        62.7350  105.1490   44.3110 C.3       1 NN1902      0.0000 
     11 C22        63.3430  106.2860   45.1230 C.3       1 NN1902      0.0000 
     12 C24        63.4090  105.9020   46.6000 C.3       1 NN1902      0.0000 
     13 C1         63.0250   99.0770   46.9960 C.3       1 NN1902      0.0000 
     14 C2         64.1660  100.0420   47.1980 C.3       1 NN1902      0.0000 
     15 C3         64.7830   99.7690   48.5550 C.3       1 NN1902      0.0000 
     16 O3         65.0430   99.8920   46.0600 O.3       1 NN1902      0.0000 
     17 C14        63.5860  101.4340   47.1950 C.2       1 NN1902      0.0000 
     18 O1         62.7550  101.8220   48.0080 O.2       1 NN1902      0.0000 
     19 N4         64.0890  102.2160   46.1940 N.am      1 NN1902      0.0000 
     20 C16        64.2130  104.6220   46.7660 C.3       1 NN1902      0.0000 
     21 C18        65.5960  105.2730   44.8020 C.3       1 NN1902      0.0000 
     22 C19        64.9720  104.1450   43.9970 C.3       1 NN1902      0.0000 
     23 C23        64.7590  106.5340   44.6280 C.3       1 NN1902      0.0000 
     24 S1         62.3470  107.7450   44.8950 S.o2      1 NN1902      0.0000 
     25 O2         63.0660  108.8890   45.4160 O.2       1 NN1902      0.0000 
     26 O4         61.8180  107.7450   43.5440 O.2       1 NN1902      0.0000 
     27 C9         68.5340   98.9510   46.6440 C.ar      1 NN1902      0.0000 
     28 CL1        66.5080   97.2930   46.0600 Cl        1 NN1902      0.0000 
     29 F1         70.4180  100.2710   47.1680 F         1 NN1902      0.0000 
     30 H          66.3940  102.0806   46.5648 H         1 NN1902      0.0000 
     31 H          68.7496  102.2437   47.0618 H         1 NN1902      0.0000 
     32 H          62.4620  103.5287   46.2602 H         1 NN1902      0.0000 
     33 H          66.2208  103.9760   46.3892 H         1 NN1902      0.0000 
     34 H          66.0739  105.6805   46.8507 H         1 NN1902      0.0000 
     35 H          63.1128  103.1021   43.9142 H         1 NN1902      0.0000 
     36 H          61.7168  104.9706   44.6503 H         1 NN1902      0.0000 
     37 H          62.7149  105.4297   43.2600 H         1 NN1902      0.0000 
     38 H          62.4019  105.7491   46.9754 H         1 NN1902      0.0000 
     39 H          63.8838  106.7035   47.1573 H         1 NN1902      0.0000 
     40 H          64.8590  101.9007   45.5956 H         1 NN1902      0.0000 
     41 H          64.2317  104.3531   47.7940 H         1 NN1902      0.0000 
     42 H          66.5859  105.4512   44.4577 H         1 NN1902      0.0000 
     43 H          64.9488  104.4209   42.9461 H         1 NN1902      0.0000 
     44 H          65.5666  103.2434   44.1173 H         1 NN1902      0.0000 
     45 H          65.2052  107.3434   45.1981 H         1 NN1902      0.0000 
     46 H          64.7326  106.8060   43.5771 H         1 NN1902      0.0000 
     47 H          69.1197   98.1029   46.6635 H         1 NN1902      0.0000 
     48 H          61.2231  107.4097   46.9159 H         1 NN1902      0.0000 
     49 H          60.2561  108.1412   45.8596 H         1 NN1902      0.0000 
     50 H          60.5218  106.5593   45.7449 H         1 NN1902      0.0000 
     51 H          63.3323   98.1260   47.0309 H         1 NN1902      0.0000 
     52 H          62.3202   99.1832   47.6974 H         1 NN1902      0.0000 
     53 H          62.5795   99.2088   46.1105 H         1 NN1902      0.0000 
     54 H          65.1358   98.8357   48.6216 H         1 NN1902      0.0000 
     55 H          65.5468  100.3854   48.7465 H         1 NN1902      0.0000 
     56 H          64.1200   99.8852   49.2946 H         1 NN1902      0.0000 
@<TRIPOS>BOND
     1    3    1 ar   
     2    4    1 ar   
     3   16    1 1    
     4   24    2 1    
     5   48    2 1    
     6   49    2 1    
     7   50    2 1    
     8   27    3 ar   
     9   28    3 1    
    10    5    4 ar   
    11   30    4 1    
    12    6    5 ar   
    13   31    5 1    
    14   27    6 ar   
    15   29    6 1    
    16    9    7 1    
    17   19    7 1    
    18   20    7 1    
    19   32    7 1    
    20   20    8 1    
    21   21    8 1    
    22   33    8 1    
    23   34    8 1    
    24   10    9 1    
    25   22    9 1    
    26   35    9 1    
    27   11   10 1    
    28   36   10 1    
    29   37   10 1    
    30   12   11 1    
    31   23   11 1    
    32   24   11 1    
    33   20   12 1    
    34   38   12 1    
    35   39   12 1    
    36   14   13 1    
    37   51   13 1    
    38   52   13 1    
    39   53   13 1    
    40   15   14 1    
    41   16   14 1    
    42   17   14 1    
    43   54   15 1    
    44   55   15 1    
    45   56   15 1    
    46   18   17 2    
    47   19   17 am   
    48   40   19 1    
    49   41   20 1    
    50   22   21 1    
    51   23   21 1    
    52   42   21 1    
    53   43   22 1    
    54   44   22 1    
    55   45   23 1    
    56   46   23 1    
    57   25   24 2    
    58   26   24 2    
    59   47   27 1    
@<TRIPOS>SUBSTRUCTURE
     1 NN1902      1 GROUP   
@<TRIPOS>SET

