#    Name: 1vbm_YSA_2_INTS_M
#    Modification time : Tue Mar 25 07:38:59 2014

@<TRIPOS>MOLECULE
1vbm_YSA_2_INTS_M
   83     0    12     0     0
SMALL
NO_CHARGES


@<TRIPOS>ATOM
      1 CA         21.2365  169.0055  212.8705 C.3       4 GLC5        0.0000 
      2 CA         19.8770  167.5160  213.7560 C.3      12 GLL5        0.0000 
      3 CA         22.5960  170.4950  211.9850 C.3       8 GLP5        0.0000 
      4 CA         18.0945  169.3900  213.1495 C.3       4 GLC5        0.0000 
      5 CA         19.0780  167.6450  212.6230 C.3      12 GLL5        0.0000 
      6 CA         17.1110  171.1350  213.6760 C.3       8 GLP5        0.0000 
      7 N          17.3635  168.7335  211.4465 N.am      2 SEC2        0.0000 
      8 N          18.2230  168.6960  212.5080 N.am     10 SEL2        0.0000 
      9 N          16.5040  168.7710  210.3850 N.am      6 SEP2        0.0000 
     10 O          18.6040  169.4950  213.6935 O.2       1 ALC1        0.0000 
     11 O          18.2230  168.6960  212.5080 O.2       9 ALL1        0.0000 
     12 O          18.9850  170.2940  214.8790 O.2       5 ALP1        0.0000 
     13 CA         23.6390  164.7210  211.7710 C.3       4 GLC5        0.0000 
     14 CA         21.8410  164.3490  212.9560 C.3      12 GLL5        0.0000 
     15 CA         25.4370  165.0930  210.5860 C.3       8 GLP5        0.0000 
     16 CA         23.5955  164.1115  214.1165 C.3       4 GLC5        0.0000 
     17 CA         25.3500  163.8740  215.2770 C.3       8 GLP5        0.0000 
     18 OD1        19.9375  161.4820  214.7325 O.co2     3 ASC3        0.0000 
     19 OD1        20.3270  162.8280  214.1550 O.co2    11 ASL3        0.0000 
     20 OD1        19.5480  160.1360  215.3100 O.co2     7 ASP3        0.0000 
     21 O          19.9375  161.4820  214.7325 O.2       1 ALC1        0.0000 
     22 O          20.3270  162.8280  214.1550 O.2       9 ALL1        0.0000 
     23 O          19.5480  160.1360  215.3100 O.2       5 ALP1        0.0000 
     24 O          20.6335  163.5705  215.2195 O.2       1 ALC1        0.0000 
     25 O          20.9400  164.3130  216.2840 O.2       5 ALP1        0.0000 
     26 O          18.9725  163.3850  214.1905 O.2       1 ALC1        0.0000 
     27 O          17.6180  163.9420  214.2260 O.2       5 ALP1        0.0000 
     28 CA         23.2865  160.1310  206.3850 C.3       4 GLC5        0.0000 
     29 CA         23.7770  160.4150  208.4550 C.3      12 GLL5        0.0000 
     30 CA         22.7960  159.8470  204.3150 C.3       8 GLP5        0.0000 
     31 N          20.0125  158.4920  207.6985 N.am      2 SEC2        0.0000 
     32 N          20.9510  158.2180  208.8400 N.am     10 SEL2        0.0000 
     33 N          19.0740  158.7660  206.5570 N.am      6 SEP2        0.0000 
     34 N          20.1450  157.1075  209.3020 N.am      2 SEC2        0.0000 
     35 N          19.3390  155.9970  209.7640 N.am      6 SEP2        0.0000 
     36 CA         22.8585  159.1680  205.8745 C.3       4 GLC5        0.0000 
     37 CA         22.9210  158.4890  207.4340 C.3      12 GLL5        0.0000 
     38 CA         23.1185  158.0900  205.2780 C.3       4 GLC5        0.0000 
     39 CA         23.4410  156.3330  206.2410 C.3      12 GLL5        0.0000 
     40 CA         23.6650  156.2680  202.9165 C.3       4 GLC5        0.0000 
     41 CA         22.7570  155.3580  204.2510 C.3      12 GLL5        0.0000 
     42 CA         24.5730  157.1780  201.5820 C.3       8 GLP5        0.0000 
     43 CA         23.4090  157.3920  203.9350 C.3       4 GLC5        0.0000 
     44 CA         24.0610  159.4260  203.6190 C.3       8 GLP5        0.0000 
     45 CA         21.2490  156.6065  203.3910 C.3       4 GLC5        0.0000 
     46 CA         19.7410  157.8550  202.5310 C.3       8 GLP5        0.0000 
     47 CA         21.7410  153.9210  204.5630 C.3       4 GLC5        0.0000 
     48 CA         20.7250  152.4840  204.8750 C.3       8 GLP5        0.0000 
     49 CA         23.1225  154.2310  202.5430 C.3       4 GLC5        0.0000 
     50 CA         23.4880  153.1040  200.8350 C.3       8 GLP5        0.0000 
     51 N          22.9705  153.1410  203.8295 N.am      2 SEC2        0.0000 
     52 N          23.5400  154.3100  204.4540 N.am     10 SEL2        0.0000 
     53 N          22.4010  151.9720  203.2050 N.am      6 SEP2        0.0000 
     54 O          24.8735  151.7830  204.9355 O.2       1 ALC1        0.0000 
     55 O          25.1010  153.1720  205.7480 O.2       9 ALL1        0.0000 
     56 O          24.6460  150.3940  204.1230 O.2       5 ALP1        0.0000 
     57 CA         20.5147  167.4085  215.8102 C.3       4 GLC5        0.0000 
     58 CA         20.7520  166.4400  213.8710 C.3      12 GLL5        0.0000 
     59 CA         20.7150  167.8390  217.8070 C.3       8 GLP5        0.0000 
     60 CA         18.4342  166.5100  213.7878 C.3       4 GLC5        0.0000 
     61 CA         16.5540  166.0420  213.7620 C.3       8 GLP5        0.0000 
     62 CA         20.6517  166.9818  210.8590 C.3       4 GLC5        0.0000 
     63 CA         22.1890  166.7930  209.6030 C.3       8 GLP5        0.0000 
     64 CA         17.8342  166.6062  212.9385 C.3       4 GLC5        0.0000 
     65 CA         19.1510  166.6960  211.6070 C.3      12 GLL5        0.0000 
     66 CA         18.4907  165.7995  213.0250 C.3       4 GLC5        0.0000 
     67 CA         20.0260  165.6200  211.7230 C.3      12 GLL5        0.0000 
     68 CA         21.6616  165.8730  211.1125 C.3       4 GLC5        0.0000 
     69 CA         25.1328  161.9590  208.3068 C.3       4 GLC5        0.0000 
     70 CA         25.9150  163.6650  207.6770 C.3       8 GLP5        0.0000 
     71 CA         26.0228  159.5170  209.0068 C.3       4 GLC5        0.0000 
     72 CA         27.6950  158.7810  209.0770 C.3       8 GLP5        0.0000 
     73 CA         20.4355  159.6820  209.7445 C.3       4 GLC5        0.0000 
     74 CA         22.3990  160.1250  209.0510 C.3      12 GLL5        0.0000 
     75 CA         18.5090  159.9940  210.5440 C.3       8 GLP5        0.0000 
     76 CA         20.7470  157.9410  207.3668 C.3       4 GLC5        0.0000 
     77 CA         22.3250  158.6150  208.8390 C.3      12 GLL5        0.0000 
     78 CA         18.8710  157.3300  206.5970 C.3       8 GLP5        0.0000 
     79 CA         25.9239  155.3175  205.8026 C.3       4 GLC5        0.0000 
     80 CA         27.7660  155.6290  205.6490 C.3       8 GLP5        0.0000 
     81 CA         22.4329  154.6040  206.6886 C.3       4 GLC5        0.0000 
     82 CA         24.2720  155.2490  206.4840 C.3      12 GLL5        0.0000 
     83 CA         20.7840  154.2020  207.4210 C.3       8 GLP5        0.0000 
@<TRIPOS>BOND
@<TRIPOS>SUBSTRUCTURE
     1 ALC1       10 GROUP        1 X    ALC  0     ROOT ALC X 1
     2 SEC2        7 GROUP        1 X    SEC  0     **** SEC X 2
     3 ASC3       18 GROUP        1 X    ASC  0     **** ASC X 3
     4 GLC5        1 GROUP        1 X    GLC  0     **** GLC X 6
     5 ALP1       12 GROUP        1 Y    ALP  0     ROOT ALP Y 8
     6 SEP2        9 GROUP        1 Y    SEP  0     **** SEP Y 9
     7 ASP3       20 GROUP        1 Y    ASP  0     **** ASP Y 10
     8 GLP5        3 GROUP        1 Y    GLP  0     **** GLP Y 13
     9 ALL1       11 GROUP        1 Z    ALL  0     ROOT ALL Z 15
    10 SEL2        8 GROUP        1 Z    SEL  0     **** SEL Z 16
    11 ASL3       19 GROUP        1 Z    ASL  0     **** ASL Z 17
    12 GLL5        2 GROUP        1 Z    GLL  0     **** GLL Z 20
@<TRIPOS>SET

