#    Name: 1vbm_YSA_2_ligand
#    Modification time : Tue Mar 25 07:38:59 2014

@<TRIPOS>MOLECULE
1vbm_YSA_2_ligand
   59    62     1     0     0
SMALL
NO_CHARGES


@<TRIPOS>ATOM
      1 CD1        20.7520  166.4400  213.8710 C.ar      1 YSA3002     0.0000 
      2 CE1        19.8770  167.5160  213.7560 C.ar      1 YSA3002     0.0000 
      3 CZ         19.0780  167.6450  212.6230 C.ar      1 YSA3002     0.0000 
      4 OH         18.2230  168.6960  212.5080 O.3       1 YSA3002     0.0000 
      5 CE2        19.1510  166.6960  211.6070 C.ar      1 YSA3002     0.0000 
      6 CD2        20.0260  165.6200  211.7230 C.ar      1 YSA3002     0.0000 
      7 CG         20.8290  165.4940  212.8530 C.ar      1 YSA3002     0.0000 
      8 CB         21.8410  164.3490  212.9560 C.3       1 YSA3002     0.0000 
      9 CA         21.1760  162.9710  212.9620 C.3       1 YSA3002     0.0000 
     10 N          20.3270  162.8280  214.1550 N.4       1 YSA3002     0.0000 
     11 C          22.2560  161.8870  212.9730 C.2       1 YSA3002     0.0000 
     12 O          22.3270  161.0740  213.8920 O.2       1 YSA3002     0.0000 
     13 NAT        23.0640  161.8900  211.9150 N.am      1 YSA3002     0.0000 
     14 SBI        24.2720  160.8030  211.7890 S.o2      1 YSA3002     0.0000 
     15 OAD        23.7230  159.4070  211.8320 O.2       1 YSA3002     0.0000 
     16 OAE        25.2260  160.9960  212.9310 O.2       1 YSA3002     0.0000 
     17 O5'        25.0120  161.0220  210.5020 O.3       1 YSA3002     0.0000 
     18 C5'        24.9240  160.0910  209.4180 C.3       1 YSA3002     0.0000 
     19 C4'        23.7770  160.4150  208.4550 C.3       1 YSA3002     0.0000 
     20 O4'        23.8640  159.5690  207.2940 O.3       1 YSA3002     0.0000 
     21 C3'        22.3990  160.1250  209.0510 C.3       1 YSA3002     0.0000 
     22 O3'        21.3800  160.7770  208.2870 O.3       1 YSA3002     0.0000 
     23 C2'        22.3250  158.6150  208.8390 C.3       1 YSA3002     0.0000 
     24 O2'        20.9510  158.2180  208.8400 O.3       1 YSA3002     0.0000 
     25 C1'        22.9210  158.4890  207.4340 C.3       1 YSA3002     0.0000 
     26 N9         23.5900  157.1760  207.2600 N.pl3     1 YSA3002     0.0000 
     27 C8         24.4730  156.6420  208.1000 C.2       1 YSA3002     0.0000 
     28 N7         24.8940  155.4660  207.6380 N.2       1 YSA3002     0.0000 
     29 C5         24.2720  155.2490  206.4840 C.ar      1 YSA3002     0.0000 
     30 C4         23.4410  156.3330  206.2410 C.ar      1 YSA3002     0.0000 
     31 N3         22.7010  156.3510  205.1200 N.ar      1 YSA3002     0.0000 
     32 C2         22.7570  155.3580  204.2510 C.ar      1 YSA3002     0.0000 
     33 N1         23.5400  154.3100  204.4540 N.ar      1 YSA3002     0.0000 
     34 C6         24.3070  154.2210  205.5500 C.ar      1 YSA3002     0.0000 
     35 N6         25.1010  153.1720  205.7480 N.pl3     1 YSA3002     0.0000 
     36 H          21.3414  166.3438  214.7076 H         1 YSA3002     0.0000 
     37 H          19.8203  168.2153  214.5069 H         1 YSA3002     0.0000 
     38 H          18.5593  166.7901  210.7723 H         1 YSA3002     0.0000 
     39 H          20.0794  164.9179  210.9740 H         1 YSA3002     0.0000 
     40 H          22.4239  164.4694  213.8766 H         1 YSA3002     0.0000 
     41 H          22.5346  164.4082  212.1091 H         1 YSA3002     0.0000 
     42 H          20.5946  162.8652  212.0687 H         1 YSA3002     0.0000 
     43 H          23.0350  162.5146  211.1198 H         1 YSA3002     0.0000 
     44 H          24.7671  159.0579  209.7842 H         1 YSA3002     0.0000 
     45 H          25.8588  160.0717  208.8249 H         1 YSA3002     0.0000 
     46 H          23.8182  161.4436  208.1750 H         1 YSA3002     0.0000 
     47 H          22.4112  160.3301  210.0609 H         1 YSA3002     0.0000 
     48 H          22.9328  158.1418  209.5205 H         1 YSA3002     0.0000 
     49 H          22.1178  158.5961  206.7288 H         1 YSA3002     0.0000 
     50 H          24.7722  157.0557  208.9412 H         1 YSA3002     0.0000 
     51 H          22.1641  155.3996  203.3737 H         1 YSA3002     0.0000 
     52 H          24.7924  152.3061  205.3543 H         1 YSA3002     0.0000 
     53 H          25.9348  153.3440  206.2726 H         1 YSA3002     0.0000 
     54 H          20.6763  163.3612  214.9255 H         1 YSA3002     0.0000 
     55 H          19.3915  163.1376  213.9844 H         1 YSA3002     0.0000 
     56 H          20.2702  161.8769  214.4586 H         1 YSA3002     0.0000 
     57 H          18.4204  169.2776  213.2971 H         1 YSA3002     0.0000 
     58 H          20.7206  160.0578  208.0682 H         1 YSA3002     0.0000 
     59 H          20.5671  158.6168  209.6728 H         1 YSA3002     0.0000 
@<TRIPOS>BOND
     1    2    1 ar   
     2    7    1 ar   
     3   36    1 1    
     4    3    2 ar   
     5   37    2 1    
     6    4    3 1    
     7    5    3 ar   
     8   57    4 1    
     9    6    5 ar   
    10   38    5 1    
    11    7    6 ar   
    12   39    6 1    
    13    8    7 1    
    14    9    8 1    
    15   40    8 1    
    16   41    8 1    
    17   10    9 1    
    18   11    9 1    
    19   42    9 1    
    20   54   10 1    
    21   55   10 1    
    22   56   10 1    
    23   12   11 2    
    24   13   11 am   
    25   14   13 1    
    26   43   13 1    
    27   15   14 2    
    28   16   14 2    
    29   17   14 1    
    30   18   17 1    
    31   19   18 1    
    32   44   18 1    
    33   45   18 1    
    34   20   19 1    
    35   21   19 1    
    36   46   19 1    
    37   25   20 1    
    38   22   21 1    
    39   23   21 1    
    40   47   21 1    
    41   58   22 1    
    42   24   23 1    
    43   25   23 1    
    44   48   23 1    
    45   59   24 1    
    46   26   25 1    
    47   49   25 1    
    48   27   26 1    
    49   30   26 1    
    50   28   27 2    
    51   50   27 1    
    52   29   28 1    
    53   30   29 ar   
    54   34   29 ar   
    55   31   30 ar   
    56   32   31 ar   
    57   33   32 ar   
    58   51   32 1    
    59   34   33 ar   
    60   35   34 1    
    61   52   35 1    
    62   53   35 1    
@<TRIPOS>SUBSTRUCTURE
     1 YSA3002     1 GROUP   
@<TRIPOS>SET

