#    Name: 1pj7_FFO_1_INTS_M
#    Modification time : Mon Mar 24 21:39:53 2014

@<TRIPOS>MOLECULE
1pj7_FFO_1_INTS_M
   50     0     9     0     0
SMALL
NO_CHARGES


@<TRIPOS>ATOM
      1 O          47.0805   83.9305   46.4690 O.2       1 ALC1        0.0000 
      2 O          46.7090   85.0680   45.8440 O.2       7 ALL1        0.0000 
      3 O          47.4520   82.7930   47.0940 O.2       4 ALP1        0.0000 
      4 O          47.6915   84.0735   47.4285 O.2       1 ALC1        0.0000 
      5 O          47.9310   85.3540   47.7630 O.2       7 ALL1        0.0000 
      6 O          48.4720   86.5145   48.6180 O.2       1 ALC1        0.0000 
      7 O          49.0130   87.6750   49.4730 O.2       4 ALP1        0.0000 
      8 O          47.3410   86.2395   49.1440 O.2       1 ALC1        0.0000 
      9 O          46.7510   87.1250   50.5250 O.2       4 ALP1        0.0000 
     10 N          48.6265   87.9865   46.8780 N.am      2 SEC2        0.0000 
     11 N          47.9450   87.0880   46.0850 N.am      8 SEL2        0.0000 
     12 N          49.3080   88.8850   47.6710 N.am      5 SEP2        0.0000 
     13 CA         44.8945   87.2535   44.6930 C.3       3 GLC5        0.0000 
     14 CA         46.5720   86.7290   44.0770 C.3       9 GLL5        0.0000 
     15 CA         43.2170   87.7780   45.3090 C.3       6 GLP5        0.0000 
     16 CA         44.3390   86.8980   43.5975 C.3       3 GLC5        0.0000 
     17 CA         45.4610   86.0180   41.8860 C.3       9 GLL5        0.0000 
     18 CA         45.3790   86.5015   46.0360 C.3       3 GLC5        0.0000 
     19 CA         46.2130   85.4490   44.6590 C.3       9 GLL5        0.0000 
     20 CA         44.5450   87.5540   47.4130 C.3       6 GLP5        0.0000 
     21 CA         47.6640   84.2155   44.9725 C.3       3 GLC5        0.0000 
     22 CA         49.1150   82.9820   45.2860 C.3       6 GLP5        0.0000 
     23 CA         45.0215   84.4285   46.0595 C.3       3 GLC5        0.0000 
     24 CA         43.8300   83.4080   47.4600 C.3       6 GLP5        0.0000 
     25 CA         48.0650   83.9445   40.7230 C.3       3 GLC5        0.0000 
     26 CA         46.6370   85.1660   41.3830 C.3       9 GLL5        0.0000 
     27 CA         49.4930   82.7230   40.0630 C.3       6 GLP5        0.0000 
     28 CA         49.2435   84.4390   43.5840 C.3       3 GLC5        0.0000 
     29 CA         49.3720   85.8960   41.8820 C.3       9 GLL5        0.0000 
     30 CA         51.1945   85.9660   44.1525 C.3       3 GLC5        0.0000 
     31 CA         50.7530   85.9530   42.0230 C.3       9 GLL5        0.0000 
     32 CA         51.6360   85.9790   46.2820 C.3       6 GLP5        0.0000 
     33 CA         55.0590   86.5505   39.4595 C.3       3 GLC5        0.0000 
     34 CA         55.2290   84.9550   40.3340 C.3       9 GLL5        0.0000 
     35 CA         54.8890   88.1460   38.5850 C.3       6 GLP5        0.0000 
     36 CA         53.5320   82.3795   40.4150 C.3       3 GLC5        0.0000 
     37 CA         55.2510   83.5990   41.0130 C.3       9 GLL5        0.0000 
     38 CA         51.8130   81.1600   39.8170 C.3       6 GLP5        0.0000 
     39 CA         55.1000   82.0925   39.3845 C.3       3 GLC5        0.0000 
     40 CA         54.9490   80.5860   37.7560 C.3       6 GLP5        0.0000 
     41 CA         57.9210   84.2215   42.8675 C.3       3 GLC5        0.0000 
     42 CA         56.6610   83.2350   41.4270 C.3       9 GLL5        0.0000 
     43 CA         59.1810   85.2080   44.3080 C.3       6 GLP5        0.0000 
     44 CA         56.1120   83.7885   43.0610 C.3       3 GLC5        0.0000 
     45 CA         55.5630   84.3420   44.6950 C.3       6 GLP5        0.0000 
     46 CA         50.8305   87.4068   38.4672 C.3       3 GLC5        0.0000 
     47 CA         51.0560   85.9000   39.6210 C.3       9 GLL5        0.0000 
     48 CA         51.3070   88.9080   37.3880 C.3       6 GLP5        0.0000 
     49 CA         54.7555   84.0435   42.5812 C.3       3 GLC5        0.0000 
     50 CA         54.2710   83.8100   44.4890 C.3       6 GLP5        0.0000 
@<TRIPOS>BOND
@<TRIPOS>SUBSTRUCTURE
     1 ALC1        1 GROUP        1 X    ALC  0     ROOT ALC X 1
     2 SEC2       10 GROUP        1 X    SEC  0     **** SEC X 2
     3 GLC5       13 GROUP        1 X    GLC  0     **** GLC X 6
     4 ALP1        3 GROUP        1 Y    ALP  0     ROOT ALP Y 8
     5 SEP2       12 GROUP        1 Y    SEP  0     **** SEP Y 9
     6 GLP5       15 GROUP        1 Y    GLP  0     **** GLP Y 13
     7 ALL1        2 GROUP        1 Z    ALL  0     ROOT ALL Z 15
     8 SEL2       11 GROUP        1 Z    SEL  0     **** SEL Z 16
     9 GLL5       14 GROUP        1 Z    GLL  0     **** GLL Z 20
@<TRIPOS>SET

