#    Name: 1pj7_FFO_1_ligand
#    Modification time : Mon Mar 24 21:39:53 2014

@<TRIPOS>MOLECULE
1pj7_FFO_1_ligand
   53    55     1     0     0
SMALL
NO_CHARGES


@<TRIPOS>ATOM
      1 N1         46.7090   85.0680   45.8440 N.pl3     1 FFO2887     0.0000 
      2 C2         47.5220   85.8630   46.5500 C.2       1 FFO2887     0.0000 
      3 NA2        47.9310   85.3540   47.7630 N.pl3     1 FFO2887     0.0000 
      4 N3         47.9450   87.0880   46.0850 N.2       1 FFO2887     0.0000 
      5 C4         47.5130   87.5680   44.8820 C.2       1 FFO2887     0.0000 
      6 O4         47.8910   88.6830   44.4200 O.2       1 FFO2887     0.0000 
      7 C4A        46.5720   86.7290   44.0770 C.2       1 FFO2887     0.0000 
      8 N5         45.9800   87.0550   42.8020 N.am      1 FFO2887     0.0000 
      9 C6         45.4610   86.0180   41.8860 C.3       1 FFO2887     0.0000 
     10 C7         44.6100   85.1010   42.7840 C.2       1 FFO2887     0.0000 
     11 N8         45.3630   84.6810   43.9410 N.2       1 FFO2887     0.0000 
     12 C8A        46.2130   85.4490   44.6590 C.2       1 FFO2887     0.0000 
     13 C9         46.6370   85.1660   41.3830 C.3       1 FFO2887     0.0000 
     14 N10        47.4790   85.8490   40.4420 N.pl3     1 FFO2887     0.0000 
     15 C11        51.6030   85.9410   40.9050 C.ar      1 FFO2887     0.0000 
     16 C12        51.0560   85.9000   39.6210 C.ar      1 FFO2887     0.0000 
     17 C13        49.6520   85.9110   39.4720 C.ar      1 FFO2887     0.0000 
     18 C14        48.8130   85.8980   40.6040 C.ar      1 FFO2887     0.0000 
     19 C15        49.3720   85.8960   41.8820 C.ar      1 FFO2887     0.0000 
     20 C16        50.7530   85.9530   42.0230 C.ar      1 FFO2887     0.0000 
     21 C          53.1080   85.8650   41.1400 C.2       1 FFO2887     0.0000 
     22 O          53.6450   86.1960   42.1980 O.2       1 FFO2887     0.0000 
     23 N          53.8360   85.2880   40.1790 N.am      1 FFO2887     0.0000 
     24 CA         55.2290   84.9550   40.3340 C.3       1 FFO2887     0.0000 
     25 CB         55.2510   83.5990   41.0130 C.3       1 FFO2887     0.0000 
     26 CG         56.6610   83.2350   41.4270 C.3       1 FFO2887     0.0000 
     27 CD         56.8320   81.7850   41.8680 C.2       1 FFO2887     0.0000 
     28 OE1        57.9660   81.4100   42.1690 O.co2     1 FFO2887     0.0000 
     29 OE2        55.8050   80.9260   41.9640 O.co2     1 FFO2887     0.0000 
     30 CT         55.7900   84.8920   38.9350 C.2       1 FFO2887     0.0000 
     31 O1         56.9710   85.0960   38.6790 O.co2     1 FFO2887     0.0000 
     32 O2         54.9550   84.6220   37.9350 O.co2     1 FFO2887     0.0000 
     33 C5A        45.8350   88.2890   42.5120 C.2       1 FFO2887     0.0000 
     34 O5B        45.2660   88.7450   41.5310 O.2       1 FFO2887     0.0000 
     35 H          46.4523   84.1192   46.2289 H         1 FFO2887     0.0000 
     36 H          48.1626   86.0258   48.4666 H         1 FFO2887     0.0000 
     37 H          47.9607   84.3570   47.8343 H         1 FFO2887     0.0000 
     38 H          44.9036   86.3905   41.1215 H         1 FFO2887     0.0000 
     39 H          43.7367   84.8792   42.5657 H         1 FFO2887     0.0000 
     40 H          46.2088   84.2409   40.9427 H         1 FFO2887     0.0000 
     41 H          47.2122   84.8394   42.2749 H         1 FFO2887     0.0000 
     42 H          47.0108   86.3019   39.6330 H         1 FFO2887     0.0000 
     43 H          51.6549   85.8626   38.7994 H         1 FFO2887     0.0000 
     44 H          49.2413   85.9286   38.5330 H         1 FFO2887     0.0000 
     45 H          48.7678   85.8528   42.7073 H         1 FFO2887     0.0000 
     46 H          51.1707   86.0056   42.9694 H         1 FFO2887     0.0000 
     47 H          53.4095   85.0477   39.2465 H         1 FFO2887     0.0000 
     48 H          55.7324   85.6654   40.9088 H         1 FFO2887     0.0000 
     49 H          54.8685   82.8445   40.3251 H         1 FFO2887     0.0000 
     50 H          54.6095   83.6261   41.8942 H         1 FFO2887     0.0000 
     51 H          56.9787   83.8970   42.2538 H         1 FFO2887     0.0000 
     52 H          57.3491   83.4329   40.5843 H         1 FFO2887     0.0000 
     53 H          46.2806   89.0090   43.2418 H         1 FFO2887     0.0000 
@<TRIPOS>BOND
     1    2    1 1    
     2   12    1 1    
     3   35    1 1    
     4    3    2 1    
     5    4    2 2    
     6   36    3 1    
     7   37    3 1    
     8    5    4 1    
     9    6    5 2    
    10    7    5 1    
    11    8    7 1    
    12   12    7 2    
    13    9    8 1    
    14   33    8 am   
    15   10    9 1    
    16   13    9 1    
    17   38    9 1    
    18   11   10 2    
    19   39   10 1    
    20   12   11 1    
    21   14   13 1    
    22   40   13 1    
    23   41   13 1    
    24   18   14 1    
    25   42   14 1    
    26   16   15 ar   
    27   20   15 ar   
    28   21   15 1    
    29   17   16 ar   
    30   43   16 1    
    31   18   17 ar   
    32   44   17 1    
    33   19   18 ar   
    34   20   19 ar   
    35   45   19 1    
    36   46   20 1    
    37   22   21 2    
    38   23   21 am   
    39   24   23 1    
    40   47   23 1    
    41   25   24 1    
    42   30   24 1    
    43   48   24 1    
    44   26   25 1    
    45   49   25 1    
    46   50   25 1    
    47   27   26 1    
    48   51   26 1    
    49   52   26 1    
    50   28   27 ar   
    51   29   27 ar   
    52   31   30 ar   
    53   32   30 ar   
    54   34   33 2    
    55   53   33 1    
@<TRIPOS>SUBSTRUCTURE
     1 FFO2887     1 GROUP   
@<TRIPOS>SET

