#    Name: 1q0r_AKT_1_INTS_M
#    Modification time : Mon Mar 24 22:36:04 2014

@<TRIPOS>MOLECULE
1q0r_AKT_1_INTS_M
   74     0     9     0     0
SMALL
NO_CHARGES


@<TRIPOS>ATOM
      1 CA          9.1010   20.4240   11.4795 C.3       3 GLC5        0.0000 
      2 CA         10.6040   19.7380   10.1620 C.3       9 GLL5        0.0000 
      3 CA          7.5980   21.1100   12.7970 C.3       6 GLP5        0.0000 
      4 CA         13.1745   21.5200   10.5325 C.3       3 GLC5        0.0000 
      5 CA         11.5400   20.6070    9.6040 C.3       9 GLL5        0.0000 
      6 CA         14.8090   22.4330   11.4610 C.3       6 GLP5        0.0000 
      7 CA         13.7415   21.6080    9.4505 C.3       3 GLC5        0.0000 
      8 CA         12.5720   20.1230    8.8150 C.3       9 GLL5        0.0000 
      9 CA         14.9110   23.0930   10.0860 C.3       6 GLP5        0.0000 
     10 O          14.4815   19.2285    7.1800 O.2       1 ALC1        0.0000 
     11 O          13.6610   18.2810    7.8300 O.2       7 ALL1        0.0000 
     12 O          15.3020   20.1760    6.5300 O.2       4 ALP1        0.0000 
     13 CA          9.8460   15.2685    7.7035 C.3       3 GLC5        0.0000 
     14 CA         10.8890   15.5140    9.4840 C.3       9 GLL5        0.0000 
     15 CA          8.8030   15.0230    5.9230 C.3       6 GLP5        0.0000 
     16 CA          7.0800   15.1565    9.6125 C.3       3 GLC5        0.0000 
     17 CA          8.8860   15.1920   10.8720 C.3       9 GLL5        0.0000 
     18 CA          5.2740   15.1210    8.3530 C.3       6 GLP5        0.0000 
     19 CA         10.1120    9.0910   15.1995 C.3       3 GLC5        0.0000 
     20 CA          9.2570    9.9010   13.6090 C.3       9 GLL5        0.0000 
     21 CA         10.9670    8.2810   16.7900 C.3       6 GLP5        0.0000 
     22 CA          8.8375    7.7745   14.1220 C.3       3 GLC5        0.0000 
     23 CA          8.4180    5.6480   14.6350 C.3       6 GLP5        0.0000 
     24 CA         12.3100   11.1090    7.2465 C.3       3 GLC5        0.0000 
     25 CA         13.2610   10.4380    9.0150 C.3       9 GLL5        0.0000 
     26 CA         11.3590   11.7800    5.4780 C.3       6 GLP5        0.0000 
     27 OD1        15.9455   12.5065    9.6530 O.co2     2 ASC3        0.0000 
     28 OD1        15.2940   11.6350    8.6210 O.co2     8 ASL3        0.0000 
     29 OD1        16.5970   13.3780   10.6850 O.co2     5 ASP3        0.0000 
     30 OD1        16.7095   12.3280    8.9240 O.co2     2 ASC3        0.0000 
     31 OD1        18.1250   13.0210    9.2270 O.co2     5 ASP3        0.0000 
     32 O          15.9455   12.5065    9.6530 O.2       1 ALC1        0.0000 
     33 O          15.2940   11.6350    8.6210 O.2       7 ALL1        0.0000 
     34 O          16.5970   13.3780   10.6850 O.2       4 ALP1        0.0000 
     35 O          16.7095   12.3280    8.9240 O.2       1 ALC1        0.0000 
     36 O          18.1250   13.0210    9.2270 O.2       4 ALP1        0.0000 
     37 CA         15.6625    8.6285    8.3020 C.3       3 GLC5        0.0000 
     38 CA         16.0590   10.7270    8.1720 C.3       9 GLL5        0.0000 
     39 CA         15.2660    6.5300    8.4320 C.3       6 GLP5        0.0000 
     40 CA         16.2235   10.3435    6.0730 C.3       3 GLC5        0.0000 
     41 CA         16.3880    9.9600    3.9740 C.3       6 GLP5        0.0000 
     42 CA         15.5620   14.4005    7.0520 C.3       3 GLC5        0.0000 
     43 CA         15.3470   12.7990    8.1110 C.3       9 GLL5        0.0000 
     44 CA         15.7770   16.0020    5.9930 C.3       6 GLP5        0.0000 
     45 CA         13.1915   12.7635   11.9755 C.3       3 GLC5        0.0000 
     46 CA         13.5790   10.5600   11.8720 C.3       9 GLL5        0.0000 
     47 CA         12.8040   14.9670   12.0790 C.3       6 GLP5        0.0000 
     48 CA          8.8640   19.7982    9.3742 C.3       3 GLC5        0.0000 
     49 CA         10.6960   18.3550    9.9390 C.3       9 GLL5        0.0000 
     50 CA          7.0780   20.5500    8.6980 C.3       6 GLP5        0.0000 
     51 CA         13.1052   17.9723   10.2170 C.3       3 GLC5        0.0000 
     52 CA         14.9880   17.8250   10.8920 C.3       6 GLP5        0.0000 
     53 CA         10.7800   21.6729    8.8790 C.3       3 GLC5        0.0000 
     54 CA          9.7380   23.1980    8.4090 C.3       6 GLP5        0.0000 
     55 CA         13.8050   18.6322    9.7957 C.3       3 GLC5        0.0000 
     56 CA          8.9229   15.4835   12.4946 C.3       3 GLC5        0.0000 
     57 CA          8.9830   13.8080   10.6300 C.3       9 GLL5        0.0000 
     58 CA          8.6810   16.2420   14.3770 C.3       6 GLP5        0.0000 
     59 CA          9.8449   13.1930    7.8407 C.3       3 GLC5        0.0000 
     60 CA         10.0090   13.2930    9.8420 C.3       9 GLL5        0.0000 
     61 CA          9.3840   13.6150    6.0440 C.3       6 GLP5        0.0000 
     62 CA          7.3998   12.9966   13.5103 C.3       3 GLC5        0.0000 
     63 CA          8.3240   10.9530   13.0250 C.3       9 GLL5        0.0000 
     64 CA          6.3760   14.3260   14.6620 C.3       6 GLP5        0.0000 
     65 CA          9.3786   11.5675   14.4561 C.3       3 GLC5        0.0000 
     66 CA          9.0110   11.9170   12.0500 C.3       9 GLL5        0.0000 
     67 CA          9.7950   12.4670   15.8390 C.3       6 GLP5        0.0000 
     68 CA         12.9667    8.4772   10.1398 C.3       3 GLC5        0.0000 
     69 CA         12.0780   10.3030    9.9600 C.3       9 GLL5        0.0000 
     70 CA         13.2640    6.5840   10.7920 C.3       6 GLP5        0.0000 
     71 CA         14.3030   11.8090   13.6162 C.3       3 GLC5        0.0000 
     72 CA         14.8400   13.3960   14.6990 C.3       6 GLP5        0.0000 
     73 CA         13.6660    8.4245   11.5468 C.3       3 GLC5        0.0000 
     74 CA         13.9530    9.8840   13.1950 C.3       9 GLL5        0.0000 
@<TRIPOS>BOND
@<TRIPOS>SUBSTRUCTURE
     1 ALC1       10 GROUP        1 X    ALC  0     ROOT ALC X 1
     2 ASC3       27 GROUP        1 X    ASC  0     **** ASC X 3
     3 GLC5        1 GROUP        1 X    GLC  0     **** GLC X 6
     4 ALP1       12 GROUP        1 Y    ALP  0     ROOT ALP Y 8
     5 ASP3       29 GROUP        1 Y    ASP  0     **** ASP Y 10
     6 GLP5        3 GROUP        1 Y    GLP  0     **** GLP Y 13
     7 ALL1       11 GROUP        1 Z    ALL  0     ROOT ALL Z 15
     8 ASL3       28 GROUP        1 Z    ASL  0     **** ASL Z 17
     9 GLL5        2 GROUP        1 Z    GLL  0     **** GLL Z 20
@<TRIPOS>SET

