#    Name: 1q0r_AKT_1_ligand
#    Modification time : Mon Mar 24 22:36:04 2014

@<TRIPOS>MOLECULE
1q0r_AKT_1_ligand
   71    75     1     0     0
SMALL
NO_CHARGES


@<TRIPOS>ATOM
      1 O12         8.8320   17.9720   11.2140 O.2       1 AKT600      0.0000 
      2 C12         9.7530   17.4840   10.5130 C.2       1 AKT600      0.0000 
      3 C15        10.6960   18.3550    9.9390 C.ar      1 AKT600      0.0000 
      4 C1         10.6040   19.7380   10.1620 C.ar      1 AKT600      0.0000 
      5 C2         11.5400   20.6070    9.6040 C.ar      1 AKT600      0.0000 
      6 C3         12.5720   20.1230    8.8150 C.ar      1 AKT600      0.0000 
      7 C16        11.7490   17.8840    9.1450 C.ar      1 AKT600      0.0000 
      8 C4         12.6720   18.7560    8.5840 C.ar      1 AKT600      0.0000 
      9 O4         13.6610   18.2810    7.8300 O.3       1 AKT600      0.0000 
     10 C5         11.8770   16.4300    8.8700 C.2       1 AKT600      0.0000 
     11 O5         12.7580   16.0000    8.0900 O.2       1 AKT600      0.0000 
     12 C18         9.8070   16.0920   10.3170 C.ar      1 AKT600      0.0000 
     13 C17        10.8890   15.5140    9.4840 C.ar      1 AKT600      0.0000 
     14 C6         10.9600   14.1450    9.2760 C.ar      1 AKT600      0.0000 
     15 O6         11.9520   13.7060    8.5070 O.3       1 AKT600      0.0000 
     16 C11         8.8860   15.1920   10.8720 C.ar      1 AKT600      0.0000 
     17 C19         8.9830   13.8080   10.6300 C.ar      1 AKT600      0.0000 
     18 C10         8.0350   12.8460   11.3340 C.3       1 AKT600      0.0000 
     19 C20        10.0090   13.2930    9.8420 C.ar      1 AKT600      0.0000 
     20 C7         10.1270   11.8230    9.7160 C.3       1 AKT600      0.0000 
     21 C8          9.4170   11.0510   10.8370 C.3       1 AKT600      0.0000 
     22 C9          9.0110   11.9170   12.0500 C.3       1 AKT600      0.0000 
     23 O9         10.1590   12.5340   12.6470 O.3       1 AKT600      0.0000 
     24 C13         8.3240   10.9530   13.0250 C.3       1 AKT600      0.0000 
     25 C14         9.2570    9.9010   13.6090 C.3       1 AKT600      0.0000 
     26 O7         11.4780   11.5970   10.1350 O.3       1 AKT600      0.0000 
     27 C1'        12.0780   10.3030    9.9600 C.3       1 AKT600      0.0000 
     28 C2'        13.2610   10.4380    9.0150 C.3       1 AKT600      0.0000 
     29 C3'        14.2760   11.3790    9.6520 C.3       1 AKT600      0.0000 
     30 N3'        15.2940   11.6350    8.6210 N.4       1 AKT600      0.0000 
     31 C8'        16.0590   10.7270    8.1720 C.3       1 AKT600      0.0000 
     32 C7'        15.3470   12.7990    8.1110 C.3       1 AKT600      0.0000 
     33 C4'        14.7870   10.7320   10.9440 C.3       1 AKT600      0.0000 
     34 O4'        15.3970    9.4650   10.7040 O.3       1 AKT600      0.0000 
     35 C5'        13.5790   10.5600   11.8720 C.3       1 AKT600      0.0000 
     36 O5'        12.5390    9.8010   11.2310 O.3       1 AKT600      0.0000 
     37 C6'        13.9530    9.8840   13.1950 C.3       1 AKT600      0.0000 
     38 H           9.8391   20.1081   10.7417 H         1 AKT600      0.0000 
     39 H          11.4611   21.6216    9.7821 H         1 AKT600      0.0000 
     40 H          13.2565   20.7665    8.4046 H         1 AKT600      0.0000 
     41 H           8.1229   15.5473   11.4685 H         1 AKT600      0.0000 
     42 H           7.4792   12.3029   10.6231 H         1 AKT600      0.0000 
     43 H           7.4521   13.3665   12.0401 H         1 AKT600      0.0000 
     44 H           9.9338   11.4469    8.8123 H         1 AKT600      0.0000 
     45 H          10.0770   10.2419   11.1883 H         1 AKT600      0.0000 
     46 H           8.5121   10.5751   10.4266 H         1 AKT600      0.0000 
     47 H           7.4958   10.4504   12.5006 H         1 AKT600      0.0000 
     48 H           7.8796   11.5377   13.8461 H         1 AKT600      0.0000 
     49 H          11.3774    9.6178    9.5138 H         1 AKT600      0.0000 
     50 H          12.9285   10.8505    8.0746 H         1 AKT600      0.0000 
     51 H          13.7142    9.4706    8.8611 H         1 AKT600      0.0000 
     52 H          13.7482   12.2897    9.8966 H         1 AKT600      0.0000 
     53 H          16.2222   11.9968    9.6411 H         1 AKT600      0.0000 
     54 H          15.4614   11.4256   11.4187 H         1 AKT600      0.0000 
     55 H          13.2049   11.5628   12.1169 H         1 AKT600      0.0000 
     56 H           9.6661    9.3308   12.8966 H         1 AKT600      0.0000 
     57 H          10.0095   10.3151   14.1211 H         1 AKT600      0.0000 
     58 H           8.7781    9.2872   14.2367 H         1 AKT600      0.0000 
     59 H          16.6889   11.0805    7.4804 H         1 AKT600      0.0000 
     60 H          16.6165   10.3198    8.8954 H         1 AKT600      0.0000 
     61 H          15.5431    9.9838    7.7461 H         1 AKT600      0.0000 
     62 H          15.5286   13.4991    8.8016 H         1 AKT600      0.0000 
     63 H          16.0698   12.8708    7.4237 H         1 AKT600      0.0000 
     64 H          14.4890   13.0467    7.6610 H         1 AKT600      0.0000 
     65 H          14.3354    8.9714   13.0506 H         1 AKT600      0.0000 
     66 H          14.6355   10.4110   13.7014 H         1 AKT600      0.0000 
     67 H          13.1601    9.7780   13.7951 H         1 AKT600      0.0000 
     68 H          14.1957   19.0845    7.5685 H         1 AKT600      0.0000 
     69 H          12.1601   12.7903    8.8509 H         1 AKT600      0.0000 
     70 H          10.8922   12.4194   11.9767 H         1 AKT600      0.0000 
     71 H          16.3490    9.6744   10.4807 H         1 AKT600      0.0000 
@<TRIPOS>BOND
     1    2    1 2    
     2    3    2 1    
     3   12    2 1    
     4    4    3 ar   
     5    7    3 ar   
     6    5    4 ar   
     7   38    4 1    
     8    6    5 ar   
     9   39    5 1    
    10    8    6 ar   
    11   40    6 1    
    12    8    7 ar   
    13   10    7 1    
    14    9    8 1    
    15   68    9 1    
    16   11   10 2    
    17   13   10 1    
    18   13   12 ar   
    19   16   12 ar   
    20   14   13 ar   
    21   15   14 1    
    22   19   14 ar   
    23   69   15 1    
    24   17   16 ar   
    25   41   16 1    
    26   18   17 1    
    27   19   17 ar   
    28   22   18 1    
    29   42   18 1    
    30   43   18 1    
    31   20   19 1    
    32   21   20 1    
    33   26   20 1    
    34   44   20 1    
    35   22   21 1    
    36   45   21 1    
    37   46   21 1    
    38   23   22 1    
    39   24   22 1    
    40   70   23 1    
    41   25   24 1    
    42   47   24 1    
    43   48   24 1    
    44   56   25 1    
    45   57   25 1    
    46   58   25 1    
    47   27   26 1    
    48   28   27 1    
    49   36   27 1    
    50   49   27 1    
    51   29   28 1    
    52   50   28 1    
    53   51   28 1    
    54   30   29 1    
    55   33   29 1    
    56   52   29 1    
    57   31   30 1    
    58   32   30 1    
    59   53   30 1    
    60   59   31 1    
    61   60   31 1    
    62   61   31 1    
    63   62   32 1    
    64   63   32 1    
    65   64   32 1    
    66   34   33 1    
    67   35   33 1    
    68   54   33 1    
    69   71   34 1    
    70   36   35 1    
    71   37   35 1    
    72   55   35 1    
    73   65   37 1    
    74   66   37 1    
    75   67   37 1    
@<TRIPOS>SUBSTRUCTURE
     1 AKT600      1 GROUP   
@<TRIPOS>SET

