#    Name: 1zgb_A1E_1_INTS_M
#    Modification time : Tue Mar 25 11:44:45 2014

@<TRIPOS>MOLECULE
1zgb_A1E_1_INTS_M
   80     0     9     0     0
SMALL
NO_CHARGES


@<TRIPOS>ATOM
      1 CA         -3.1055   62.2000   73.2785 C.3       3 GLC5        0.0000 
      2 CA         -2.0300   60.6480   74.2690 C.3       9 GLL5        0.0000 
      3 CA         -4.1810   63.7520   72.2880 C.3       6 GLP5        0.0000 
      4 CA         -1.7980   59.1510   71.7320 C.3       3 GLC5        0.0000 
      5 CA         -1.0720   60.0800   73.1650 C.3       9 GLL5        0.0000 
      6 CA         -2.5240   58.2220   70.2990 C.3       6 GLP5        0.0000 
      7 CA          0.7635   55.3910   71.6745 C.3       3 GLC5        0.0000 
      8 CA          1.0540   56.7480   73.2200 C.3       9 GLL5        0.0000 
      9 CA          0.4730   54.0340   70.1290 C.3       6 GLP5        0.0000 
     10 N           1.3650   54.0820   73.9650 N.am      2 SEC2        0.0000 
     11 N           0.5390   54.9060   74.6920 N.am      8 SEL2        0.0000 
     12 N           2.1910   53.2580   73.2380 N.am      5 SEP2        0.0000 
     13 CA         -1.8640   63.2900   71.7570 C.3       3 GLC5        0.0000 
     14 CA         -0.0680   62.2860   72.3830 C.3       9 GLL5        0.0000 
     15 CA         -3.6600   64.2940   71.1310 C.3       6 GLP5        0.0000 
     16 CA         -1.0075   61.2305   70.6385 C.3       3 GLC5        0.0000 
     17 CA         -1.9470   60.1750   68.8940 C.3       6 GLP5        0.0000 
     18 CA          2.3300   61.0750   67.3590 C.3       3 GLC5        0.0000 
     19 CA          1.6990   62.3090   68.9910 C.3       9 GLL5        0.0000 
     20 CA          2.9610   59.8410   65.7270 C.3       6 GLP5        0.0000 
     21 CA          4.2215   64.1480   71.1540 C.3       3 GLC5        0.0000 
     22 CA          3.6790   63.7740   69.0100 C.3       9 GLL5        0.0000 
     23 CA          4.7640   64.5220   73.2980 C.3       6 GLP5        0.0000 
     24 CA          3.7640   65.4615   71.3805 C.3       3 GLC5        0.0000 
     25 CA          3.2800   65.0280   69.8120 C.3       9 GLL5        0.0000 
     26 CA          4.2480   65.8950   72.9490 C.3       6 GLP5        0.0000 
     27 CA          2.3090   66.6680   70.8330 C.3       3 GLC5        0.0000 
     28 CA          2.2410   65.8630   69.0450 C.3       9 GLL5        0.0000 
     29 CA          2.3770   67.4730   72.6210 C.3       6 GLP5        0.0000 
     30 O           7.5175   69.4410   64.3685 O.2       1 ALC1        0.0000 
     31 O           6.0700   69.3050   64.6510 O.2       7 ALL1        0.0000 
     32 O           8.9650   69.5770   64.0860 O.2       4 ALP1        0.0000 
     33 CA          5.5675   71.3290   65.5305 C.3       3 GLC5        0.0000 
     34 CA          6.8660   70.1920   66.7800 C.3       9 GLL5        0.0000 
     35 CA          4.2690   72.4660   64.2810 C.3       6 GLP5        0.0000 
     36 CA          6.9975   67.0125   62.6705 C.3       3 GLC5        0.0000 
     37 CA          5.6230   68.5170   62.4010 C.3       9 GLL5        0.0000 
     38 CA          8.3720   65.5080   62.9400 C.3       6 GLP5        0.0000 
     39 CA          7.1670   69.4865   61.9190 C.3       3 GLC5        0.0000 
     40 CA          8.7110   70.4560   61.4370 C.3       6 GLP5        0.0000 
     41 CA          1.8075   69.5355   64.2355 C.3       3 GLC5        0.0000 
     42 CA          2.8360   67.7540   63.3560 C.3       9 GLL5        0.0000 
     43 CA          0.7790   71.3170   65.1150 C.3       6 GLP5        0.0000 
     44 CA         -3.5423   59.5300   72.7747 C.3       3 GLC5        0.0000 
     45 CA         -4.5190   58.9150   71.0920 C.3       6 GLP5        0.0000 
     46 CA         -2.7097   57.4764   73.2806 C.3       3 GLC5        0.0000 
     47 CA         -0.5640   58.6720   73.5430 C.3       9 GLL5        0.0000 
     48 CA         -3.7500   56.5980   71.9090 C.3       6 GLP5        0.0000 
     49 CA          0.1763   62.7278   67.9245 C.3       3 GLC5        0.0000 
     50 CA          0.6380   62.6540   70.0350 C.3       9 GLL5        0.0000 
     51 CA         -0.8160   62.9740   66.3360 C.3       6 GLP5        0.0000 
     52 CA          0.2444   60.9264   69.1984 C.3       3 GLC5        0.0000 
     53 CA         -0.7670   59.5310   68.5560 C.3       6 GLP5        0.0000 
     54 CA          4.6720   64.2940   68.5915 C.3       3 GLC5        0.0000 
     55 CA          3.1210   62.4740   69.5480 C.3       9 GLL5        0.0000 
     56 CA          5.9440   65.4640   67.9040 C.3       6 GLP5        0.0000 
     57 CA          5.2355   62.4285   68.4945 C.3       3 GLC5        0.0000 
     58 CA          7.0710   61.7330   67.7100 C.3       6 GLP5        0.0000 
     59 CA          4.3416   65.6876   68.2306 C.3       3 GLC5        0.0000 
     60 CA          2.2272   69.9205   65.0782 C.3       3 GLC5        0.0000 
     61 CA          3.5210   68.6620   65.7320 C.3       9 GLL5        0.0000 
     62 CA          3.9677   71.0557   67.2585 C.3       3 GLC5        0.0000 
     63 CA          4.4250   69.6100   68.0480 C.3       9 GLL5        0.0000 
     64 CA          2.9900   72.2080   66.1070 C.3       6 GLP5        0.0000 
     65 CA          6.3613   68.4272   68.4515 C.3       3 GLC5        0.0000 
     66 CA          7.7770   66.9510   68.4930 C.3       6 GLP5        0.0000 
     67 CA          4.7917   69.0383   70.3060 C.3       3 GLC5        0.0000 
     68 CA          5.4660   70.1970   68.7720 C.3       9 GLL5        0.0000 
     69 CA          4.6380   68.1730   72.2020 C.3       6 GLP5        0.0000 
     70 CA          7.3863   68.7807   67.3100 C.3       3 GLC5        0.0000 
     71 CA          6.7110   70.4990   68.1320 C.3       9 GLL5        0.0000 
     72 CA          7.9840   67.2160   67.1640 C.3       6 GLP5        0.0000 
     73 CA          5.7756   71.5476   69.5295 C.3       3 GLC5        0.0000 
     74 CA          5.7230   72.8940   70.7880 C.3       6 GLP5        0.0000 
     75 CA          8.6737   70.3978   67.2190 C.3       3 GLC5        0.0000 
     76 CA         10.5590   70.4500   66.9820 C.3       6 GLP5        0.0000 
     77 CA          7.5593   71.8827   66.5365 C.3       3 GLC5        0.0000 
     78 CA          8.3300   73.4200   65.6170 C.3       6 GLP5        0.0000 
     79 CA          2.0877   66.1190   62.0135 C.3       3 GLC5        0.0000 
     80 CA          1.0260   64.7380   61.3450 C.3       6 GLP5        0.0000 
@<TRIPOS>BOND
@<TRIPOS>SUBSTRUCTURE
     1 ALC1       30 GROUP        1 X    ALC  0     ROOT ALC X 1
     2 SEC2       10 GROUP        1 X    SEC  0     **** SEC X 2
     3 GLC5        1 GROUP        1 X    GLC  0     **** GLC X 6
     4 ALP1       32 GROUP        1 Y    ALP  0     ROOT ALP Y 8
     5 SEP2       12 GROUP        1 Y    SEP  0     **** SEP Y 9
     6 GLP5        3 GROUP        1 Y    GLP  0     **** GLP Y 13
     7 ALL1       31 GROUP        1 Z    ALL  0     ROOT ALL Z 15
     8 SEL2       11 GROUP        1 Z    SEL  0     **** SEL Z 16
     9 GLL5        2 GROUP        1 Z    GLL  0     **** GLL Z 20
@<TRIPOS>SET

