#    Name: 1zgb_A1E_1_ligand
#    Modification time : Tue Mar 25 11:44:45 2014

@<TRIPOS>MOLECULE
1zgb_A1E_1_ligand
   81    85     1     0     0
SMALL
NO_CHARGES


@<TRIPOS>ATOM
      1 C1         -3.1010   59.6420   74.6460 C.3       1 A1E1001     0.0000 
      2 C2         -2.0300   60.6480   74.2690 C.3       1 A1E1001     0.0000 
      3 C3         -1.0720   60.0800   73.1650 C.3       1 A1E1001     0.0000 
      4 C4         -0.5640   58.6720   73.5430 C.2       1 A1E1001     0.0000 
      5 C5         -1.2260   57.9290   74.5080 C.2       1 A1E1001     0.0000 
      6 C6         -2.4440   58.4090   75.2790 C.3       1 A1E1001     0.0000 
      7 C7          0.6260   58.0220   72.8830 C.2       1 A1E1001     0.0000 
      8 C8          1.0540   56.7480   73.2200 C.2       1 A1E1001     0.0000 
      9 C9          0.2850   56.0030   74.2960 C.2       1 A1E1001     0.0000 
     10 N10        -0.7790   56.6730   74.8270 N.am      1 A1E1001     0.0000 
     11 O11         0.5390   54.9060   74.6920 O.2       1 A1E1001     0.0000 
     12 N12         0.0400   61.0700   73.2430 N.4       1 A1E1001     0.0000 
     13 C13        -0.0680   62.2860   72.3830 C.3       1 A1E1001     0.0000 
     14 C14         0.9870   62.0150   71.3460 C.3       1 A1E1001     0.0000 
     15 C15         0.6380   62.6540   70.0350 C.3       1 A1E1001     0.0000 
     16 C16         1.6990   62.3090   68.9910 C.3       1 A1E1001     0.0000 
     17 C17         3.1210   62.4740   69.5480 C.3       1 A1E1001     0.0000 
     18 C18         3.6790   63.7740   69.0100 C.3       1 A1E1001     0.0000 
     19 C19         3.2800   65.0280   69.8120 C.3       1 A1E1001     0.0000 
     20 C20         2.2410   65.8630   69.0450 C.3       1 A1E1001     0.0000 
     21 C21         2.7180   66.3770   67.6860 C.3       1 A1E1001     0.0000 
     22 C22         1.7260   67.4350   67.2000 C.3       1 A1E1001     0.0000 
     23 N23         2.2130   68.4110   66.2220 N.pl3     1 A1E1001     0.0000 
     24 C24         3.5210   68.6620   65.7320 C.ar      1 A1E1001     0.0000 
     25 C25         4.5280   69.2680   66.6260 C.ar      1 A1E1001     0.0000 
     26 C26         5.7970   69.5770   66.0220 C.ar      1 A1E1001     0.0000 
     27 N27         6.0700   69.3050   64.6510 N.pl3     1 A1E1001     0.0000 
     28 C28         5.1550   68.7420   63.8630 C.ar      1 A1E1001     0.0000 
     29 C29         3.8300   68.3860   64.3510 C.ar      1 A1E1001     0.0000 
     30 C30         4.4250   69.6100   68.0480 C.3       1 A1E1001     0.0000 
     31 C31         5.4660   70.1970   68.7720 C.3       1 A1E1001     0.0000 
     32 C32         6.7110   70.4990   68.1320 C.3       1 A1E1001     0.0000 
     33 C33         6.8660   70.1920   66.7800 C.3       1 A1E1001     0.0000 
     34 C34         5.6230   68.5170   62.4010 C.ar      1 A1E1001     0.0000 
     35 C35         4.4170   68.2910   61.4350 C.ar      1 A1E1001     0.0000 
     36 C36         3.4630   67.2460   62.0080 C.ar      1 A1E1001     0.0000 
     37 C37         2.8360   67.7540   63.3560 C.ar      1 A1E1001     0.0000 
     38 H          -3.6455   59.3375   73.7601 H         1 A1E1001     0.0000 
     39 H          -3.7844   60.0852   75.3606 H         1 A1E1001     0.0000 
     40 H          -1.4288   60.8988   75.1410 H         1 A1E1001     0.0000 
     41 H          -2.4892   61.5561   73.8827 H         1 A1E1001     0.0000 
     42 H          -1.5443   60.1100   72.2569 H         1 A1E1001     0.0000 
     43 H          -3.1847   57.6005   75.3288 H         1 A1E1001     0.0000 
     44 H          -2.1497   58.6544   76.3076 H         1 A1E1001     0.0000 
     45 H           1.1008   58.5842   72.1660 H         1 A1E1001     0.0000 
     46 H           1.8305   56.2843   72.8074 H         1 A1E1001     0.0000 
     47 H          -1.3432   56.1473   75.5986 H         1 A1E1001     0.0000 
     48 H           0.1815   63.1534   72.9357 H         1 A1E1001     0.0000 
     49 H          -1.0216   62.3327   71.9262 H         1 A1E1001     0.0000 
     50 H           1.0917   60.9323   71.2091 H         1 A1E1001     0.0000 
     51 H           1.9500   62.4035   71.6978 H         1 A1E1001     0.0000 
     52 H           0.5927   63.7350   70.1475 H         1 A1E1001     0.0000 
     53 H          -0.3276   62.2918   69.6891 H         1 A1E1001     0.0000 
     54 H           1.5790   62.9629   68.1249 H         1 A1E1001     0.0000 
     55 H           1.5628   61.2756   68.6660 H         1 A1E1001     0.0000 
     56 H           3.7271   61.6479   69.2175 H         1 A1E1001     0.0000 
     57 H           3.0766   62.5088   70.6231 H         1 A1E1001     0.0000 
     58 H           3.3467   63.9108   67.9640 H         1 A1E1001     0.0000 
     59 H           4.7831   63.7160   68.9832 H         1 A1E1001     0.0000 
     60 H           4.1650   65.6331   69.9893 H         1 A1E1001     0.0000 
     61 H           2.8590   64.7211   70.7655 H         1 A1E1001     0.0000 
     62 H           1.9477   66.7231   69.6713 H         1 A1E1001     0.0000 
     63 H           1.3345   65.2508   68.8991 H         1 A1E1001     0.0000 
     64 H           2.7465   65.5612   66.9828 H         1 A1E1001     0.0000 
     65 H           3.6939   66.8212   67.7919 H         1 A1E1001     0.0000 
     66 H           1.3296   67.9668   68.1073 H         1 A1E1001     0.0000 
     67 H           0.8313   66.8936   66.7882 H         1 A1E1001     0.0000 
     68 H           1.4249   69.0451   65.8093 H         1 A1E1001     0.0000 
     69 H           7.0140   69.5658   64.2958 H         1 A1E1001     0.0000 
     70 H           4.0682   68.6466   68.5991 H         1 A1E1001     0.0000 
     71 H           3.4611   70.2546   68.1684 H         1 A1E1001     0.0000 
     72 H           5.6919   69.5542   69.7053 H         1 A1E1001     0.0000 
     73 H           5.0822   71.1623   69.2781 H         1 A1E1001     0.0000 
     74 H           7.5543   70.0069   68.7383 H         1 A1E1001     0.0000 
     75 H           6.9416   71.6118   68.3036 H         1 A1E1001     0.0000 
     76 H           7.1970   71.1417   66.2049 H         1 A1E1001     0.0000 
     77 H           7.8116   69.5375   66.6396 H         1 A1E1001     0.0000 
     78 H           6.4927   68.5159   62.1338 H         1 A1E1001     0.0000 
     79 H           4.3146   68.7278   60.6492 H         1 A1E1001     0.0000 
     80 H           3.2706   66.4428   61.6419 H         1 A1E1001     0.0000 
     81 H           1.9186   67.6722   63.5304 H         1 A1E1001     0.0000 
@<TRIPOS>BOND
     1    2    1 1    
     2    6    1 1    
     3   38    1 1    
     4   39    1 1    
     5    3    2 1    
     6   40    2 1    
     7   41    2 1    
     8    4    3 1    
     9   12    3 1    
    10   42    3 1    
    11    5    4 2    
    12    7    4 1    
    13    6    5 1    
    14   10    5 1    
    15   43    6 1    
    16   44    6 1    
    17    8    7 2    
    18   45    7 1    
    19    9    8 1    
    20   46    8 1    
    21   10    9 am   
    22   11    9 2    
    23   47   10 1    
    24   13   12 1    
    25   14   13 1    
    26   48   13 1    
    27   49   13 1    
    28   15   14 1    
    29   50   14 1    
    30   51   14 1    
    31   16   15 1    
    32   52   15 1    
    33   53   15 1    
    34   17   16 1    
    35   54   16 1    
    36   55   16 1    
    37   18   17 1    
    38   56   17 1    
    39   57   17 1    
    40   19   18 1    
    41   58   18 1    
    42   59   18 1    
    43   20   19 1    
    44   60   19 1    
    45   61   19 1    
    46   21   20 1    
    47   62   20 1    
    48   63   20 1    
    49   22   21 1    
    50   64   21 1    
    51   65   21 1    
    52   23   22 1    
    53   66   22 1    
    54   67   22 1    
    55   24   23 1    
    56   68   23 1    
    57   25   24 ar   
    58   29   24 ar   
    59   26   25 ar   
    60   30   25 1    
    61   27   26 ar   
    62   33   26 1    
    63   28   27 ar   
    64   69   27 1    
    65   29   28 ar   
    66   34   28 ar   
    67   37   29 ar   
    68   31   30 1    
    69   70   30 1    
    70   71   30 1    
    71   32   31 1    
    72   72   31 1    
    73   73   31 1    
    74   33   32 1    
    75   74   32 1    
    76   75   32 1    
    77   76   33 1    
    78   77   33 1    
    79   35   34 ar   
    80   78   34 1    
    81   36   35 ar   
    82   79   35 1    
    83   37   36 ar   
    84   80   36 1    
    85   81   37 1    
@<TRIPOS>SUBSTRUCTURE
     1 A1E1001     1 GROUP   
@<TRIPOS>SET

