#    Name: 3sw7_19K_1_INTS_M
#    Modification time : Mon Mar 24 18:39:19 2014

@<TRIPOS>MOLECULE
3sw7_19K_1_INTS_M
   63     0     9     0     0
SMALL
NO_CHARGES


@<TRIPOS>ATOM
      1 CA         15.9260    6.8360   -9.4030 C.3       3 GLC5        0.0000 
      2 CA         14.3780    5.3150   -9.3090 C.3       9 GLL5        0.0000 
      3 CA         17.4740    8.3570   -9.4970 C.3       6 GLP5        0.0000 
      4 N          10.4605   11.0305  -15.5655 N.am      2 SEC2        0.0000 
      5 N          11.3680   10.2960  -14.6630 N.am      8 SEL2        0.0000 
      6 N           9.5530   11.7650  -16.4680 N.am      5 SEP2        0.0000 
      7 O           9.1330   11.2560  -13.4870 O.2       1 ALC1        0.0000 
      8 O          10.1430   10.6200  -12.7430 O.2       7 ALL1        0.0000 
      9 O           8.1230   11.8920  -14.2310 O.2       4 ALP1        0.0000 
     10 CA         17.1250    7.9445  -14.7775 C.3       3 GLC5        0.0000 
     11 CA         16.0020    7.1620  -13.5850 C.3       9 GLL5        0.0000 
     12 CA         18.2480    8.7270  -15.9700 C.3       6 GLP5        0.0000 
     13 CA         16.8225    5.2260  -13.8575 C.3       3 GLC5        0.0000 
     14 CA         17.6430    3.2900  -14.1300 C.3       6 GLP5        0.0000 
     15 CA         12.9930   10.3175  -12.0205 C.3       3 GLC5        0.0000 
     16 CA         12.9690    8.5720  -13.2650 C.3       9 GLL5        0.0000 
     17 CA         13.0170   12.0630  -10.7760 C.3       6 GLP5        0.0000 
     18 CA         11.7945    7.0390  -13.7500 C.3       3 GLC5        0.0000 
     19 CA         10.6200    5.5060  -14.2350 C.3       6 GLP5        0.0000 
     20 CA         14.8765    9.2850  -16.0210 C.3       3 GLC5        0.0000 
     21 CA         13.2600    8.7940  -14.6060 C.3       9 GLL5        0.0000 
     22 CA         16.4930    9.7760  -17.4360 C.3       6 GLP5        0.0000 
     23 CA         11.9665   11.3955  -16.1775 C.3       3 GLC5        0.0000 
     24 CA         12.4030    9.6700  -15.2520 C.3       9 GLL5        0.0000 
     25 CA         11.5300   13.1210  -17.1030 C.3       6 GLP5        0.0000 
     26 CA         12.0965   11.0335  -12.0725 C.3       3 GLC5        0.0000 
     27 CA         11.1760   10.0040  -13.3690 C.3       9 GLL5        0.0000 
     28 CA         13.0400   10.9500  -13.7625 C.3       3 GLC5        0.0000 
     29 CA         14.9040   11.8960  -14.1560 C.3       6 GLP5        0.0000 
     30 CA         10.1525    8.6115  -13.2770 C.3       3 GLC5        0.0000 
     31 CA          9.1290    7.2190  -13.1850 C.3       6 GLP5        0.0000 
     32 CA          4.8190    9.9925   -7.0980 C.3       3 GLC5        0.0000 
     33 CA          6.6500    9.7330   -7.2880 C.3       9 GLL5        0.0000 
     34 CA          2.9880   10.2520   -6.9080 C.3       6 GLP5        0.0000 
     35 CA         10.5705   11.6640   -6.6645 C.3       3 GLC5        0.0000 
     36 CA          8.4480   11.2710   -6.5530 C.3       9 GLL5        0.0000 
     37 CA         12.6930   12.0570   -6.7760 C.3       6 GLP5        0.0000 
     38 CA          9.8890   12.5095   -9.1235 C.3       3 GLC5        0.0000 
     39 CA          8.0820   11.3880   -9.7630 C.3       9 GLL5        0.0000 
     40 CA         11.6960   13.6310   -8.4840 C.3       6 GLP5        0.0000 
     41 CA         12.0032    6.4855  -12.9317 C.3       3 GLC5        0.0000 
     42 CA         13.0150    7.2400  -10.8720 C.3       9 GLL5        0.0000 
     43 CA         14.5295    5.6520  -14.3442 C.3       3 GLC5        0.0000 
     44 CA         14.9800    7.0000  -12.5100 C.3       9 GLL5        0.0000 
     45 CA         13.5680    4.2230  -15.6410 C.3       6 GLP5        0.0000 
     46 CA         15.5332    8.8232  -11.7361 C.3       3 GLC5        0.0000 
     47 CA         16.4420   10.2610  -10.7560 C.3       6 GLP5        0.0000 
     48 CA         13.1677    8.4085  -16.7755 C.3       3 GLC5        0.0000 
     49 CA         13.5040    7.5850  -18.6220 C.3       6 GLP5        0.0000 
     50 CA         11.2587    7.9445  -14.7165 C.3       3 GLC5        0.0000 
     51 CA          9.6860    6.6570  -14.5040 C.3       6 GLP5        0.0000 
     52 CA         13.8314   10.5363  -14.3749 C.3       3 GLC5        0.0000 
     53 CA          8.5665    7.6467  -10.0317 C.3       3 GLC5        0.0000 
     54 CA          9.9510    9.4790  -10.5990 C.3       9 GLL5        0.0000 
     55 CA          7.4490    5.8580  -10.1000 C.3       6 GLP5        0.0000 
     56 CA         10.6275   11.0485   -8.6760 C.3       3 GLC5        0.0000 
     57 CA          9.4170    9.3920   -9.3280 C.3       9 GLL5        0.0000 
     58 CA         12.2980   12.2460   -8.2620 C.3       6 GLP5        0.0000 
     59 CA          9.3604    8.4564  -11.6806 C.3       3 GLC5        0.0000 
     60 CA          6.6793   10.5475  -11.1395 C.3       3 GLC5        0.0000 
     61 CA          8.6630   11.4640  -11.0170 C.3       9 GLL5        0.0000 
     62 CA          4.9860    9.6690  -11.8890 C.3       6 GLP5        0.0000 
     63 CA         11.1159   11.3964  -10.8984 C.3       3 GLC5        0.0000 
@<TRIPOS>BOND
@<TRIPOS>SUBSTRUCTURE
     1 ALC1        7 GROUP        1 X    ALC  0     ROOT ALC X 1
     2 SEC2        4 GROUP        1 X    SEC  0     **** SEC X 2
     3 GLC5        1 GROUP        1 X    GLC  0     **** GLC X 6
     4 ALP1        9 GROUP        1 Y    ALP  0     ROOT ALP Y 8
     5 SEP2        6 GROUP        1 Y    SEP  0     **** SEP Y 9
     6 GLP5        3 GROUP        1 Y    GLP  0     **** GLP Y 13
     7 ALL1        8 GROUP        1 Z    ALL  0     ROOT ALL Z 15
     8 SEL2        5 GROUP        1 Z    SEL  0     **** SEL Z 16
     9 GLL5        2 GROUP        1 Z    GLL  0     **** GLL Z 20
@<TRIPOS>SET

