#    Name: 3sw7_19K_1_ligand
#    Modification time : Mon Mar 24 18:39:19 2014

@<TRIPOS>MOLECULE
3sw7_19K_1_ligand
   44    46     1     0     0
SMALL
NO_CHARGES


@<TRIPOS>ATOM
      1 S          13.0150    7.2400  -10.8720 S.3       1 19K299      0.0000 
      2 C1         14.3780    5.3150   -9.3090 C.3       1 19K299      0.0000 
      3 N1         15.2580    6.1370  -11.4630 N.2       1 19K299      0.0000 
      4 O1          7.1530   13.4840  -10.1070 O.2       1 19K299      0.0000 
      5 C2         14.3330    6.1540  -10.5460 C.2       1 19K299      0.0000 
      6 N2         11.3680   10.2960  -14.6630 N.ar      1 19K299      0.0000 
      7 C3         14.9800    7.0000  -12.5100 C.2       1 19K299      0.0000 
      8 N3         10.1430   10.6200  -12.7430 N.pl3     1 19K299      0.0000 
      9 C4         16.0020    7.1620  -13.5850 C.3       1 19K299      0.0000 
     10 N4          8.0820   10.1240   -7.4370 N.3       1 19K299      0.0000 
     11 C5         13.7580    7.6900  -12.3850 C.2       1 19K299      0.0000 
     12 N5          7.1290   12.4640   -9.4340 N.pl3     1 19K299      0.0000 
     13 C6         12.9690    8.5720  -13.2650 C.ar      1 19K299      0.0000 
     14 N6         11.9440    9.1700  -12.6380 N.ar      1 19K299      0.0000 
     15 C7         13.2600    8.7940  -14.6060 C.ar      1 19K299      0.0000 
     16 C8         12.4030    9.6700  -15.2520 C.ar      1 19K299      0.0000 
     17 C9         11.1760   10.0040  -13.3690 C.ar      1 19K299      0.0000 
     18 C10         9.5820   10.5120  -11.4500 C.ar      1 19K299      0.0000 
     19 C11         9.9510    9.4790  -10.5990 C.ar      1 19K299      0.0000 
     20 C12         9.4170    9.3920   -9.3280 C.ar      1 19K299      0.0000 
     21 C13         8.4970   10.3100   -8.8520 C.ar      1 19K299      0.0000 
     22 C14         6.6500    9.7330   -7.2880 C.3       1 19K299      0.0000 
     23 C15         8.4480   11.2710   -6.5530 C.3       1 19K299      0.0000 
     24 C16         8.0820   11.3880   -9.7630 C.ar      1 19K299      0.0000 
     25 C17         8.6630   11.4640  -11.0170 C.ar      1 19K299      0.0000 
     26 O2          6.4730   12.3710   -8.4130 O.2       1 19K299      0.0000 
     27 H           9.6046   11.3855  -13.3738 H         1 19K299      0.0000 
     28 H          14.0257    8.3561  -15.0646 H         1 19K299      0.0000 
     29 H          12.5901    9.8500  -16.2879 H         1 19K299      0.0000 
     30 H          10.6313    8.7705  -10.9221 H         1 19K299      0.0000 
     31 H           9.7167    8.6078   -8.7045 H         1 19K299      0.0000 
     32 H           8.4101   12.2470  -11.6514 H         1 19K299      0.0000 
     33 H          15.1988    4.7447   -9.2767 H         1 19K299      0.0000 
     34 H          14.3773    5.8748   -8.4803 H         1 19K299      0.0000 
     35 H          13.5915    4.7005   -9.2482 H         1 19K299      0.0000 
     36 H          16.8682    7.5083  -13.2248 H         1 19K299      0.0000 
     37 H          16.2004    6.2952  -14.0425 H         1 19K299      0.0000 
     38 H          15.7005    7.8034  -14.2905 H         1 19K299      0.0000 
     39 H           6.4511    8.8685   -7.7495 H         1 19K299      0.0000 
     40 H           6.3943    9.6184   -6.3281 H         1 19K299      0.0000 
     41 H           6.0352   10.4201   -7.6751 H         1 19K299      0.0000 
     42 H           9.4356   11.4272   -6.5370 H         1 19K299      0.0000 
     43 H           8.0213   12.1235   -6.8549 H         1 19K299      0.0000 
     44 H           8.1602   11.1179   -5.6076 H         1 19K299      0.0000 
@<TRIPOS>BOND
     1    5    1 1    
     2   11    1 1    
     3    5    2 1    
     4   33    2 1    
     5   34    2 1    
     6   35    2 1    
     7    5    3 2    
     8    7    3 1    
     9   12    4 2    
    10   16    6 ar   
    11   17    6 ar   
    12    9    7 1    
    13   11    7 2    
    14   17    8 1    
    15   18    8 1    
    16   27    8 1    
    17   36    9 1    
    18   37    9 1    
    19   38    9 1    
    20   21   10 1    
    21   22   10 1    
    22   23   10 1    
    23   13   11 1    
    24   24   12 1    
    25   26   12 2    
    26   14   13 ar   
    27   15   13 ar   
    28   17   14 ar   
    29   16   15 ar   
    30   28   15 1    
    31   29   16 1    
    32   19   18 ar   
    33   25   18 ar   
    34   20   19 ar   
    35   30   19 1    
    36   21   20 ar   
    37   31   20 1    
    38   24   21 ar   
    39   39   22 1    
    40   40   22 1    
    41   41   22 1    
    42   42   23 1    
    43   43   23 1    
    44   44   23 1    
    45   25   24 ar   
    46   32   25 1    
@<TRIPOS>SUBSTRUCTURE
     1 19K299      1 GROUP   
@<TRIPOS>SET

