#    Name: 1yb5_NAP_1_INTS_M
#    Modification time : Tue Mar 25 10:55:12 2014

@<TRIPOS>MOLECULE
1yb5_NAP_1_INTS_M
   91     0     9     0     0
SMALL
NO_CHARGES


@<TRIPOS>ATOM
      1 N          30.0560    5.9195   15.4255 N.am      2 SEC2        0.0000 
      2 N          30.9050    4.8800   14.7950 N.am      8 SEL2        0.0000 
      3 N          29.2070    6.9590   16.0560 N.am      5 SEP2        0.0000 
      4 CA         31.5020    4.5850   18.5580 C.3       3 GLC5        0.0000 
      5 CA         32.2460    2.8010   19.2820 C.3       9 GLL5        0.0000 
      6 CA         30.7580    6.3690   17.8340 C.3       6 GLP5        0.0000 
      7 CA         33.4215    4.3905   18.6150 C.3       3 GLC5        0.0000 
      8 CA         34.5970    5.9800   17.9480 C.3       6 GLP5        0.0000 
      9 N          31.1670    4.9205   19.7705 N.am      2 SEC2        0.0000 
     10 N          31.4830    3.5330   20.2360 N.am      8 SEL2        0.0000 
     11 N          30.8510    6.3080   19.3050 N.am      5 SEP2        0.0000 
     12 O          32.3185    4.4595   20.9165 O.2       1 ALC1        0.0000 
     13 O          31.4830    3.5330   20.2360 O.2       7 ALL1        0.0000 
     14 O          33.1540    5.3860   21.5970 O.2       4 ALP1        0.0000 
     15 CA         30.6775    1.1190   21.3875 C.3       3 GLC5        0.0000 
     16 CA         32.1010    0.6560   20.1990 C.3       9 GLL5        0.0000 
     17 CA         29.2540    1.5820   22.5760 C.3       6 GLP5        0.0000 
     18 CA         33.0880   -1.8695   24.3815 C.3       3 GLC5        0.0000 
     19 CA         32.5430   -3.1990   23.1710 C.3       9 GLL5        0.0000 
     20 CA         33.6330   -0.5400   25.5920 C.3       6 GLP5        0.0000 
     21 N          30.1550   -3.9180   24.0470 N.am      2 SEC2        0.0000 
     22 N          31.2650   -3.0840   23.6770 N.am      8 SEL2        0.0000 
     23 N          29.0450   -4.7520   24.4170 N.am      5 SEP2        0.0000 
     24 CA         29.4425   -1.9780   24.8795 C.3       3 GLC5        0.0000 
     25 CA         30.3750   -2.1020   23.2550 C.3       9 GLL5        0.0000 
     26 CA         28.5100   -1.8540   26.5040 C.3       6 GLP5        0.0000 
     27 CA         29.8145   -0.2600   22.9155 C.3       3 GLC5        0.0000 
     28 CA         32.0040   -1.3210   24.4235 C.3       3 GLC5        0.0000 
     29 CA         29.9735   -3.4505   21.7270 C.3       3 GLC5        0.0000 
     30 CA         29.5720   -4.7990   20.1990 C.3       6 GLP5        0.0000 
     31 CA         30.6415    0.1445   22.1730 C.3       3 GLC5        0.0000 
     32 CA         32.0290   -1.2930   21.7700 C.3       9 GLL5        0.0000 
     33 N          27.2075    5.0695   15.9325 N.am      2 SEC2        0.0000 
     34 N          28.0620    3.8770   15.8310 N.am      8 SEL2        0.0000 
     35 N          26.3530    6.2620   16.0340 N.am      5 SEP2        0.0000 
     36 CA         26.2070    2.5140   15.1285 C.3       3 GLC5        0.0000 
     37 CA         27.5860    0.8710   15.5920 C.3       9 GLL5        0.0000 
     38 CA         24.8280    4.1570   14.6650 C.3       6 GLP5        0.0000 
     39 CA         26.3750    1.0015   17.1830 C.3       3 GLC5        0.0000 
     40 CA         25.1640    1.1320   18.7740 C.3       6 GLP5        0.0000 
     41 CA         27.2060   -0.5280   17.3005 C.3       3 GLC5        0.0000 
     42 CA         27.1320   -0.5170   15.1360 C.3       9 GLL5        0.0000 
     43 CA         27.2800   -0.5390   19.4650 C.3       6 GLP5        0.0000 
     44 CA         26.0690   -2.1925   15.6095 C.3       3 GLC5        0.0000 
     45 CA         25.0060   -3.8680   16.0830 C.3       6 GLP5        0.0000 
     46 N          29.8100   -2.3585   13.7875 N.am      2 SEC2        0.0000 
     47 N          28.1560   -2.4430   14.1630 N.am      8 SEL2        0.0000 
     48 N          31.4640   -2.2740   13.4120 N.am      5 SEP2        0.0000 
     49 N          28.1405   -2.6105   11.6630 N.am      2 SEC2        0.0000 
     50 N          27.1290   -1.7120   11.7220 N.am      8 SEL2        0.0000 
     51 N          29.1520   -3.5090   11.6040 N.am      5 SEP2        0.0000 
     52 CA         23.9895   -0.4530   14.8090 C.3       3 GLC5        0.0000 
     53 CA         25.6120   -0.9730   13.4220 C.3       9 GLL5        0.0000 
     54 CA         22.3670    0.0670   16.1960 C.3       6 GLP5        0.0000 
     55 CA         25.3090   -2.4205   14.7525 C.3       3 GLC5        0.0000 
     56 N          18.6440   -0.2010   10.8950 N.am      2 SEC2        0.0000 
     57 N          19.9770   -0.4920   11.2510 N.am      8 SEL2        0.0000 
     58 N          17.3110    0.0900   10.5390 N.am      5 SEP2        0.0000 
     59 O          21.7310   -2.3715   13.9365 O.2       1 ALC1        0.0000 
     60 O          20.6860   -1.9060   13.0370 O.2       7 ALL1        0.0000 
     61 O          22.7760   -2.8370   14.8360 O.2       4 ALP1        0.0000 
     62 O          19.4720   -2.5900   13.3160 O.2       1 ALC1        0.0000 
     63 O          18.2580   -3.2740   13.5950 O.2       4 ALP1        0.0000 
     64 N          34.2320    4.6015   21.9200 N.am      2 SEC2        0.0000 
     65 N          35.3100    3.8170   22.2430 N.am      8 SEL2        0.0000 
     66 N          33.1540    5.3860   21.5970 N.am      5 SEP2        0.0000 
     67 N          35.6570    3.4470   23.5405 N.am      2 SEC2        0.0000 
     68 N          36.0040    3.0770   24.8380 N.am      5 SEP2        0.0000 
     69 N          35.3110    0.9030   22.7610 N.am      2 SEC2        0.0000 
     70 N          36.0980    1.4980   21.7540 N.am      8 SEL2        0.0000 
     71 N          34.5240    0.3080   23.7680 N.am      5 SEP2        0.0000 
     72 N          36.2850    4.2815   19.3910 N.am      2 SEC2        0.0000 
     73 N          35.7620    3.1090   19.8660 N.am      8 SEL2        0.0000 
     74 N          36.8080    5.4540   18.9160 N.am      5 SEP2        0.0000 
     75 CA         33.6110   -1.1792   23.3927 C.3       3 GLC5        0.0000 
     76 CA         34.7380   -0.5760   24.8030 C.3       6 GLP5        0.0000 
     77 CA         32.2025   -3.6421   21.2407 C.3       3 GLC5        0.0000 
     78 CA         32.9390   -2.2720   22.1950 C.3       9 GLL5        0.0000 
     79 CA         32.0200   -5.2700   20.2550 C.3       6 GLP5        0.0000 
     80 CA         28.8370   -0.4715   12.0407 C.3       3 GLC5        0.0000 
     81 CA         27.9250   -1.0420   13.9270 C.3       9 GLL5        0.0000 
     82 CA         30.2190   -0.0200   10.7350 C.3       6 GLP5        0.0000 
     83 CA         22.5765   -0.2420   14.3148 C.3       3 GLC5        0.0000 
     84 CA         23.3320   -0.8780   12.6940 C.3       9 GLL5        0.0000 
     85 CA         21.6298    1.8109   12.9710 C.3       3 GLC5        0.0000 
     86 CA         23.5780    1.7700   11.8640 C.3       9 GLL5        0.0000 
     87 CA         20.3220    2.5150   14.0350 C.3       6 GLP5        0.0000 
     88 CA         24.4690    2.7940   13.4015 C.3       3 GLC5        0.0000 
     89 CA         23.4935    2.7216   10.8539 C.3       3 GLC5        0.0000 
     90 CA         24.6420    1.0920   12.4120 C.3       9 GLL5        0.0000 
     91 CA         23.1830    4.1770    9.6040 C.3       6 GLP5        0.0000 
@<TRIPOS>BOND
@<TRIPOS>SUBSTRUCTURE
     1 ALC1       12 GROUP        1 X    ALC  0     ROOT ALC X 1
     2 SEC2        1 GROUP        1 X    SEC  0     **** SEC X 2
     3 GLC5        4 GROUP        1 X    GLC  0     **** GLC X 6
     4 ALP1       14 GROUP        1 Y    ALP  0     ROOT ALP Y 8
     5 SEP2        3 GROUP        1 Y    SEP  0     **** SEP Y 9
     6 GLP5        6 GROUP        1 Y    GLP  0     **** GLP Y 13
     7 ALL1       13 GROUP        1 Z    ALL  0     ROOT ALL Z 15
     8 SEL2        2 GROUP        1 Z    SEL  0     **** SEL Z 16
     9 GLL5        5 GROUP        1 Z    GLL  0     **** GLL Z 20
@<TRIPOS>SET

