#    Name: 1yb5_NAP_1_ligand
#    Modification time : Tue Mar 25 10:55:12 2014

@<TRIPOS>MOLECULE
1yb5_NAP_1_ligand
   73    77     1     0     0
SMALL
NO_CHARGES


@<TRIPOS>ATOM
      1 PA         31.1230    3.4430   15.0310 P.3       1 NAP801      0.0000 
      2 O1A        32.2540    2.7950   14.3540 O.co2     1 NAP801      0.0000 
      3 O2A        30.9050    4.8800   14.7950 O.co2     1 NAP801      0.0000 
      4 O5B        31.2030    3.1720   16.5950 O.3       1 NAP801      0.0000 
      5 C5B        31.5690    1.8730   17.0370 C.3       1 NAP801      0.0000 
      6 C4B        31.2680    1.9010   18.5220 C.3       1 NAP801      0.0000 
      7 O4B        31.3790    0.5820   19.0150 O.3       1 NAP801      0.0000 
      8 C3B        32.2460    2.8010   19.2820 C.3       1 NAP801      0.0000 
      9 O3B        31.4830    3.5330   20.2360 O.3       1 NAP801      0.0000 
     10 C2B        33.1300    1.7740   19.9560 C.3       1 NAP801      0.0000 
     11 O2B        33.7370    2.2340   21.1520 O.3       1 NAP801      0.0000 
     12 C1B        32.1010    0.6560   20.1990 C.3       1 NAP801      0.0000 
     13 N9A        32.6850   -0.5460   20.8180 N.pl3     1 NAP801      0.0000 
     14 C8A        33.9670   -1.0640   20.6570 C.2       1 NAP801      0.0000 
     15 N7A        34.0840   -2.1250   21.4820 N.2       1 NAP801      0.0000 
     16 C5A        32.9390   -2.2720   22.1950 C.ar      1 NAP801      0.0000 
     17 C6A        32.5430   -3.1990   23.1710 C.ar      1 NAP801      0.0000 
     18 N6A        33.3770   -4.1730   23.6040 N.pl3     1 NAP801      0.0000 
     19 N1A        31.2650   -3.0840   23.6770 N.ar      1 NAP801      0.0000 
     20 C2A        30.3750   -2.1020   23.2550 C.ar      1 NAP801      0.0000 
     21 N3A        30.7650   -1.2010   22.2920 N.ar      1 NAP801      0.0000 
     22 C4A        32.0290   -1.2930   21.7700 C.ar      1 NAP801      0.0000 
     23 O3         29.8190    2.6160   14.5710 O.3       1 NAP801      0.0000 
     24 PN         28.3130    3.1900   14.5380 P.3       1 NAP801      0.0000 
     25 O1N        28.0620    3.8770   15.8310 O.co2     1 NAP801      0.0000 
     26 O2N        28.0050    3.8410   13.2430 O.co2     1 NAP801      0.0000 
     27 O5D        27.5380    1.7790   14.5090 O.3       1 NAP801      0.0000 
     28 C5D        27.5860    0.8710   15.5920 C.3       1 NAP801      0.0000 
     29 C4D        27.1320   -0.5170   15.1360 C.3       1 NAP801      0.0000 
     30 O4D        25.7700   -0.4850   14.7410 O.3       1 NAP801      0.0000 
     31 C3D        27.9250   -1.0420   13.9270 C.3       1 NAP801      0.0000 
     32 O3D        28.1560   -2.4430   14.1630 O.3       1 NAP801      0.0000 
     33 C2D        26.9850   -0.8040   12.7660 C.3       1 NAP801      0.0000 
     34 O2D        27.1290   -1.7120   11.7220 O.3       1 NAP801      0.0000 
     35 C1D        25.6120   -0.9730   13.4220 C.3       1 NAP801      0.0000 
     36 N1N        24.5150   -0.2190   12.7990 N.pl3     1 NAP801      0.0000 
     37 C2N        23.3320   -0.8780   12.6940 C.ar      1 NAP801      0.0000 
     38 C3N        22.2400   -0.2240   12.1730 C.ar      1 NAP801      0.0000 
     39 C7N        20.9360   -0.9510   12.1370 C.2       1 NAP801      0.0000 
     40 O7N        19.9770   -0.4920   11.2510 O.2       1 NAP801      0.0000 
     41 N7N        20.6860   -1.9060   13.0370 N.am      1 NAP801      0.0000 
     42 C4N        22.3540    1.1110   11.7270 C.ar      1 NAP801      0.0000 
     43 C5N        23.5780    1.7700   11.8640 C.ar      1 NAP801      0.0000 
     44 C6N        24.6420    1.0920   12.4120 C.ar      1 NAP801      0.0000 
     45 P2B        35.2980    2.6740   21.2490 P.3       1 NAP801      0.0000 
     46 O1X        35.3100    3.8170   22.2430 O.co2     1 NAP801      0.0000 
     47 O2X        36.0980    1.4980   21.7540 O.co2     1 NAP801      0.0000 
     48 O3X        35.7620    3.1090   19.8660 O.co2     1 NAP801      0.0000 
     49 H          32.6173    1.6766   16.9062 H         1 NAP801      0.0000 
     50 H          30.9720    1.1033   16.5835 H         1 NAP801      0.0000 
     51 H          30.2720    2.2865   18.6635 H         1 NAP801      0.0000 
     52 H          32.7822    3.3597   18.6081 H         1 NAP801      0.0000 
     53 H          33.8138    1.4044   19.2210 H         1 NAP801      0.0000 
     54 H          31.4127    1.1438   20.9890 H         1 NAP801      0.0000 
     55 H          34.6249   -0.7140   20.0643 H         1 NAP801      0.0000 
     56 H          33.0152   -4.7795   24.3120 H         1 NAP801      0.0000 
     57 H          34.2811   -4.1998   23.1776 H         1 NAP801      0.0000 
     58 H          29.4334   -2.0559   23.6646 H         1 NAP801      0.0000 
     59 H          26.9288    1.1776   16.4183 H         1 NAP801      0.0000 
     60 H          28.6014    0.7678   16.0005 H         1 NAP801      0.0000 
     61 H          27.2758   -1.2161   15.9493 H         1 NAP801      0.0000 
     62 H          28.7872   -0.4728   13.8269 H         1 NAP801      0.0000 
     63 H          27.0624    0.2235   12.4794 H         1 NAP801      0.0000 
     64 H          25.3828   -2.0265   13.4510 H         1 NAP801      0.0000 
     65 H          23.2454   -1.8596   12.9999 H         1 NAP801      0.0000 
     66 H          21.4058   -2.0755   13.7102 H         1 NAP801      0.0000 
     67 H          19.8015   -2.3657   12.9567 H         1 NAP801      0.0000 
     68 H          21.5522    1.5800   11.3128 H         1 NAP801      0.0000 
     69 H          23.6717    2.7414   11.5587 H         1 NAP801      0.0000 
     70 H          25.5518    1.5788   12.5339 H         1 NAP801      0.0000 
     71 H          32.1387    4.1469   20.6755 H         1 NAP801      0.0000 
     72 H          27.7060   -2.9111   13.4024 H         1 NAP801      0.0000 
     73 H          26.2269   -1.7581   11.2929 H         1 NAP801      0.0000 
@<TRIPOS>BOND
     1    2    1 ar   
     2    3    1 ar   
     3    4    1 1    
     4   23    1 1    
     5    5    4 1    
     6    6    5 1    
     7   49    5 1    
     8   50    5 1    
     9    7    6 1    
    10    8    6 1    
    11   51    6 1    
    12   12    7 1    
    13    9    8 1    
    14   10    8 1    
    15   52    8 1    
    16   71    9 1    
    17   11   10 1    
    18   12   10 1    
    19   53   10 1    
    20   45   11 1    
    21   13   12 1    
    22   54   12 1    
    23   14   13 1    
    24   22   13 1    
    25   15   14 2    
    26   55   14 1    
    27   16   15 1    
    28   17   16 ar   
    29   22   16 ar   
    30   18   17 1    
    31   19   17 ar   
    32   56   18 1    
    33   57   18 1    
    34   20   19 ar   
    35   21   20 ar   
    36   58   20 1    
    37   22   21 ar   
    38   24   23 1    
    39   25   24 ar   
    40   26   24 ar   
    41   27   24 1    
    42   28   27 1    
    43   29   28 1    
    44   59   28 1    
    45   60   28 1    
    46   30   29 1    
    47   31   29 1    
    48   61   29 1    
    49   35   30 1    
    50   32   31 1    
    51   33   31 1    
    52   62   31 1    
    53   72   32 1    
    54   34   33 1    
    55   35   33 1    
    56   63   33 1    
    57   73   34 1    
    58   36   35 1    
    59   64   35 1    
    60   37   36 ar   
    61   44   36 ar   
    62   38   37 ar   
    63   65   37 1    
    64   39   38 1    
    65   42   38 ar   
    66   40   39 2    
    67   41   39 am   
    68   66   41 1    
    69   67   41 1    
    70   43   42 ar   
    71   68   42 1    
    72   44   43 ar   
    73   69   43 1    
    74   70   44 1    
    75   46   45 ar   
    76   47   45 ar   
    77   48   45 ar   
@<TRIPOS>SUBSTRUCTURE
     1 NAP801      1 GROUP   
@<TRIPOS>SET

