#    Name: 3tox_NAP_7_INTS_M
#    Modification time : Mon Mar 24 20:44:54 2014

@<TRIPOS>MOLECULE
3tox_NAP_7_INTS_M
  100     0    12     0     0
SMALL
NO_CHARGES


@<TRIPOS>ATOM
      1 N          -7.6310    2.4620   48.7950 N.am      2 SEC2        0.0000 
      2 N          -6.8430    1.6460   49.3780 N.am     10 SEL2        0.0000 
      3 N          -8.4190    3.2780   48.2120 N.am      6 SEP2        0.0000 
      4 N          -8.7695    1.7795   52.1225 N.am      2 SEC2        0.0000 
      5 N          -7.7310    2.5560   51.6490 N.am     10 SEL2        0.0000 
      6 N          -9.8080    1.0030   52.5960 N.am      6 SEP2        0.0000 
      7 N         -11.4275    5.3120   51.4830 N.am      2 SEC2        0.0000 
      8 N          -9.8660    5.2830   51.8650 N.am     10 SEL2        0.0000 
      9 N         -12.9890    5.3410   51.1010 N.am      6 SEP2        0.0000 
     10 N         -10.5980    4.6865   50.5600 N.am      2 SEC2        0.0000 
     11 N         -11.3300    4.0900   49.2550 N.am      6 SEP2        0.0000 
     12 O         -10.3700    6.2360   51.1500 O.2       1 ALC1        0.0000 
     13 O          -9.8660    5.2830   51.8650 O.2       9 ALL1        0.0000 
     14 O         -10.8740    7.1890   50.4350 O.2       5 ALP1        0.0000 
     15 CA         -8.7695    5.0300   56.4105 C.3       4 GLC5        0.0000 
     16 CA         -8.2930    6.1790   54.5630 C.3      12 GLL5        0.0000 
     17 CA         -9.2460    3.8810   58.2580 C.3       8 GLP5        0.0000 
     18 N          -9.2735   10.9810   58.8305 N.am      2 SEC2        0.0000 
     19 N          -8.4680   10.5260   57.6560 N.am     10 SEL2        0.0000 
     20 N         -10.0790   11.4360   60.0050 N.am      6 SEP2        0.0000 
     21 CA        -11.3180    9.4955   55.7345 C.3       4 GLC5        0.0000 
     22 CA         -9.6470    9.7540   57.1440 C.3      12 GLL5        0.0000 
     23 CA        -12.9890    9.2370   54.3250 C.3       8 GLP5        0.0000 
     24 CA         -9.3340   11.3630   56.1720 C.3       4 GLC5        0.0000 
     25 CA         -9.0210   12.9720   55.2000 C.3       8 GLP5        0.0000 
     26 CA         -9.8490   11.7040   58.0970 C.3       4 GLC5        0.0000 
     27 CA        -10.0510   13.6540   59.0500 C.3       8 GLP5        0.0000 
     28 CA         -9.9955    9.4050   58.6790 C.3       4 GLC5        0.0000 
     29 CA        -10.3440    9.0560   60.2140 C.3       8 GLP5        0.0000 
     30 CA         -8.8240    6.7385   57.4760 C.3       4 GLC5        0.0000 
     31 CA         -7.9540    8.2510   56.0800 C.3      12 GLL5        0.0000 
     32 CA         -9.6940    5.2260   58.8720 C.3       8 GLP5        0.0000 
     33 N          -5.1525   -1.5830   50.6380 N.am      2 SEC2        0.0000 
     34 N          -5.5670   -1.7480   52.0360 N.am     10 SEL2        0.0000 
     35 N          -4.7380   -1.4180   49.2400 N.am      6 SEP2        0.0000 
     36 N          -9.0780   -1.3075   51.1265 N.am      2 SEC2        0.0000 
     37 N          -7.8950   -0.7820   51.5760 N.am     10 SEL2        0.0000 
     38 N         -10.2610   -1.8330   50.6770 N.am      6 SEP2        0.0000 
     39 CA         -8.9355   -1.8955   53.6850 C.3       4 GLC5        0.0000 
     40 CA         -7.6870   -0.5670   54.6150 C.3      12 GLL5        0.0000 
     41 CA        -10.1840   -3.2240   52.7550 C.3       8 GLP5        0.0000 
     42 CA         -5.7235    1.8925   57.3180 C.3       4 GLC5        0.0000 
     43 CA         -5.9890    0.0720   56.4330 C.3      12 GLL5        0.0000 
     44 CA         -5.4580    3.7130   58.2030 C.3       8 GLP5        0.0000 
     45 N          -5.5505    0.1575   59.1160 N.am      2 SEC2        0.0000 
     46 N          -6.2190    0.3060   57.8570 N.am     10 SEL2        0.0000 
     47 N          -4.8820    0.0090   60.3750 N.am      6 SEP2        0.0000 
     48 O          -7.6370    0.7775   57.7390 O.2       1 ALC1        0.0000 
     49 O          -6.2190    0.3060   57.8570 O.2       9 ALL1        0.0000 
     50 O          -9.0550    1.2490   57.6210 O.2       5 ALP1        0.0000 
     51 N          -2.4390   -1.0095   57.0850 N.am      2 SEC2        0.0000 
     52 N          -3.4540   -0.1610   56.7400 N.am     10 SEL2        0.0000 
     53 N          -1.4240   -1.8580   57.4300 N.am      6 SEP2        0.0000 
     54 CA         -6.4675   -2.7705   57.3895 C.3       4 GLC5        0.0000 
     55 CA         -5.0300   -2.0730   56.3610 C.3      12 GLL5        0.0000 
     56 CA         -7.9050   -3.4680   58.4180 C.3       8 GLP5        0.0000 
     57 CA         -5.8825   -3.7915   53.7170 C.3       4 GLC5        0.0000 
     58 CA         -3.9300   -3.2080   54.3630 C.3      12 GLL5        0.0000 
     59 CA         -7.8350   -4.3750   53.0710 C.3       8 GLP5        0.0000 
     60 N          -2.6910   -6.0770   51.0440 N.am      2 SEC2        0.0000 
     61 N          -2.0560   -5.0950   51.9190 N.am     10 SEL2        0.0000 
     62 N          -3.3260   -7.0590   50.1690 N.am      6 SEP2        0.0000 
     63 CA         -4.2120   -6.1845   55.1630 C.3       4 GLC5        0.0000 
     64 CA         -2.4090   -5.0250   54.7660 C.3      12 GLL5        0.0000 
     65 CA         -6.0150   -7.3440   55.5600 C.3       8 GLP5        0.0000 
     66 NZ         -6.5330    9.8465   52.5160 N.4       3 LYC4        0.0000 
     67 NZ         -7.5950    9.0440   51.7490 N.4      11 LYL4        0.0000 
     68 NZ         -5.7470   11.6720   54.0780 N.4       7 LYP4        0.0000 
     69 N          -6.5330    9.8465   52.5160 N.am      2 SEC2        0.0000 
     70 N          -7.5950    9.0440   51.7490 N.am     10 SEL2        0.0000 
     71 N          -5.4710   10.6490   53.2830 N.am      6 SEP2        0.0000 
     72 N         -10.2760   10.3250   53.7010 N.am      2 SEC2        0.0000 
     73 N          -9.2190    9.6690   53.5470 N.am     10 SEL2        0.0000 
     74 N         -11.3330   10.9810   53.8550 N.am      6 SEP2        0.0000 
     75 N          -8.1115   10.7605   54.0105 N.am      2 SEC2        0.0000 
     76 N          -7.0040   11.8520   54.4740 N.am      6 SEP2        0.0000 
     77 N         -10.4455    8.3015   50.8130 N.am      2 SEC2        0.0000 
     78 N         -10.0170    9.4140   51.1910 N.am     10 SEL2        0.0000 
     79 N         -10.8740    7.1890   50.4350 N.am      6 SEP2        0.0000 
     80 N         -10.6960   10.7365   51.2190 N.am      2 SEC2        0.0000 
     81 N         -11.3750   12.0590   51.2470 N.am      6 SEP2        0.0000 
     82 CA         -7.2817   11.2635   56.1400 C.3       4 GLC5        0.0000 
     83 CA         -6.9410    9.0380   56.5610 C.3      12 GLL5        0.0000 
     84 CA         -7.4830   12.9320   55.3340 C.3       8 GLP5        0.0000 
     85 CA         -5.8128    8.6375   58.1395 C.3       4 GLC5        0.0000 
     86 CA         -7.2200   10.1520   57.3310 C.3      12 GLL5        0.0000 
     87 CA         -4.5450    7.6800   59.3330 C.3       8 GLP5        0.0000 
     88 CA         -8.1751    8.7920   58.3435 C.3       4 GLC5        0.0000 
     89 CA         -8.8330    8.6610   60.1740 C.3       8 GLP5        0.0000 
     90 CA         -7.2033   -1.9597   57.3020 C.3       4 GLC5        0.0000 
     91 CA         -4.1580   -0.9030   58.2230 C.3       4 GLC5        0.0000 
     92 CA         -3.4860   -0.4580   60.2380 C.3       8 GLP5        0.0000 
     93 CA         -2.3312   -4.6883   58.0175 C.3       4 GLC5        0.0000 
     94 CA         -3.4940   -4.0150   56.7080 C.3      12 GLL5        0.0000 
     95 CA         -1.6050   -4.8820   59.5960 C.3       8 GLP5        0.0000 
     96 CA         -4.5143   -5.5968   57.1645 C.3       4 GLC5        0.0000 
     97 CA         -5.9710   -6.6990   57.8900 C.3       8 GLP5        0.0000 
     98 CA         -9.9718    5.0389   54.3245 C.3       4 GLC5        0.0000 
     99 CA         -8.5130    5.2650   52.3370 C.3      12 GLL5        0.0000 
    100 CA        -11.5750    4.5420   55.3110 C.3       8 GLP5        0.0000 
@<TRIPOS>BOND
@<TRIPOS>SUBSTRUCTURE
     1 ALC1       12 GROUP        1 X    ALC  0     ROOT ALC X 1
     2 SEC2        1 GROUP        1 X    SEC  0     **** SEC X 2
     3 LYC4       66 GROUP        1 X    LYC  0     **** LYC X 4
     4 GLC5       15 GROUP        1 X    GLC  0     **** GLC X 6
     5 ALP1       14 GROUP        1 Y    ALP  0     ROOT ALP Y 8
     6 SEP2        3 GROUP        1 Y    SEP  0     **** SEP Y 9
     7 LYP4       68 GROUP        1 Y    LYP  0     **** LYP Y 11
     8 GLP5       17 GROUP        1 Y    GLP  0     **** GLP Y 13
     9 ALL1       13 GROUP        1 Z    ALL  0     ROOT ALL Z 15
    10 SEL2        2 GROUP        1 Z    SEL  0     **** SEL Z 16
    11 LYL4       67 GROUP        1 Z    LYL  0     **** LYL Z 18
    12 GLL5       16 GROUP        1 Z    GLL  0     **** GLL Z 20
@<TRIPOS>SET

