#    Name: 3tox_NAP_7_ligand
#    Modification time : Mon Mar 24 20:44:54 2014

@<TRIPOS>MOLECULE
3tox_NAP_7_ligand
   73    77     1     0     0
SMALL
NO_CHARGES


@<TRIPOS>ATOM
      1 PA         -6.4350    2.0840   50.7220 P.3       1 NAP601      0.0000 
      2 O1A        -5.4320    3.1610   50.8960 O.co2     1 NAP601      0.0000 
      3 O2A        -6.8430    1.6460   49.3780 O.co2     1 NAP601      0.0000 
      4 O5B        -7.7310    2.5560   51.6490 O.3       1 NAP601      0.0000 
      5 C5B        -7.3730    3.1360   52.9340 C.3       1 NAP601      0.0000 
      6 C4B        -8.4180    4.1580   53.3970 C.3       1 NAP601      0.0000 
      7 O4B        -7.9660    4.7350   54.5840 O.3       1 NAP601      0.0000 
      8 C3B        -8.5130    5.2650   52.3370 C.3       1 NAP601      0.0000 
      9 O3B        -9.8660    5.2830   51.8650 O.3       1 NAP601      0.0000 
     10 C2B        -8.2500    6.5410   53.0550 C.3       1 NAP601      0.0000 
     11 O2B        -9.3020    7.5150   52.6610 O.3       1 NAP601      0.0000 
     12 C1B        -8.2930    6.1790   54.5630 C.3       1 NAP601      0.0000 
     13 N9A        -7.4120    7.2280   55.3600 N.pl3     1 NAP601      0.0000 
     14 C8A        -6.0680    7.3820   55.3940 C.2       1 NAP601      0.0000 
     15 N7A        -5.7830    8.4730   56.1200 N.2       1 NAP601      0.0000 
     16 C5A        -6.9410    9.0380   56.5610 C.ar      1 NAP601      0.0000 
     17 C6A        -7.2200   10.1520   57.3310 C.ar      1 NAP601      0.0000 
     18 N6A        -6.2030   10.8670   57.8180 N.pl3     1 NAP601      0.0000 
     19 N1A        -8.4680   10.5260   57.6560 N.ar      1 NAP601      0.0000 
     20 C2A        -9.6470    9.7540   57.1440 C.ar      1 NAP601      0.0000 
     21 N3A        -9.2640    8.5520   56.3510 N.ar      1 NAP601      0.0000 
     22 C4A        -7.9540    8.2510   56.0800 C.ar      1 NAP601      0.0000 
     23 O3         -5.7560    0.7490   51.5290 O.3       1 NAP601      0.0000 
     24 PN         -6.5500   -0.6100   52.1260 P.3       1 NAP601      0.0000 
     25 O1N        -5.5670   -1.7480   52.0360 O.co2     1 NAP601      0.0000 
     26 O2N        -7.8950   -0.7820   51.5760 O.co2     1 NAP601      0.0000 
     27 O5D        -6.6830   -0.0640   53.7070 O.3       1 NAP601      0.0000 
     28 C5D        -7.6870   -0.5670   54.6150 C.3       1 NAP601      0.0000 
     29 C4D        -7.0140   -0.9750   55.9390 C.3       1 NAP601      0.0000 
     30 O4D        -6.2520   -2.1680   55.6410 O.3       1 NAP601      0.0000 
     31 C3D        -5.9890    0.0720   56.4330 C.3       1 NAP601      0.0000 
     32 O3D        -6.2190    0.3060   57.8570 O.3       1 NAP601      0.0000 
     33 C2D        -4.6300   -0.6230   56.0550 C.3       1 NAP601      0.0000 
     34 O2D        -3.4540   -0.1610   56.7400 O.3       1 NAP601      0.0000 
     35 C1D        -5.0300   -2.0730   56.3610 C.3       1 NAP601      0.0000 
     36 N1N        -4.1060   -3.1010   55.7970 N.pl3     1 NAP601      0.0000 
     37 C2N        -3.9300   -3.2080   54.3630 C.ar      1 NAP601      0.0000 
     38 C3N        -3.0530   -4.1670   53.8270 C.ar      1 NAP601      0.0000 
     39 C7N        -2.8350   -4.2710   52.4090 C.2       1 NAP601      0.0000 
     40 O7N        -2.0560   -5.0950   51.9190 O.2       1 NAP601      0.0000 
     41 N7N        -3.4940   -3.3880   51.6110 N.am      1 NAP601      0.0000 
     42 C4N        -2.4090   -5.0250   54.7660 C.ar      1 NAP601      0.0000 
     43 C5N        -2.6210   -4.9740   56.1700 C.ar      1 NAP601      0.0000 
     44 C6N        -3.4940   -4.0150   56.7080 C.ar      1 NAP601      0.0000 
     45 P2B        -8.9880    9.0580   52.2300 P.3       1 NAP601      0.0000 
     46 O1X        -7.5950    9.0440   51.7490 O.co2     1 NAP601      0.0000 
     47 O2X        -9.2190    9.6690   53.5470 O.co2     1 NAP601      0.0000 
     48 O3X       -10.0170    9.4140   51.1910 O.co2     1 NAP601      0.0000 
     49 H          -6.4017    3.6475   52.8791 H         1 NAP601      0.0000 
     50 H          -7.2932    2.3602   53.7085 H         1 NAP601      0.0000 
     51 H          -9.3529    3.6825   53.4828 H         1 NAP601      0.0000 
     52 H          -7.8118    5.0950   51.5946 H         1 NAP601      0.0000 
     53 H          -7.2811    6.8894   52.8142 H         1 NAP601      0.0000 
     54 H          -9.3422    6.3280   54.8515 H         1 NAP601      0.0000 
     55 H          -5.4267    6.7993   54.9646 H         1 NAP601      0.0000 
     56 H          -6.4493   11.6485   58.3912 H         1 NAP601      0.0000 
     57 H          -5.2864   10.5567   57.5658 H         1 NAP601      0.0000 
     58 H         -10.5406   10.0079   57.3100 H         1 NAP601      0.0000 
     59 H          -8.1893   -1.4472   54.2119 H         1 NAP601      0.0000 
     60 H          -8.4386    0.1897   54.8430 H         1 NAP601      0.0000 
     61 H          -7.7343   -1.1517   56.6748 H         1 NAP601      0.0000 
     62 H          -6.1035    0.9274   55.8270 H         1 NAP601      0.0000 
     63 H          -4.5716   -0.5575   54.9721 H         1 NAP601      0.0000 
     64 H          -5.1837   -2.1840   57.3857 H         1 NAP601      0.0000 
     65 H          -4.4518   -2.5778   53.7573 H         1 NAP601      0.0000 
     66 H          -4.1065   -2.7479   52.0749 H         1 NAP601      0.0000 
     67 H          -3.3078   -3.4569   50.6309 H         1 NAP601      0.0000 
     68 H          -1.7369   -5.7380   54.3952 H         1 NAP601      0.0000 
     69 H          -2.1378   -5.6341   56.7777 H         1 NAP601      0.0000 
     70 H          -3.6871   -3.9645   57.6888 H         1 NAP601      0.0000 
     71 H          -9.9576    6.1500   51.3752 H         1 NAP601      0.0000 
     72 H          -6.8993    1.0381   57.8923 H         1 NAP601      0.0000 
     73 H          -2.8176    0.1000   56.0141 H         1 NAP601      0.0000 
@<TRIPOS>BOND
     1    2    1 ar   
     2    3    1 ar   
     3    4    1 1    
     4   23    1 1    
     5    5    4 1    
     6    6    5 1    
     7   49    5 1    
     8   50    5 1    
     9    7    6 1    
    10    8    6 1    
    11   51    6 1    
    12   12    7 1    
    13    9    8 1    
    14   10    8 1    
    15   52    8 1    
    16   71    9 1    
    17   11   10 1    
    18   12   10 1    
    19   53   10 1    
    20   45   11 1    
    21   13   12 1    
    22   54   12 1    
    23   14   13 1    
    24   22   13 1    
    25   15   14 2    
    26   55   14 1    
    27   16   15 1    
    28   17   16 ar   
    29   22   16 ar   
    30   18   17 1    
    31   19   17 ar   
    32   56   18 1    
    33   57   18 1    
    34   20   19 ar   
    35   21   20 ar   
    36   58   20 1    
    37   22   21 ar   
    38   24   23 1    
    39   25   24 ar   
    40   26   24 ar   
    41   27   24 1    
    42   28   27 1    
    43   29   28 1    
    44   59   28 1    
    45   60   28 1    
    46   30   29 1    
    47   31   29 1    
    48   61   29 1    
    49   35   30 1    
    50   32   31 1    
    51   33   31 1    
    52   62   31 1    
    53   72   32 1    
    54   34   33 1    
    55   35   33 1    
    56   63   33 1    
    57   73   34 1    
    58   36   35 1    
    59   64   35 1    
    60   37   36 ar   
    61   44   36 ar   
    62   38   37 ar   
    63   65   37 1    
    64   39   38 1    
    65   42   38 ar   
    66   40   39 2    
    67   41   39 am   
    68   66   41 1    
    69   67   41 1    
    70   43   42 ar   
    71   68   42 1    
    72   44   43 ar   
    73   69   43 1    
    74   70   44 1    
    75   46   45 ar   
    76   47   45 ar   
    77   48   45 ar   
@<TRIPOS>SUBSTRUCTURE
     1 NAP601      1 GROUP   
@<TRIPOS>SET

