#    Name: 3tvu_B37_3_INTS_M
#    Modification time : Mon Mar 24 21:02:38 2014

@<TRIPOS>MOLECULE
3tvu_B37_3_INTS_M
   79     0     6     0     0
SMALL
NO_CHARGES


@<TRIPOS>ATOM
      1 CA         47.3685  -47.1845   17.7400 C.3       2 GLC5        0.0000 
      2 CA         46.2610  -45.8400   18.8360 C.3       6 GLL5        0.0000 
      3 CA         48.4760  -48.5290   16.6440 C.3       4 GLP5        0.0000 
      4 CA         43.5645  -51.6925   26.1580 C.3       2 GLC5        0.0000 
      5 CA         42.7110  -50.4110   24.8710 C.3       6 GLL5        0.0000 
      6 CA         44.4180  -52.9740   27.4450 C.3       4 GLP5        0.0000 
      7 CA         46.4440  -49.7110   22.3590 C.3       2 GLC5        0.0000 
      8 CA         44.6390  -48.5020   22.4540 C.3       6 GLL5        0.0000 
      9 CA         48.2490  -50.9200   22.2640 C.3       4 GLP5        0.0000 
     10 CA         43.4685  -45.5565   25.9215 C.3       2 GLC5        0.0000 
     11 CA         43.6110  -46.4750   23.9960 C.3       6 GLL5        0.0000 
     12 CA         43.3260  -44.6380   27.8470 C.3       4 GLP5        0.0000 
     13 CA         42.5415  -49.5165   28.5330 C.3       2 GLC5        0.0000 
     14 CA         41.3400  -49.6920   26.7770 C.3       6 GLL5        0.0000 
     15 CA         43.7430  -49.3410   30.2890 C.3       4 GLP5        0.0000 
     16 CA         41.5945  -45.2470   17.5585 C.3       2 GLC5        0.0000 
     17 CA         43.4530  -46.1760   18.1300 C.3       6 GLL5        0.0000 
     18 CA         39.7360  -44.3180   16.9870 C.3       4 GLP5        0.0000 
     19 CA         45.7300  -43.4350   16.4150 C.3       2 GLC5        0.0000 
     20 CA         45.6110  -45.0470   17.7120 C.3       6 GLL5        0.0000 
     21 CA         45.8490  -41.8230   15.1180 C.3       4 GLP5        0.0000 
     22 CA         42.7220  -49.0715   13.3125 C.3       2 GLC5        0.0000 
     23 CA         41.4750  -47.8550   14.4210 C.3       6 GLL5        0.0000 
     24 CA         43.9690  -50.2880   12.2040 C.3       4 GLP5        0.0000 
     25 CA         45.8365  -48.6070   15.4735 C.3       2 GLC5        0.0000 
     26 CA         43.7320  -48.6410   15.7290 C.3       6 GLL5        0.0000 
     27 CA         47.9410  -48.5730   15.2180 C.3       4 GLP5        0.0000 
     28 CA         38.5605  -47.4335   13.9310 C.3       2 GLC5        0.0000 
     29 CA         40.0990  -46.0990   13.5000 C.3       6 GLL5        0.0000 
     30 CA         37.0220  -48.7680   14.3620 C.3       4 GLP5        0.0000 
     31 CA         40.9220  -52.1480   17.5130 C.3       2 GLC5        0.0000 
     32 CA         41.9230  -53.0910   15.9870 C.3       6 GLL5        0.0000 
     33 CA         39.9210  -51.2050   19.0390 C.3       4 GLP5        0.0000 
     34 CA         43.0365  -51.7575   13.9375 C.3       2 GLC5        0.0000 
     35 CA         41.7890  -51.7410   15.7200 C.3       6 GLL5        0.0000 
     36 CA         44.2840  -51.7740   12.1550 C.3       4 GLP5        0.0000 
     37 N          46.8960  -46.1725   14.8960 N.am      1 SEC2        0.0000 
     38 N          45.5200  -46.1460   15.1520 N.am      5 SEL2        0.0000 
     39 N          48.2720  -46.1990   14.6400 N.am      3 SEP2        0.0000 
     40 CA         44.6302  -47.4198   25.7933 C.3       2 GLC5        0.0000 
     41 CA         45.8110  -47.7100   27.4260 C.3       4 GLP5        0.0000 
     42 CA         44.4808  -49.7473   25.5820 C.3       2 GLC5        0.0000 
     43 CA         46.4960  -49.6060   25.9190 C.3       4 GLP5        0.0000 
     44 CA         47.2308  -47.8312   21.8773 C.3       2 GLC5        0.0000 
     45 CA         44.9560  -47.1980   22.1500 C.3       6 GLL5        0.0000 
     46 CA         49.0470  -48.5950   22.1770 C.3       4 GLP5        0.0000 
     47 CA         42.6225  -45.0263   19.4068 C.3       2 GLC5        0.0000 
     48 CA         44.0630  -46.9230   19.2970 C.3       6 GLL5        0.0000 
     49 CA         41.4870  -43.5030   20.1000 C.3       4 GLP5        0.0000 
     50 CA         42.7890  -48.0512   18.6803 C.3       2 GLC5        0.0000 
     51 CA         41.8200  -49.5530   18.6470 C.3       4 GLP5        0.0000 
     52 CA         42.3760  -49.2401   21.9322 C.3       2 GLC5        0.0000 
     53 CA         43.8170  -48.7850   23.5230 C.3       6 GLL5        0.0000 
     54 CA         40.5960  -49.5070   20.8050 C.3       4 GLP5        0.0000 
     55 CA         45.3260  -49.2896   24.4893 C.3       2 GLC5        0.0000 
     56 CA         43.5290  -50.1040   23.8070 C.3       6 GLL5        0.0000 
     57 CA         41.9961  -46.1281   23.0936 C.3       2 GLC5        0.0000 
     58 CA         40.0490  -45.6030   22.6420 C.3       4 GLP5        0.0000 
     59 CA         40.1604  -50.5661   25.2410 C.3       2 GLC5        0.0000 
     60 CA         42.2200  -49.3660   25.6190 C.3       6 GLL5        0.0000 
     61 CA         38.4180  -51.3420   24.4710 C.3       4 GLP5        0.0000 
     62 CA         42.7267  -48.7615   17.1270 C.3       2 GLC5        0.0000 
     63 CA         43.8012  -49.1290   13.9055 C.3       2 GLC5        0.0000 
     64 CA         39.3965  -48.5430   14.7532 C.3       2 GLC5        0.0000 
     65 CA         37.8870  -49.4450   15.4110 C.3       4 GLP5        0.0000 
     66 CA         43.2014  -46.6167   13.4250 C.3       2 GLC5        0.0000 
     67 CA         44.1840  -45.7590   12.0620 C.3       4 GLP5        0.0000 
     68 CA         43.3998  -50.2593   13.8263 C.3       2 GLC5        0.0000 
     69 CA         42.7590  -49.5280   15.3130 C.3       6 GLL5        0.0000 
     70 CA         40.6912  -45.0034   15.6400 C.3       2 GLC5        0.0000 
     71 CA         41.0190  -45.1560   13.8920 C.3       6 GLL5        0.0000 
     72 CA         39.9765  -45.2077   11.7975 C.3       2 GLC5        0.0000 
     73 CA         39.3940  -44.7880    9.8990 C.3       4 GLP5        0.0000 
     74 CA         39.3950  -46.0290   15.3000 C.3       2 GLC5        0.0000 
     75 CA         38.5720  -45.2950   16.9650 C.3       4 GLP5        0.0000 
     76 CA         42.5139  -45.7430   12.9629 C.3       2 GLC5        0.0000 
     77 CA         44.2545  -51.9685   14.0155 C.3       2 GLC5        0.0000 
     78 CA         44.1550  -51.4900   15.7400 C.3       6 GLL5        0.0000 
     79 CA         42.2304  -50.4268   17.1521 C.3       2 GLC5        0.0000 
@<TRIPOS>BOND
@<TRIPOS>SUBSTRUCTURE
     1 SEC2       37 GROUP        1 X    SEC  0     ROOT SEC X 2
     2 GLC5        1 GROUP        1 X    GLC  0     **** GLC X 6
     3 SEP2       39 GROUP        1 Y    SEP  0     ROOT SEP Y 9
     4 GLP5        3 GROUP        1 Y    GLP  0     **** GLP Y 13
     5 SEL2       38 GROUP        1 Z    SEL  0     ROOT SEL Z 16
     6 GLL5        2 GROUP        1 Z    GLL  0     **** GLL Z 20
@<TRIPOS>SET

