#    Name: 3tvu_B37_3_ligand
#    Modification time : Mon Mar 24 21:02:38 2014

@<TRIPOS>MOLECULE
3tvu_B37_3_ligand
   65    70     1     0     0
SMALL
NO_CHARGES


@<TRIPOS>ATOM
      1 C4         43.2880  -47.7840   24.3250 C.ar      1 B372242     0.0000 
      2 C6         42.2200  -49.3660   25.6190 C.ar      1 B372242     0.0000 
      3 C10        44.9560  -47.1980   22.1500 C.ar      1 B372242     0.0000 
      4 C20        45.8730  -46.9370   21.0050 C.3       1 B372242     0.0000 
      5 C21        45.2210  -46.1500   19.9060 C.3       1 B372242     0.0000 
      6 C24        44.0630  -46.9230   19.2970 C.3       1 B372242     0.0000 
      7 C28        46.2610  -45.8400   18.8360 C.3       1 B372242     0.0000 
      8 C1         42.7110  -50.4110   24.8710 C.ar      1 B372242     0.0000 
      9 C2         43.5290  -50.1040   23.8070 C.ar      1 B372242     0.0000 
     10 C3         43.8170  -48.7850   23.5230 C.ar      1 B372242     0.0000 
     11 N5         42.4870  -48.0740   25.3700 N.ar      1 B372242     0.0000 
     12 C9         44.6390  -48.5020   22.4540 C.ar      1 B372242     0.0000 
     13 C11        44.4370  -46.1770   22.9300 C.ar      1 B372242     0.0000 
     14 C12        43.6110  -46.4750   23.9960 C.ar      1 B372242     0.0000 
     15 C16        41.3400  -49.6920   26.7770 C.3       1 B372242     0.0000 
     16 C25        43.4530  -46.1760   18.1300 C.3       1 B372242     0.0000 
     17 N26        44.4720  -45.7710   17.1820 N.am      1 B372242     0.0000 
     18 C27        45.6110  -45.0470   17.7120 C.3       1 B372242     0.0000 
     19 C38        44.5910  -46.3490   15.9230 C.2       1 B372242     0.0000 
     20 C39        43.5350  -47.2990   15.4850 C.ar      1 B372242     0.0000 
     21 C40        42.3900  -46.8890   14.8250 C.ar      1 B372242     0.0000 
     22 C41        41.4750  -47.8550   14.4210 C.ar      1 B372242     0.0000 
     23 N42        41.6490  -49.1660   14.6570 N.ar      1 B372242     0.0000 
     24 C43        42.7590  -49.5280   15.3130 C.ar      1 B372242     0.0000 
     25 C44        43.7320  -48.6410   15.7290 C.ar      1 B372242     0.0000 
     26 C46        42.1580  -45.5540   14.5630 C.ar      1 B372242     0.0000 
     27 C47        41.0190  -45.1560   13.8920 C.ar      1 B372242     0.0000 
     28 C48        40.0990  -46.0990   13.5000 C.ar      1 B372242     0.0000 
     29 C49        40.3370  -47.4270   13.7700 C.ar      1 B372242     0.0000 
     30 C54        42.9020  -50.9330   15.5840 C.ar      1 B372242     0.0000 
     31 C55        44.1550  -51.4900   15.7400 C.ar      1 B372242     0.0000 
     32 C56        44.2950  -52.8360   16.0120 C.ar      1 B372242     0.0000 
     33 C57        43.1800  -53.6400   16.1330 C.ar      1 B372242     0.0000 
     34 C58        41.9230  -53.0910   15.9870 C.ar      1 B372242     0.0000 
     35 C59        41.7890  -51.7410   15.7200 C.ar      1 B372242     0.0000 
     36 O65        45.5200  -46.1460   15.1520 O.2       1 B372242     0.0000 
     37 H          46.2346  -47.8969   20.5960 H         1 B372242     0.0000 
     38 H          46.7626  -46.3890   21.3625 H         1 B372242     0.0000 
     39 H          44.8532  -45.2186   20.3027 H         1 B372242     0.0000 
     40 H          43.2992  -47.0877   20.0621 H         1 B372242     0.0000 
     41 H          44.4218  -47.8984   18.9564 H         1 B372242     0.0000 
     42 H          46.6585  -46.7680   18.4409 H         1 B372242     0.0000 
     43 H          47.0638  -45.2568   19.2727 H         1 B372242     0.0000 
     44 H          42.4787  -51.3747   25.0953 H         1 B372242     0.0000 
     45 H          43.9254  -50.8559   23.2240 H         1 B372242     0.0000 
     46 H          45.0187  -49.2732   21.8785 H         1 B372242     0.0000 
     47 H          44.6684  -45.1966   22.7131 H         1 B372242     0.0000 
     48 H          43.2185  -45.6986   24.5701 H         1 B372242     0.0000 
     49 H          42.9135  -45.3017   18.5234 H         1 B372242     0.0000 
     50 H          42.7097  -46.8306   17.6512 H         1 B372242     0.0000 
     51 H          46.3642  -44.8733   16.9351 H         1 B372242     0.0000 
     52 H          45.3079  -44.0724   18.1110 H         1 B372242     0.0000 
     53 H          44.5717  -48.9707   16.2030 H         1 B372242     0.0000 
     54 H          42.8454  -44.8432   14.8729 H         1 B372242     0.0000 
     55 H          40.8623  -44.1592   13.6880 H         1 B372242     0.0000 
     56 H          39.2402  -45.8151   13.0092 H         1 B372242     0.0000 
     57 H          39.6286  -48.1403   13.4706 H         1 B372242     0.0000 
     58 H          44.9968  -50.8936   15.6523 H         1 B372242     0.0000 
     59 H          45.2381  -53.2429   16.1254 H         1 B372242     0.0000 
     60 H          43.2861  -54.6448   16.3313 H         1 B372242     0.0000 
     61 H          41.0853  -53.6841   16.0764 H         1 B372242     0.0000 
     62 H          40.8425  -51.3304   15.6207 H         1 B372242     0.0000 
     63 H          41.8078  -50.2663   27.4488 H         1 B372242     0.0000 
     64 H          41.0364  -48.8685   27.2561 H         1 B372242     0.0000 
     65 H          40.5180  -50.1849   26.4916 H         1 B372242     0.0000 
@<TRIPOS>BOND
     1   10    1 ar   
     2   11    1 ar   
     3   14    1 ar   
     4    8    2 ar   
     5   11    2 ar   
     6   15    2 1    
     7    4    3 1    
     8   12    3 ar   
     9   13    3 ar   
    10    5    4 1    
    11   37    4 1    
    12   38    4 1    
    13    6    5 1    
    14    7    5 1    
    15   39    5 1    
    16   16    6 1    
    17   40    6 1    
    18   41    6 1    
    19   18    7 1    
    20   42    7 1    
    21   43    7 1    
    22    9    8 ar   
    23   44    8 1    
    24   10    9 ar   
    25   45    9 1    
    26   12   10 ar   
    27   46   12 1    
    28   14   13 ar   
    29   47   13 1    
    30   48   14 1    
    31   63   15 1    
    32   64   15 1    
    33   65   15 1    
    34   17   16 1    
    35   49   16 1    
    36   50   16 1    
    37   18   17 1    
    38   19   17 am   
    39   51   18 1    
    40   52   18 1    
    41   20   19 1    
    42   36   19 2    
    43   21   20 ar   
    44   25   20 ar   
    45   22   21 ar   
    46   26   21 ar   
    47   23   22 ar   
    48   29   22 ar   
    49   24   23 ar   
    50   25   24 ar   
    51   30   24 1    
    52   53   25 1    
    53   27   26 ar   
    54   54   26 1    
    55   28   27 ar   
    56   55   27 1    
    57   29   28 ar   
    58   56   28 1    
    59   57   29 1    
    60   31   30 ar   
    61   35   30 ar   
    62   32   31 ar   
    63   58   31 1    
    64   33   32 ar   
    65   59   32 1    
    66   34   33 ar   
    67   60   33 1    
    68   35   34 ar   
    69   61   34 1    
    70   62   35 1    
@<TRIPOS>SUBSTRUCTURE
     1 B372242     1 GROUP   
@<TRIPOS>SET

