#    Name: 1w2d_ADP_1_INTS_M
#    Modification time : Tue Mar 25 08:32:17 2014

@<TRIPOS>MOLECULE
1w2d_ADP_1_INTS_M
   60     0    15     0     0
SMALL
NO_CHARGES


@<TRIPOS>ATOM
      1 N          20.0315   27.3705   83.5075 N.am      2 SEC2        0.0000 
      2 N          19.2350   28.1840   82.4320 N.am     12 SEL2        0.0000 
      3 N          20.8280   26.5570   84.5830 N.am      7 SEP2        0.0000 
      4 N          21.2030   31.2740   83.1105 N.am      2 SEC2        0.0000 
      5 N          20.6120   30.2400   82.5740 N.am     12 SEL2        0.0000 
      6 N          21.7940   32.3080   83.6470 N.am      7 SEP2        0.0000 
      7 NZ         22.6935   26.6140   81.1280 N.4       3 LYC4        0.0000 
      8 NZ         22.1270   26.5310   79.9320 N.4      13 LYL4        0.0000 
      9 NZ         23.2600   26.6970   82.3240 N.4       8 LYP4        0.0000 
     10 N          22.6935   26.6140   81.1280 N.am      2 SEC2        0.0000 
     11 N          22.1270   26.5310   79.9320 N.am     12 SEL2        0.0000 
     12 N          23.2600   26.6970   82.3240 N.am      7 SEP2        0.0000 
     13 Zn         18.3740   26.8100   80.0515 Zn        4 ZIC7        0.0000 
     14 Zn         19.6190   26.8960   79.4400 Zn       14 ZIL7        0.0000 
     15 Zn         17.1290   26.7240   80.6630 Zn        9 ZIP7        0.0000 
     16 N          22.1615   27.7310   81.4405 N.am      2 SEC2        0.0000 
     17 N          21.0630   28.7650   80.5570 N.am     12 SEL2        0.0000 
     18 O          18.4330   26.8020   75.2690 O.2       1 ALC1        0.0000 
     19 O          19.3650   27.7290   74.8250 O.2      11 ALL1        0.0000 
     20 O          17.5010   25.8750   75.7130 O.2       6 ALP1        0.0000 
     21 N          19.8740   30.0530   72.8570 N.am      2 SEC2        0.0000 
     22 N          20.9630   29.1590   73.1140 N.am     12 SEL2        0.0000 
     23 N          18.7850   30.9470   72.6000 N.am      7 SEP2        0.0000 
     24 CA         23.5880   29.4010   76.8025 C.3       5 GLC5        0.0000 
     25 CA         22.7190   29.1130   74.7660 C.3      15 GLL5        0.0000 
     26 CA         24.4570   29.6890   78.8390 C.3      10 GLP5        0.0000 
     27 CA         26.0855   25.3350   74.3870 C.3       5 GLC5        0.0000 
     28 CA         25.8140   27.1850   75.4740 C.3      15 GLL5        0.0000 
     29 CA         26.3570   23.4850   73.3000 C.3      10 GLP5        0.0000 
     30 CA         28.4740   28.2995   75.7655 C.3       5 GLC5        0.0000 
     31 CA         27.1120   26.8730   75.1230 C.3      15 GLL5        0.0000 
     32 CA         29.8360   29.7260   76.4080 C.3      10 GLP5        0.0000 
     33 CA         28.9910   27.3940   74.0215 C.3       5 GLC5        0.0000 
     34 CA         30.8700   27.9150   72.9200 C.3      10 GLP5        0.0000 
     35 CA         27.3880   25.4570   73.9975 C.3       5 GLC5        0.0000 
     36 CA         27.6640   24.0410   72.8720 C.3      10 GLP5        0.0000 
     37 O          29.2370   26.0415   75.4485 O.2       1 ALC1        0.0000 
     38 O          27.8780   26.0480   75.8880 O.2      11 ALL1        0.0000 
     39 O          30.5960   26.0350   75.0090 O.2       6 ALP1        0.0000 
     40 N          28.5015   26.9260   72.9600 N.am      2 SEC2        0.0000 
     41 N          27.6530   27.4640   74.0090 N.am     12 SEL2        0.0000 
     42 N          29.3500   26.3880   71.9110 N.am      7 SEP2        0.0000 
     43 CA         28.8785   28.1205   73.0705 C.3       5 GLC5        0.0000 
     44 CA         26.8870   28.3260   73.2210 C.3      15 GLL5        0.0000 
     45 CA         27.2160   26.5520   72.3800 C.3       5 GLC5        0.0000 
     46 CA         27.5450   24.7780   71.5390 C.3      10 GLP5        0.0000 
     47 CA         26.1575   28.0570   71.1475 C.3       5 GLC5        0.0000 
     48 CA         25.4280   27.7880   69.0740 C.3      10 GLP5        0.0000 
     49 CA         24.0470   26.5815   73.3900 C.3       5 GLC5        0.0000 
     50 CA         25.0670   28.0810   74.7030 C.3      15 GLL5        0.0000 
     51 CA         23.0270   25.0820   72.0770 C.3      10 GLP5        0.0000 
     52 CA         22.0613   29.9552   77.8533 C.3       5 GLC5        0.0000 
     53 CA         20.7580   29.3260   76.0600 C.3      15 GLL5        0.0000 
     54 CA         23.5310   30.7200   78.9150 C.3      10 GLP5        0.0000 
     55 CA         20.7673   26.7097   73.4458 C.3       5 GLC5        0.0000 
     56 CA         20.6560   28.0550   75.1940 C.3      15 GLL5        0.0000 
     57 CA         20.4020   25.2150   72.2540 C.3      10 GLP5        0.0000 
     58 CA         21.2707   26.3483   75.4043 C.3       5 GLC5        0.0000 
     59 CA         21.6090   28.3540   74.0810 C.3      15 GLL5        0.0000 
     60 CA         21.4090   24.4920   76.1710 C.3      10 GLP5        0.0000 
@<TRIPOS>BOND
@<TRIPOS>SUBSTRUCTURE
     1 ALC1       18 GROUP        1 X    ALC  0     ROOT ALC X 1
     2 SEC2        1 GROUP        1 X    SEC  0     **** SEC X 2
     3 LYC4        7 GROUP        1 X    LYC  0     **** LYC X 4
     4 ZIC7       13 GROUP        1 X    ZIC  0     **** ZIC X 5
     5 GLC5       24 GROUP        1 X    GLC  0     **** GLC X 6
     6 ALP1       20 GROUP        1 Y    ALP  0     ROOT ALP Y 8
     7 SEP2        3 GROUP        1 Y    SEP  0     **** SEP Y 9
     8 LYP4        9 GROUP        1 Y    LYP  0     **** LYP Y 11
     9 ZIP7       15 GROUP        1 Y    ZIP  0     **** ZIP Y 12
    10 GLP5       26 GROUP        1 Y    GLP  0     **** GLP Y 13
    11 ALL1       19 GROUP        1 Z    ALL  0     ROOT ALL Z 15
    12 SEL2        2 GROUP        1 Z    SEL  0     **** SEL Z 16
    13 LYL4        8 GROUP        1 Z    LYL  0     **** LYL Z 18
    14 ZIL7       14 GROUP        1 Z    ZIL  0     **** ZIL Z 19
    15 GLL5       25 GROUP        1 Z    GLL  0     **** GLL Z 20
@<TRIPOS>SET

