#    Name: 1w2d_ADP_1_ligand
#    Modification time : Tue Mar 25 08:32:17 2014

@<TRIPOS>MOLECULE
1w2d_ADP_1_ligand
   39    41     1     0     0
SMALL
NO_CHARGES


@<TRIPOS>ATOM
      1 PB         19.9090   29.2880   81.5750 P.3       1 ADP1462     0.0000 
      2 O1B        19.2350   28.1840   82.4320 O.co2     1 ADP1462     0.0000 
      3 O2B        20.6120   30.2400   82.5740 O.co2     1 ADP1462     0.0000 
      4 O3B        18.9240   30.0080   80.7360 O.co2     1 ADP1462     0.0000 
      5 PA         21.0180   27.4920   79.5420 P.3       1 ADP1462     0.0000 
      6 O1A        22.1270   26.5310   79.9320 O.co2     1 ADP1462     0.0000 
      7 O2A        19.6190   26.8960   79.4400 O.co2     1 ADP1462     0.0000 
      8 O3A        21.0630   28.7650   80.5570 O.3       1 ADP1462     0.0000 
      9 O5'        21.3550   28.1450   78.1200 O.3       1 ADP1462     0.0000 
     10 C5'        20.4250   29.0550   77.5230 C.3       1 ADP1462     0.0000 
     11 C4'        20.7580   29.3260   76.0600 C.3       1 ADP1462     0.0000 
     12 O4'        22.0750   29.8010   75.8060 O.3       1 ADP1462     0.0000 
     13 C3'        20.6560   28.0550   75.1940 C.3       1 ADP1462     0.0000 
     14 O3'        19.3650   27.7290   74.8250 O.3       1 ADP1462     0.0000 
     15 C2'        21.6090   28.3540   74.0810 C.3       1 ADP1462     0.0000 
     16 O2'        20.9630   29.1590   73.1140 O.3       1 ADP1462     0.0000 
     17 C1'        22.7190   29.1130   74.7660 C.3       1 ADP1462     0.0000 
     18 N9         23.8280   28.2070   75.2810 N.pl3     1 ADP1462     0.0000 
     19 C8         23.8560   27.4100   76.3900 C.2       1 ADP1462     0.0000 
     20 N7         25.0410   26.7920   76.4990 N.2       1 ADP1462     0.0000 
     21 C5         25.8140   27.1850   75.4740 C.ar      1 ADP1462     0.0000 
     22 C6         27.1120   26.8730   75.1230 C.ar      1 ADP1462     0.0000 
     23 N6         27.8780   26.0480   75.8880 N.pl3     1 ADP1462     0.0000 
     24 N1         27.6530   27.4640   74.0090 N.ar      1 ADP1462     0.0000 
     25 C2         26.8870   28.3260   73.2210 C.ar      1 ADP1462     0.0000 
     26 N3         25.6120   28.6380   73.5760 N.ar      1 ADP1462     0.0000 
     27 C4         25.0670   28.0810   74.7030 C.ar      1 ADP1462     0.0000 
     28 H          20.4161   30.0256   78.0502 H         1 ADP1462     0.0000 
     29 H          19.3935   28.6622   77.5649 H         1 ADP1462     0.0000 
     30 H          20.0224   30.0233   75.6472 H         1 ADP1462     0.0000 
     31 H          21.1416   27.2682   75.8083 H         1 ADP1462     0.0000 
     32 H          21.9926   27.4484   73.7028 H         1 ADP1462     0.0000 
     33 H          23.1323   29.8088   74.0464 H         1 ADP1462     0.0000 
     34 H          23.1063   27.3128   77.0115 H         1 ADP1462     0.0000 
     35 H          27.4613   25.7220   76.7366 H         1 ADP1462     0.0000 
     36 H          28.7900   25.8406   75.5340 H         1 ADP1462     0.0000 
     37 H          27.3088   28.7228   72.3614 H         1 ADP1462     0.0000 
     38 H          19.1032   26.9802   75.4339 H         1 ADP1462     0.0000 
     39 H          21.6729   29.7768   72.7757 H         1 ADP1462     0.0000 
@<TRIPOS>BOND
     1    2    1 ar   
     2    3    1 ar   
     3    4    1 ar   
     4    8    1 1    
     5    6    5 ar   
     6    7    5 ar   
     7    8    5 1    
     8    9    5 1    
     9   10    9 1    
    10   11   10 1    
    11   28   10 1    
    12   29   10 1    
    13   12   11 1    
    14   13   11 1    
    15   30   11 1    
    16   17   12 1    
    17   14   13 1    
    18   15   13 1    
    19   31   13 1    
    20   38   14 1    
    21   16   15 1    
    22   17   15 1    
    23   32   15 1    
    24   39   16 1    
    25   18   17 1    
    26   33   17 1    
    27   19   18 1    
    28   27   18 1    
    29   20   19 2    
    30   34   19 1    
    31   21   20 1    
    32   22   21 ar   
    33   27   21 ar   
    34   23   22 1    
    35   24   22 ar   
    36   35   23 1    
    37   36   23 1    
    38   25   24 ar   
    39   26   25 ar   
    40   37   25 1    
    41   27   26 ar   
@<TRIPOS>SUBSTRUCTURE
     1 ADP1462     1 GROUP   
@<TRIPOS>SET

