#    Name: 4GCA_1_CAVITY_N1_ALL.mol2
#    Modification time : Mon Mar 10 23:13:13 2014

@<TRIPOS>MOLECULE
4GCA_1_CAVITY_N1_ALL.mol2
   87     0     5     0     0
SMALL
NO_CHARGES


@<TRIPOS>ATOM
      1 CA        -11.5755    4.3727   10.7077 C.3       4 GLY6        0.0000 
      2 CZ         -9.1170    9.2261    9.3291 C.ar      3 PHE5        0.0000 
      3 CZ         -9.6490    6.0035   10.0922 C.ar      3 PHE5        0.0000 
      4 CZ         -9.5118    4.7911   10.9646 C.ar      3 PHE5        0.0000 
      5 CZ        -10.4553    5.2060    9.1105 C.ar      3 PHE5        0.0000 
      6 CZ        -10.3181    3.9935    9.9829 C.ar      3 PHE5        0.0000 
      7 CZ        -11.2617    4.4084    8.1289 C.ar      3 PHE5        0.0000 
      8 CA        -11.1245    3.1959    9.0012 C.3       4 GLY6        0.0000 
      9 CA        -12.0681    3.6109    7.1472 C.3       4 GLY6        0.0000 
     10 CZ        -13.0116    4.0258    5.2931 C.ar      3 PHE5        0.0000 
     11 CA        -12.8744    2.8133    6.1655 C.3       4 GLY6        0.0000 
     12 CA        -13.6808    2.0158    5.1839 C.3       4 GLY6        0.0000 
     13 O         -13.5436    0.8033    6.0562 O.2       2 ALA2        0.0000 
     14 CA        -14.6244    2.4307    3.3298 C.3       4 GLY6        0.0000 
     15 CA        -14.4872    1.2182    4.2022 C.3       4 GLY6        0.0000 
     16 CA        -14.3500    0.0057    5.0746 C.3       4 GLY6        0.0000 
     17 CA        -15.2935    0.4206    3.2205 C.3       4 GLY6        0.0000 
     18 N          -6.2469   10.4420   10.5677 N.2       2 ALA2        0.0000 
     19 N          -7.1905   10.8569    8.7137 N.2       2 ALA2        0.0000 
     20 DU         -7.0533    9.6445    9.5860 H         5 CUB7        0.0000 
     21 DU         -6.9161    8.4320   10.4584 H         5 CUB7        0.0000 
     22 CA         -6.6417    6.0070   12.2032 C.3       4 GLY6        0.0000 
     23 CZ         -7.8597    8.8469    8.6044 C.ar      3 PHE5        0.0000 
     24 CZ         -7.7225    7.6344    9.4767 C.ar      3 PHE5        0.0000 
     25 DU         -7.5853    6.4219   10.3491 H         5 CUB7        0.0000 
     26 CZ         -7.4480    5.2094   11.2215 C.ar      3 PHE5        0.0000 
     27 CZ         -8.5288    6.8369    8.4951 C.ar      3 PHE5        0.0000 
     28 CZ         -8.3916    5.6244    9.3675 C.ar      3 PHE5        0.0000 
     29 CZ         -8.2544    4.4119   10.2398 C.ar      3 PHE5        0.0000 
     30 CZ         -9.1980    4.8268    8.3858 C.ar      3 PHE5        0.0000 
     31 CZ         -9.0608    3.6143    9.2582 C.ar      3 PHE5        0.0000 
     32 CZ        -10.0044    4.0293    7.4041 C.ar      3 PHE5        0.0000 
     33 CZ         -9.8671    2.8168    8.2765 C.ar      3 PHE5        0.0000 
     34 CZ         -9.7299    1.6043    9.1489 C.ar      3 PHE5        0.0000 
     35 CZ        -10.8107    3.2317    6.4224 C.ar      3 PHE5        0.0000 
     36 CA        -10.6735    2.0192    7.2948 C.3       4 GLY6        0.0000 
     37 CZ        -11.7543    3.6466    4.5684 C.ar      3 PHE5        0.0000 
     38 CA        -11.6171    2.4341    5.4408 C.3       4 GLY6        0.0000 
     39 CA        -11.4799    1.2217    6.3131 C.3       4 GLY6        0.0000 
     40 CZ        -12.5607    2.8491    3.5867 C.ar      3 PHE5        0.0000 
     41 CZ        -12.4234    1.6366    4.4591 C.ar      3 PHE5        0.0000 
     42 O         -12.2862    0.4241    5.3315 O.2       2 ALA2        0.0000 
     43 OG        -13.3670    2.0515    2.6050 O.2       1 SER1        0.0000 
     44 CZ        -13.2298    0.8390    3.4774 C.ar      3 PHE5        0.0000 
     45 CZ        -13.0926   -0.3735    4.3498 C.ar      3 PHE5        0.0000 
     46 CA        -14.0362    0.0415    2.4958 C.3       4 GLY6        0.0000 
     47 N          -4.9896   10.0628    9.8429 N.2       2 ALA2        0.0000 
     48 N          -5.7959    9.2653    8.8613 N.2       2 ALA2        0.0000 
     49 O          -5.6587    8.0528    9.7337 O.2       2 ALA2        0.0000 
     50 CA         -6.6023    8.4677    7.8796 C.3       4 GLY6        0.0000 
     51 O          -6.4651    7.2552    8.7520 O.2       2 ALA2        0.0000 
     52 O          -6.3279    6.0427    9.6244 O.2       2 ALA2        0.0000 
     53 CA         -7.4087    7.6702    6.8979 C.3       4 GLY6        0.0000 
     54 CZ         -7.2715    6.4577    7.7703 C.ar      3 PHE5        0.0000 
     55 CZ         -7.1343    5.2452    8.6427 C.ar      3 PHE5        0.0000 
     56 CZ         -6.9971    4.0327    9.5151 C.ar      3 PHE5        0.0000 
     57 CZ         -8.2150    6.8726    5.9163 C.ar      3 PHE5        0.0000 
     58 CZ         -8.0778    5.6601    6.7886 C.ar      3 PHE5        0.0000 
     59 CZ         -7.9406    4.4476    7.6610 C.ar      3 PHE5        0.0000 
     60 CZ         -7.8034    3.2351    8.5334 C.ar      3 PHE5        0.0000 
     61 CZ         -8.8842    4.8626    5.8070 C.ar      3 PHE5        0.0000 
     62 CZ         -8.7470    3.6501    6.6794 C.ar      3 PHE5        0.0000 
     63 CZ         -8.6098    2.4376    7.5517 C.ar      3 PHE5        0.0000 
     64 CZ         -8.4726    1.2251    8.4241 C.ar      3 PHE5        0.0000 
     65 CZ         -9.6906    4.0650    4.8253 C.ar      3 PHE5        0.0000 
     66 CZ         -9.5534    2.8525    5.6977 C.ar      3 PHE5        0.0000 
     67 CZ         -9.4162    1.6400    6.5701 C.ar      3 PHE5        0.0000 
     68 O          -9.2789    0.4275    7.4424 O.2       2 ALA2        0.0000 
     69 N          -4.5386    8.8861    8.1365 N.2       2 ALA2        0.0000 
     70 N          -5.3450    8.0885    7.1548 N.2       2 ALA2        0.0000 
     71 O          -5.2077    6.8761    8.0272 O.2       2 ALA2        0.0000 
     72 CA         -6.1513    7.2910    6.1732 C.3       4 GLY6        0.0000 
     73 O          -6.0141    6.0785    7.0456 O.2       2 ALA2        0.0000 
     74 O          -5.8769    4.8660    7.9179 O.2       2 ALA2        0.0000 
     75 CA         -6.9577    6.4934    5.1915 C.3       4 GLY6        0.0000 
     76 DU         -6.8205    5.2809    6.0639 H         5 CUB7        0.0000 
     77 CZ         -6.6833    4.0685    6.9363 C.ar      3 PHE5        0.0000 
     78 CZ         -6.5461    2.8560    7.8086 C.ar      3 PHE5        0.0000 
     79 O          -7.6268    4.4834    5.0822 O.2       2 ALA2        0.0000 
     80 CZ         -7.4896    3.2709    5.9546 C.ar      3 PHE5        0.0000 
     81 CA         -7.3524    2.0584    6.8270 C.3       4 GLY6        0.0000 
     82 CZ         -4.7568    5.6993    6.3208 C.ar      3 PHE5        0.0000 
     83 CZ         -5.5631    4.9018    5.3391 C.ar      3 PHE5        0.0000 
     84 CZ         -5.4259    3.6893    6.2115 C.ar      3 PHE5        0.0000 
     85 CZ         -5.2887    2.4768    7.0839 C.ar      3 PHE5        0.0000 
     86 N          -6.3695    4.1042    4.3575 N.2       2 ALA2        0.0000 
     87 N          -6.2323    2.8917    5.2298 N.2       2 ALA2        0.0000 
@<TRIPOS>BOND
@<TRIPOS>SUBSTRUCTURE
     1 SER1       43 GROUP   
     2 ALA2       13 GROUP   
     3 PHE5        2 GROUP   
     4 GLY6        1 GROUP   
     5 CUB7       20 GROUP   
@<TRIPOS>SET

