#    Name: 4gca_2X9_1_INTS_M
#    Modification time : Mon Mar 24 21:40:19 2014

@<TRIPOS>MOLECULE
4gca_2X9_1_INTS_M
   83     0     6     0     0
SMALL
NO_CHARGES


@<TRIPOS>ATOM
      1 CA         -4.7105    5.1795    8.2140 C.3       2 GLC5        0.0000 
      2 CA         -5.9390    6.2430    7.2610 C.3       6 GLL5        0.0000 
      3 CA         -3.4820    4.1160    9.1670 C.3       4 GLP5        0.0000 
      4 CA         -5.6375    7.3180    5.4625 C.3       2 GLC5        0.0000 
      5 CA         -5.3360    8.3930    3.6640 C.3       4 GLP5        0.0000 
      6 CA         -4.2130    6.2085    5.8800 C.3       2 GLC5        0.0000 
      7 CA         -2.4870    6.1740    4.4990 C.3       4 GLP5        0.0000 
      8 CA        -12.6620    0.2905    2.2885 C.3       2 GLC5        0.0000 
      9 CA        -14.5440    0.4080    2.8640 C.3       6 GLL5        0.0000 
     10 CA        -10.7800    0.1730    1.7130 C.3       4 GLP5        0.0000 
     11 CA        -15.3640    1.0345    1.2735 C.3       2 GLC5        0.0000 
     12 CA        -16.1840    1.6610   -0.3170 C.3       4 GLP5        0.0000 
     13 CA        -15.6435   -0.8225    3.1745 C.3       2 GLC5        0.0000 
     14 CA        -16.7430   -2.0530    3.4850 C.3       4 GLP5        0.0000 
     15 CA        -14.5595   -1.0175    1.6445 C.3       2 GLC5        0.0000 
     16 CA        -14.5750   -2.4430    0.4250 C.3       4 GLP5        0.0000 
     17 CA         -4.2905    3.8685    7.6260 C.3       2 GLC5        0.0000 
     18 CA         -5.0990    3.6210    6.0850 C.3       6 GLL5        0.0000 
     19 CA         -3.7930    4.8975    5.2920 C.3       2 GLC5        0.0000 
     20 CA         -4.4080    2.0355    5.2590 C.3       2 GLC5        0.0000 
     21 CA         -3.7170    0.4500    4.4330 C.3       4 GLP5        0.0000 
     22 CA        -10.3365    5.5415    8.0115 C.3       2 GLC5        0.0000 
     23 CA         -9.9000    4.2610    9.2190 C.3       6 GLL5        0.0000 
     24 CA        -10.7730    6.8220    6.8040 C.3       4 GLP5        0.0000 
     25 CA         -8.9780    3.2965   10.4875 C.3       2 GLC5        0.0000 
     26 CA         -8.0560    2.3320   11.7560 C.3       4 GLP5        0.0000 
     27 CA        -11.9000    4.2150    9.0040 C.3       2 GLC5        0.0000 
     28 CA        -13.9000    4.1690    8.7890 C.3       4 GLP5        0.0000 
     29 CA         -9.0325    1.2010    5.6955 C.3       2 GLC5        0.0000 
     30 CA         -9.3410    1.6910    7.8100 C.3       6 GLL5        0.0000 
     31 CA         -8.7240    0.7110    3.5810 C.3       4 GLP5        0.0000 
     32 CA         -8.4630    1.5400    9.3260 C.3       2 GLC5        0.0000 
     33 CA         -7.5850    1.3890   10.8420 C.3       4 GLP5        0.0000 
     34 CA        -10.4210   -0.2230    7.6975 C.3       2 GLC5        0.0000 
     35 CA        -11.5010   -2.1370    7.5850 C.3       4 GLP5        0.0000 
     36 CA        -11.4790    1.6810    8.1940 C.3       2 GLC5        0.0000 
     37 CA        -13.6170    1.6710    8.5780 C.3       4 GLP5        0.0000 
     38 CA        -11.8755   -0.6770    3.8640 C.3       2 GLC5        0.0000 
     39 CA        -13.2920   -0.6230    5.0220 C.3       6 GLL5        0.0000 
     40 CA        -10.4590   -0.7310    2.7060 C.3       4 GLP5        0.0000 
     41 CA        -13.6310   -0.1845    7.0400 C.3       2 GLC5        0.0000 
     42 CA        -13.9700    0.2540    9.0580 C.3       4 GLP5        0.0000 
     43 CA        -14.6590   -1.5980    4.7890 C.3       2 GLC5        0.0000 
     44 CA        -16.0260   -2.5730    4.5560 C.3       4 GLP5        0.0000 
     45 CA        -12.3465   -2.4015    4.3000 C.3       2 GLC5        0.0000 
     46 CA        -11.4010   -4.1800    3.5780 C.3       4 GLP5        0.0000 
     47 N          -7.4960    3.3180    3.2270 N.am      1 SEC2        0.0000 
     48 N          -6.4790    3.7840    4.1350 N.am      5 SEL2        0.0000 
     49 N          -8.5130    2.8520    2.3190 N.am      3 SEP2        0.0000 
     50 N          -3.0320    3.9205    3.5445 N.am      1 SEC2        0.0000 
     51 N          -4.2700    3.5810    3.8770 N.am      5 SEL2        0.0000 
     52 N          -1.7940    4.2600    3.2120 N.am      3 SEP2        0.0000 
     53 N          -4.6625    4.0090    2.6830 N.am      1 SEC2        0.0000 
     54 N          -5.0550    4.4370    1.4890 N.am      3 SEP2        0.0000 
     55 CA        -14.5160    2.7250    1.1885 C.3       2 GLC5        0.0000 
     56 CA        -13.2540    2.3550    2.9600 C.3       6 GLL5        0.0000 
     57 CA        -15.7780    3.0950   -0.5830 C.3       4 GLP5        0.0000 
     58 CA        -10.7145    5.5080    3.2790 C.3       2 GLC5        0.0000 
     59 CA        -11.9040    4.2800    3.1220 C.3       6 GLL5        0.0000 
     60 CA         -9.5250    6.7360    3.4360 C.3       4 GLP5        0.0000 
     61 CA        -11.9325    5.1950    1.6945 C.3       2 GLC5        0.0000 
     62 CA        -11.9610    6.1100    0.2670 C.3       4 GLP5        0.0000 
     63 CA        -11.0065    3.3925    1.9450 C.3       2 GLC5        0.0000 
     64 CA        -10.1090    2.5050    0.7680 C.3       4 GLP5        0.0000 
     65 CA        -13.3975    5.0680    3.0780 C.3       2 GLC5        0.0000 
     66 CA        -14.8910    5.8560    3.0340 C.3       4 GLP5        0.0000 
     67 CA        -11.9790    5.3380    4.8430 C.3       2 GLC5        0.0000 
     68 CA        -12.0540    6.3960    6.5640 C.3       4 GLP5        0.0000 
     69 CA        -15.4288    1.2630    4.1502 C.3       2 GLC5        0.0000 
     70 CA        -13.5830    1.1140    3.4630 C.3       6 GLL5        0.0000 
     71 CA        -16.7940    1.7650    5.1370 C.3       4 GLP5        0.0000 
     72 CA         -7.5550    0.6995    7.1620 C.3       2 GLC5        0.0000 
     73 CA         -6.5320   -0.8390    6.7230 C.3       4 GLP5        0.0000 
     74 CA        -14.9580    0.8732    4.9637 C.3       2 GLC5        0.0000 
     75 CA        -11.8773    2.6972    1.4260 C.3       2 GLC5        0.0000 
     76 CA        -12.2450    3.0700    3.5820 C.3       6 GLL5        0.0000 
     77 CA        -11.0050    2.6820   -0.4190 C.3       4 GLP5        0.0000 
     78 CA        -14.3652    3.0302    4.3670 C.3       2 GLC5        0.0000 
     79 CA        -15.9810    3.3480    5.4630 C.3       4 GLP5        0.0000 
     80 CA        -12.0172   -0.7539    6.2871 C.3       2 GLC5        0.0000 
     81 CA        -12.9520    0.5860    4.5590 C.3       6 GLL5        0.0000 
     82 CA        -12.9886    1.4577    6.6647 C.3       2 GLC5        0.0000 
     83 CA        -11.9450    1.2770    5.1880 C.3       6 GLL5        0.0000 
@<TRIPOS>BOND
@<TRIPOS>SUBSTRUCTURE
     1 SEC2       47 GROUP        1 X    SEC  0     ROOT SEC X 2
     2 GLC5        1 GROUP        1 X    GLC  0     **** GLC X 6
     3 SEP2       49 GROUP        1 Y    SEP  0     ROOT SEP Y 9
     4 GLP5        3 GROUP        1 Y    GLP  0     **** GLP Y 13
     5 SEL2       48 GROUP        1 Z    SEL  0     ROOT SEL Z 16
     6 GLL5        2 GROUP        1 Z    GLL  0     **** GLL Z 20
@<TRIPOS>SET

