#    Name: 4gca_2X9_1_ligand
#    Modification time : Mon Mar 24 21:40:19 2014

@<TRIPOS>MOLECULE
4gca_2X9_1_ligand
   37    39     1     0     0
SMALL
NO_CHARGES


@<TRIPOS>ATOM
      1 C1         -5.9390    6.2430    7.2610 C.3       1 2X9402      0.0000 
      2 C2         -6.7550    5.0080    7.4140 C.ar      1 2X9402      0.0000 
      3 C3         -8.4070    2.8570    7.7450 C.ar      1 2X9402      0.0000 
      4 F4        -14.5440    0.4080    2.8640 F         1 2X9402      0.0000 
      5 C5         -6.3760    3.7900    6.8740 C.ar      1 2X9402      0.0000 
      6 C6         -7.2230    2.7130    7.0390 C.ar      1 2X9402      0.0000 
      7 C7         -8.7080    4.0800    8.3170 C.ar      1 2X9402      0.0000 
      8 N8         -7.8810    5.1180    8.1390 N.ar      1 2X9402      0.0000 
      9 C9         -5.0990    3.6210    6.0850 C.3       1 2X9402      0.0000 
     10 C11        -9.9000    4.2610    9.2190 C.3       1 2X9402      0.0000 
     11 C12        -9.3410    1.6910    7.8100 C.3       1 2X9402      0.0000 
     12 F13       -13.2920   -0.6230    5.0220 F         1 2X9402      0.0000 
     13 C20        -5.3160    3.6640    4.5850 C.2       1 2X9402      0.0000 
     14 O23        -6.4790    3.7840    4.1350 O.co2     1 2X9402      0.0000 
     15 O24        -4.2700    3.5810    3.8770 O.co2     1 2X9402      0.0000 
     16 C28       -10.3070    1.7980    6.6220 C.2       1 2X9402      0.0000 
     17 N29       -11.2200    0.8900    6.2740 N.2       1 2X9402      0.0000 
     18 S30       -10.3020    3.2180    5.5860 S.3       1 2X9402      0.0000 
     19 C32       -11.5920    2.5290    4.7000 C.ar      1 2X9402      0.0000 
     20 C33       -13.5830    1.1140    3.4630 C.ar      1 2X9402      0.0000 
     21 C34       -12.2450    3.0700    3.5820 C.ar      1 2X9402      0.0000 
     22 C35       -11.9450    1.2770    5.1880 C.ar      1 2X9402      0.0000 
     23 C36       -12.9520    0.5860    4.5590 C.ar      1 2X9402      0.0000 
     24 C37       -13.2540    2.3550    2.9600 C.ar      1 2X9402      0.0000 
     25 F38       -11.9040    4.2800    3.1220 F         1 2X9402      0.0000 
     26 H          -6.9760    1.7949    6.6358 H         1 2X9402      0.0000 
     27 H          -4.6315    2.6599    6.3526 H         1 2X9402      0.0000 
     28 H          -4.3897    4.4152    6.3679 H         1 2X9402      0.0000 
     29 H          -9.9108    1.7150    8.7259 H         1 2X9402      0.0000 
     30 H          -8.7935    0.7646    7.7318 H         1 2X9402      0.0000 
     31 H         -13.7405    2.7388    2.1500 H         1 2X9402      0.0000 
     32 H          -5.0266    6.1367    7.6563 H         1 2X9402      0.0000 
     33 H          -5.8150    6.4895    6.2998 H         1 2X9402      0.0000 
     34 H          -6.3644    7.0275    7.7123 H         1 2X9402      0.0000 
     35 H          -9.8507    3.6685   10.0230 H         1 2X9402      0.0000 
     36 H          -9.9746    5.2010    9.5518 H         1 2X9402      0.0000 
     37 H         -10.7568    4.0474    8.7496 H         1 2X9402      0.0000 
@<TRIPOS>BOND
     1    2    1 1    
     2   32    1 1    
     3   33    1 1    
     4   34    1 1    
     5    5    2 ar   
     6    8    2 ar   
     7    6    3 ar   
     8    7    3 ar   
     9   11    3 1    
    10   20    4 1    
    11    6    5 ar   
    12    9    5 1    
    13   26    6 1    
    14    8    7 ar   
    15   10    7 1    
    16   13    9 1    
    17   27    9 1    
    18   28    9 1    
    19   35   10 1    
    20   36   10 1    
    21   37   10 1    
    22   16   11 1    
    23   29   11 1    
    24   30   11 1    
    25   23   12 1    
    26   14   13 ar   
    27   15   13 ar   
    28   17   16 2    
    29   18   16 1    
    30   22   17 1    
    31   19   18 1    
    32   21   19 ar   
    33   22   19 ar   
    34   23   20 ar   
    35   24   20 ar   
    36   24   21 ar   
    37   25   21 1    
    38   23   22 ar   
    39   31   24 1    
@<TRIPOS>SUBSTRUCTURE
     1 2X9402      1 GROUP   
@<TRIPOS>SET

