#    Name: 2gil_GTP_3_INTS_M
#    Modification time : Tue Mar 25 14:31:40 2014

@<TRIPOS>MOLECULE
2gil_GTP_3_INTS_M
   85     0    15     0     0
SMALL
NO_CHARGES


@<TRIPOS>ATOM
      1 N          26.7295   97.8135   15.1715 N.am      2 SEC2        0.0000 
      2 N          25.5780   98.2380   14.6690 N.am     12 SEL2        0.0000 
      3 N          27.8810   97.3890   15.6740 N.am      7 SEP2        0.0000 
      4 Zn         22.9685   96.9845   13.0630 Zn        4 ZIC7        0.0000 
      5 Zn         23.6110   97.5490   13.4340 Zn       14 ZIL7        0.0000 
      6 Zn         22.3260   96.4200   12.6920 Zn        9 ZIP7        0.0000 
      7 N          24.3865   97.9855   12.2660 N.am      2 SEC2        0.0000 
      8 N          23.6110   97.5490   13.4340 N.am     12 SEL2        0.0000 
      9 N          25.1620   98.4220   11.0980 N.am      7 SEP2        0.0000 
     10 NZ         22.2890   98.4410   16.4195 N.4       3 LYC4        0.0000 
     11 NZ         23.4020   98.8150   15.6130 N.4      13 LYL4        0.0000 
     12 NZ         21.1760   98.0670   17.2260 N.4       8 LYP4        0.0000 
     13 N          22.2890   98.4410   16.4195 N.am      2 SEC2        0.0000 
     14 N          23.4020   98.8150   15.6130 N.am     12 SEL2        0.0000 
     15 N          21.1760   98.0670   17.2260 N.am      7 SEP2        0.0000 
     16 N          23.0030  100.2355   15.7810 N.am      2 SEC2        0.0000 
     17 N          22.6040  101.6560   15.9490 N.am      7 SEP2        0.0000 
     18 N          24.8600   96.3500   16.9100 N.am      2 SEC2        0.0000 
     19 N          24.2570   96.3300   15.6180 N.am     12 SEL2        0.0000 
     20 N          25.4630   96.3700   18.2020 N.am      7 SEP2        0.0000 
     21 NZ         21.6950   96.7990   17.0840 N.4       3 LYC4        0.0000 
     22 NZ         22.2140   95.5310   16.9420 N.4      13 LYL4        0.0000 
     23 N          22.9990   95.0355   18.2445 N.am      2 SEC2        0.0000 
     24 N          22.2140   95.5310   16.9420 N.am     12 SEL2        0.0000 
     25 N          23.7840   94.5400   19.5470 N.am      7 SEP2        0.0000 
     26 N          22.1090   94.1650   17.6605 N.am      2 SEC2        0.0000 
     27 N          22.0040   92.7990   18.3790 N.am      7 SEP2        0.0000 
     28 N          21.0885   94.5370   16.7735 N.am      2 SEC2        0.0000 
     29 N          19.9630   93.5430   16.6050 N.am      7 SEP2        0.0000 
     30 N          21.6950   96.7990   17.0840 N.am      2 SEC2        0.0000 
     31 Zn         22.2585   95.8755   13.5820 Zn        4 ZIC7        0.0000 
     32 Zn         22.1910   95.3310   14.4720 Zn       14 ZIL7        0.0000 
     33 N          20.9325   94.5170   14.1095 N.am      2 SEC2        0.0000 
     34 N          22.1910   95.3310   14.4720 N.am     12 SEL2        0.0000 
     35 N          19.6740   93.7030   13.7470 N.am      7 SEP2        0.0000 
     36 N          22.8560   93.3080   17.1530 N.am      2 SEC2        0.0000 
     37 N          23.7080   93.8170   15.9270 N.am     12 SEL2        0.0000 
     38 N          21.4805   91.5315   13.8240 N.am      2 SEC2        0.0000 
     39 N          22.7020   91.9990   14.3940 N.am     12 SEL2        0.0000 
     40 N          20.2590   91.0640   13.2540 N.am      7 SEP2        0.0000 
     41 N          22.6280   90.6930   14.0715 N.am      2 SEC2        0.0000 
     42 N          22.5540   89.3870   13.7490 N.am      7 SEP2        0.0000 
     43 CA         25.9155   93.4850   17.4490 C.3       5 GLC5        0.0000 
     44 CA         25.9040   91.9740   16.4310 C.3      15 GLL5        0.0000 
     45 CA         25.9270   94.9960   18.4670 C.3      10 GLP5        0.0000 
     46 CA         28.1575   90.8560   14.0055 C.3       5 GLC5        0.0000 
     47 CA         26.9930   89.9880   15.3090 C.3      15 GLL5        0.0000 
     48 CA         29.3220   91.7240   12.7020 C.3      10 GLP5        0.0000 
     49 O          28.8575   88.3840   14.6010 O.2       1 ALC1        0.0000 
     50 O          28.2920   89.4430   15.3210 O.2      11 ALL1        0.0000 
     51 O          29.4230   87.3250   13.8810 O.2       6 ALP1        0.0000 
     52 O          26.3285   87.2890   13.3660 O.2       1 ALC1        0.0000 
     53 O          26.5140   87.6900   14.6410 O.2      11 ALL1        0.0000 
     54 O          26.1430   86.8880   12.0910 O.2       6 ALP1        0.0000 
     55 CA         25.3050   89.2155   18.7240 C.3       5 GLC5        0.0000 
     56 CA         25.8930   88.6330   16.8700 C.3      15 GLL5        0.0000 
     57 CA         24.7170   89.7980   20.5780 C.3      10 GLP5        0.0000 
     58 N          21.3065   88.5620   18.5845 N.am      2 SEC2        0.0000 
     59 N          22.3860   87.9430   17.6100 N.am     12 SEL2        0.0000 
     60 N          20.2270   89.1810   19.5590 N.am      7 SEP2        0.0000 
     61 CA         23.0345   87.5955   19.9900 C.3       5 GLC5        0.0000 
     62 CA         23.0070   86.9370   18.2760 C.3      15 GLL5        0.0000 
     63 CA         23.0620   88.2540   21.7040 C.3      10 GLP5        0.0000 
     64 CA         21.1500   86.7465   17.1770 C.3       5 GLC5        0.0000 
     65 CA         19.2930   86.5560   16.0780 C.3      10 GLP5        0.0000 
     66 CA         22.9600   84.8265   17.7535 C.3       5 GLC5        0.0000 
     67 CA         22.9130   82.7160   17.2310 C.3      10 GLP5        0.0000 
     68 N          21.0175   84.6795   18.0650 N.am      2 SEC2        0.0000 
     69 N          21.3670   85.6850   19.2890 N.am     12 SEL2        0.0000 
     70 N          20.6680   83.6740   16.8410 N.am      7 SEP2        0.0000 
     71 O          22.9815   84.0705   20.4925 O.2       1 ALC1        0.0000 
     72 O          23.4940   85.0340   19.6400 O.2      11 ALL1        0.0000 
     73 O          22.4690   83.1070   21.3450 O.2       6 ALP1        0.0000 
     74 O          23.9095   83.5205   20.2710 O.2       1 ALC1        0.0000 
     75 O          24.3250   82.0070   20.9020 O.2       6 ALP1        0.0000 
     76 O          25.0260   83.1970   20.4185 O.2       1 ALC1        0.0000 
     77 O          25.7270   84.3870   19.9350 O.2      11 ALL1        0.0000 
     78 CA         24.5450   88.4525   19.3295 C.3       5 GLC5        0.0000 
     79 CA         24.3730   87.1070   18.0810 C.3      15 GLL5        0.0000 
     80 CA         27.1472   92.6688   15.4290 C.3       5 GLC5        0.0000 
     81 CA         26.7950   90.7510   16.6110 C.3      15 GLL5        0.0000 
     82 CA         27.9450   93.9750   14.3370 C.3      10 GLP5        0.0000 
     83 CA         25.2625   86.9677   15.5877 C.3       5 GLC5        0.0000 
     84 CA         26.0250   88.8240   15.3570 C.3      15 GLL5        0.0000 
     85 CA         24.5660   85.2070   15.0620 C.3      10 GLP5        0.0000 
@<TRIPOS>BOND
@<TRIPOS>SUBSTRUCTURE
     1 ALC1       49 GROUP        1 X    ALC  0     ROOT ALC X 1
     2 SEC2        1 GROUP        1 X    SEC  0     **** SEC X 2
     3 LYC4       10 GROUP        1 X    LYC  0     **** LYC X 4
     4 ZIC7        4 GROUP        1 X    ZIC  0     **** ZIC X 5
     5 GLC5       43 GROUP        1 X    GLC  0     **** GLC X 6
     6 ALP1       51 GROUP        1 Y    ALP  0     ROOT ALP Y 8
     7 SEP2        3 GROUP        1 Y    SEP  0     **** SEP Y 9
     8 LYP4       12 GROUP        1 Y    LYP  0     **** LYP Y 11
     9 ZIP7        6 GROUP        1 Y    ZIP  0     **** ZIP Y 12
    10 GLP5       45 GROUP        1 Y    GLP  0     **** GLP Y 13
    11 ALL1       50 GROUP        1 Z    ALL  0     ROOT ALL Z 15
    12 SEL2        2 GROUP        1 Z    SEL  0     **** SEL Z 16
    13 LYL4       11 GROUP        1 Z    LYL  0     **** LYL Z 18
    14 ZIL7        5 GROUP        1 Z    ZIL  0     **** ZIL Z 19
    15 GLL5       44 GROUP        1 Z    GLL  0     **** GLL Z 20
@<TRIPOS>SET

