#    Name: 2gil_GTP_3_ligand
#    Modification time : Tue Mar 25 14:31:40 2014

@<TRIPOS>MOLECULE
2gil_GTP_3_ligand
   44    46     1     0     0
SMALL
NO_CHARGES


@<TRIPOS>ATOM
      1 PG         24.1540   97.7510   14.8140 P.3       1 GTP3200     0.0000 
      2 O1G        25.5780   98.2380   14.6690 O.co2     1 GTP3200     0.0000 
      3 O2G        23.6110   97.5490   13.4340 O.co2     1 GTP3200     0.0000 
      4 O3G        23.4020   98.8150   15.6130 O.co2     1 GTP3200     0.0000 
      5 O3B        24.2570   96.3300   15.6180 O.3       1 GTP3200     0.0000 
      6 PB         23.0530   95.2710   15.7000 P.3       1 GTP3200     0.0000 
      7 O1B        22.2140   95.5310   16.9420 O.co2     1 GTP3200     0.0000 
      8 O2B        22.1910   95.3310   14.4720 O.co2     1 GTP3200     0.0000 
      9 O3A        23.7080   93.8170   15.9270 O.3       1 GTP3200     0.0000 
     10 PA         23.9600   92.6910   14.8070 P.3       1 GTP3200     0.0000 
     11 O1A        22.7020   91.9990   14.3940 O.co2     1 GTP3200     0.0000 
     12 O2A        24.7780   93.1460   13.6030 O.co2     1 GTP3200     0.0000 
     13 O5'        24.7980   91.6150   15.6370 O.3       1 GTP3200     0.0000 
     14 C5'        25.9040   91.9740   16.4310 C.3       1 GTP3200     0.0000 
     15 C4'        26.7950   90.7510   16.6110 C.3       1 GTP3200     0.0000 
     16 O4'        26.2150   89.8570   17.5370 O.3       1 GTP3200     0.0000 
     17 C3'        26.9930   89.9880   15.3090 C.3       1 GTP3200     0.0000 
     18 O3'        28.2920   89.4430   15.3210 O.3       1 GTP3200     0.0000 
     19 C2'        26.0250   88.8240   15.3570 C.3       1 GTP3200     0.0000 
     20 O2'        26.5140   87.6900   14.6410 O.3       1 GTP3200     0.0000 
     21 C1'        25.8930   88.6330   16.8700 C.3       1 GTP3200     0.0000 
     22 N9         24.5450   88.1880   17.2920 N.pl3     1 GTP3200     0.0000 
     23 C8         23.3180   88.7040   17.0060 C.2       1 GTP3200     0.0000 
     24 N7         22.3860   87.9430   17.6100 N.2       1 GTP3200     0.0000 
     25 C5         23.0070   86.9370   18.2760 C.2       1 GTP3200     0.0000 
     26 C6         22.5570   85.8800   19.0710 C.2       1 GTP3200     0.0000 
     27 O6         21.3670   85.6850   19.2890 O.2       1 GTP3200     0.0000 
     28 N1         23.4940   85.0340   19.6400 N.am      1 GTP3200     0.0000 
     29 C2         24.8440   85.2200   19.4040 C.2       1 GTP3200     0.0000 
     30 N2         25.7270   84.3870   19.9350 N.pl3     1 GTP3200     0.0000 
     31 N3         25.2860   86.2760   18.6150 N.2       1 GTP3200     0.0000 
     32 C4         24.3730   87.1070   18.0810 C.2       1 GTP3200     0.0000 
     33 H          25.6066   92.3171   17.4275 H         1 GTP3200     0.0000 
     34 H          26.5099   92.7604   15.9689 H         1 GTP3200     0.0000 
     35 H          27.7682   91.0813   16.9533 H         1 GTP3200     0.0000 
     36 H          26.7852   90.5961   14.5003 H         1 GTP3200     0.0000 
     37 H          25.0793   89.1911   15.0007 H         1 GTP3200     0.0000 
     38 H          26.6223   87.8630   17.1629 H         1 GTP3200     0.0000 
     39 H          23.1537   89.4826   16.4623 H         1 GTP3200     0.0000 
     40 H          23.1810   84.2568   20.2464 H         1 GTP3200     0.0000 
     41 H          26.6881   84.5796   19.7369 H         1 GTP3200     0.0000 
     42 H          25.3524   83.6411   20.4858 H         1 GTP3200     0.0000 
     43 H          28.1697   88.4778   15.0901 H         1 GTP3200     0.0000 
     44 H          26.5486   87.9826   13.6854 H         1 GTP3200     0.0000 
@<TRIPOS>BOND
     1    2    1 ar   
     2    3    1 ar   
     3    4    1 ar   
     4    5    1 1    
     5    6    5 1    
     6    7    6 ar   
     7    8    6 ar   
     8    9    6 1    
     9   10    9 1    
    10   11   10 ar   
    11   12   10 ar   
    12   13   10 1    
    13   14   13 1    
    14   15   14 1    
    15   33   14 1    
    16   34   14 1    
    17   16   15 1    
    18   17   15 1    
    19   35   15 1    
    20   21   16 1    
    21   18   17 1    
    22   19   17 1    
    23   36   17 1    
    24   43   18 1    
    25   20   19 1    
    26   21   19 1    
    27   37   19 1    
    28   44   20 1    
    29   22   21 1    
    30   38   21 1    
    31   23   22 1    
    32   32   22 1    
    33   24   23 2    
    34   39   23 1    
    35   25   24 1    
    36   26   25 1    
    37   32   25 2    
    38   27   26 2    
    39   28   26 am   
    40   29   28 1    
    41   40   28 1    
    42   30   29 1    
    43   31   29 2    
    44   41   30 1    
    45   42   30 1    
    46   32   31 1    
@<TRIPOS>SUBSTRUCTURE
     1 GTP3200     1 GROUP   
@<TRIPOS>SET

