#    Name: 3zk6_H1I_2_INTS_M
#    Modification time : Tue Mar 25 03:30:19 2014

@<TRIPOS>MOLECULE
3zk6_H1I_2_INTS_M
   91     0     9     0     0
SMALL
NO_CHARGES


@<TRIPOS>ATOM
      1 CA         14.8900   61.7210    4.6810 C.3       3 GLC5        0.0000 
      2 CA         16.8220   62.0190    3.8750 C.3       9 GLL5        0.0000 
      3 CA         12.9580   61.4230    5.4870 C.3       6 GLP5        0.0000 
      4 CA         18.9840   63.3075    0.6510 C.3       3 GLC5        0.0000 
      5 CA         18.8190   62.5080    2.6030 C.3       9 GLL5        0.0000 
      6 CA         19.1490   64.1070   -1.3010 C.3       6 GLP5        0.0000 
      7 N          20.3245   62.9465    0.7780 N.am      2 SEC2        0.0000 
      8 N          19.4620   62.0410    1.5060 N.am      8 SEL2        0.0000 
      9 N          21.1870   63.8520    0.0500 N.am      5 SEP2        0.0000 
     10 CA         16.1525   59.8790   -0.0325 C.3       3 GLC5        0.0000 
     11 CA         17.3080   60.4780    1.7460 C.3       9 GLL5        0.0000 
     12 CA         14.9970   59.2800   -1.8110 C.3       6 GLP5        0.0000 
     13 O          20.4810   60.7105    0.0715 O.2       1 ALC1        0.0000 
     14 O          19.2300   60.3540   -0.1290 O.2       7 ALL1        0.0000 
     15 O          21.7320   61.0670    0.2720 O.2       4 ALP1        0.0000 
     16 CA         21.1280   57.4390   -3.2135 C.3       3 GLC5        0.0000 
     17 CA         20.2500   59.1600   -2.3810 C.3       9 GLL5        0.0000 
     18 CA         22.0060   55.7180   -4.0460 C.3       6 GLP5        0.0000 
     19 CA         20.3755   58.2155   -0.5505 C.3       3 GLC5        0.0000 
     20 CA         20.5010   57.2710    1.2800 C.3       6 GLP5        0.0000 
     21 CA         21.9705   59.5795   -2.1100 C.3       3 GLC5        0.0000 
     22 CA         23.6910   59.9990   -1.8390 C.3       6 GLP5        0.0000 
     23 CA         19.6890   61.0340   -2.3050 C.3       3 GLC5        0.0000 
     24 CA         19.1280   62.9080   -2.2290 C.3       6 GLP5        0.0000 
     25 CA         19.3755   57.4255   -0.4790 C.3       3 GLC5        0.0000 
     26 CA         18.2500   57.5800   -2.2380 C.3       9 GLL5        0.0000 
     27 CA         16.6235   58.4300   -2.0245 C.3       3 GLC5        0.0000 
     28 CA         16.5100   58.0050   -4.1900 C.3       3 GLC5        0.0000 
     29 CA         18.1810   56.9340   -3.4550 C.3       9 GLL5        0.0000 
     30 CA         14.8390   59.0760   -4.9250 C.3       6 GLP5        0.0000 
     31 N          12.4285   51.1375   -3.1905 N.am      2 SEC2        0.0000 
     32 N          14.1120   51.5770   -3.0790 N.am      8 SEL2        0.0000 
     33 N          10.7450   50.6980   -3.3020 N.am      5 SEP2        0.0000 
     34 N          13.5865   52.3585   -3.8390 N.am      2 SEC2        0.0000 
     35 N          13.0610   53.1400   -4.5990 N.am      5 SEP2        0.0000 
     36 N          13.9620   51.4480   -4.4245 N.am      2 SEC2        0.0000 
     37 N          13.8120   51.3190   -5.7700 N.am      5 SEP2        0.0000 
     38 CA         19.4425   50.2810   -1.4930 C.3       3 GLC5        0.0000 
     39 CA         17.8330   49.6520   -2.4640 C.3       9 GLL5        0.0000 
     40 CA         21.0520   50.9100   -0.5220 C.3       6 GLP5        0.0000 
     41 CA         19.0635   48.3025   -5.0830 C.3       3 GLC5        0.0000 
     42 CA         18.7050   47.5890   -3.3990 C.3       9 GLL5        0.0000 
     43 CA         19.4220   49.0160   -6.7670 C.3       6 GLP5        0.0000 
     44 CA         21.4145   46.3525   -4.5160 C.3       3 GLC5        0.0000 
     45 CA         19.8460   45.5950   -4.2090 C.3       9 GLL5        0.0000 
     46 CA         22.9830   47.1100   -4.8230 C.3       6 GLP5        0.0000 
     47 CA         21.4355   41.5205   -7.8190 C.3       3 GLC5        0.0000 
     48 CA         20.0060   42.7250   -6.6950 C.3       9 GLL5        0.0000 
     49 CA         22.8650   40.3160   -8.9430 C.3       6 GLP5        0.0000 
     50 CA         20.4160   43.2780   -8.8355 C.3       3 GLC5        0.0000 
     51 CA         20.8260   43.8310  -10.9760 C.3       6 GLP5        0.0000 
     52 CA         21.9225   44.8170   -6.4395 C.3       3 GLC5        0.0000 
     53 CA         20.1950   43.9730   -6.1060 C.3       9 GLL5        0.0000 
     54 CA         23.6500   45.6610   -6.7730 C.3       6 GLP5        0.0000 
     55 CA         18.2557   62.1805    5.9757 C.3       3 GLC5        0.0000 
     56 CA         17.1240   63.0680    4.7320 C.3       9 GLL5        0.0000 
     57 CA         18.8160   60.9080    7.3190 C.3       6 GLP5        0.0000 
     58 CA         18.9728   65.3593    3.5728 C.3       3 GLC5        0.0000 
     59 CA         18.2670   63.8380    4.5330 C.3       9 GLL5        0.0000 
     60 CA         19.2540   67.0210    3.1460 C.3       6 GLP5        0.0000 
     61 CA         16.9498   65.1120    5.2402 C.3       3 GLC5        0.0000 
     62 CA         16.2040   66.7710    5.8480 C.3       6 GLP5        0.0000 
     63 CA         15.4265   63.6247    3.5657 C.3       3 GLC5        0.0000 
     64 CA         13.8800   64.7060    2.8280 C.3       6 GLP5        0.0000 
     65 CA         18.3504   61.0490    4.5741 C.3       3 GLC5        0.0000 
     66 CA         18.6680   59.9030    6.1760 C.3       6 GLP5        0.0000 
     67 CA         20.9922   63.0808    2.2477 C.3       3 GLC5        0.0000 
     68 CA         23.0170   63.1290    1.4610 C.3       6 GLP5        0.0000 
     69 CA         16.0535   57.5793   -2.1965 C.3       3 GLC5        0.0000 
     70 CA         17.3190   55.8680   -3.2490 C.3       9 GLL5        0.0000 
     71 CA         15.3217   57.2103   -1.2355 C.3       3 GLC5        0.0000 
     72 CA         15.9590   54.9390   -1.2460 C.3       9 GLL5        0.0000 
     73 CA         13.9893   54.9943   -1.8260 C.3       3 GLC5        0.0000 
     74 CA         15.3340   55.3420   -0.0740 C.3       9 GLL5        0.0000 
     75 CA         12.3320   54.8480   -2.9920 C.3       6 GLP5        0.0000 
     76 CA         14.0130   56.5957    0.8175 C.3       3 GLC5        0.0000 
     77 CA         13.1300   58.2750    1.3850 C.3       6 GLP5        0.0000 
     78 CA         13.3323   54.3552   -1.3403 C.3       3 GLC5        0.0000 
     79 CA         14.4580   54.4910    0.5740 C.3       9 GLL5        0.0000 
     80 CA         13.8060   54.0480   -2.2185 C.3       3 GLC5        0.0000 
     81 CA         14.8470   52.8180   -1.1150 C.3       9 GLL5        0.0000 
     82 CA         17.8880   49.2742   -4.7140 C.3       3 GLC5        0.0000 
     83 CA         18.1470   49.5670   -6.6750 C.3       6 GLP5        0.0000 
     84 CA         19.3605   46.8305   -5.7155 C.3       3 GLC5        0.0000 
     85 CA         18.4740   46.1550   -3.8430 C.3       9 GLL5        0.0000 
     86 CA         19.5610   47.7860   -7.4050 C.3       6 GLP5        0.0000 
     87 CA         19.9124   42.6749   -2.8951 C.3       3 GLC5        0.0000 
     88 CA         19.6400   44.2510   -4.8590 C.3       9 GLL5        0.0000 
     89 CA         20.8350   42.4480   -1.1330 C.3       6 GLP5        0.0000 
     90 CA         19.1804   55.7634   -3.2821 C.3       3 GLC5        0.0000 
     91 CA         20.6980   54.9590   -3.8500 C.3       6 GLP5        0.0000 
@<TRIPOS>BOND
@<TRIPOS>SUBSTRUCTURE
     1 ALC1       13 GROUP        1 X    ALC  0     ROOT ALC X 1
     2 SEC2        7 GROUP        1 X    SEC  0     **** SEC X 2
     3 GLC5        1 GROUP        1 X    GLC  0     **** GLC X 6
     4 ALP1       15 GROUP        1 Y    ALP  0     ROOT ALP Y 8
     5 SEP2        9 GROUP        1 Y    SEP  0     **** SEP Y 9
     6 GLP5        3 GROUP        1 Y    GLP  0     **** GLP Y 13
     7 ALL1       14 GROUP        1 Z    ALL  0     ROOT ALL Z 15
     8 SEL2        8 GROUP        1 Z    SEL  0     **** SEL Z 16
     9 GLL5        2 GROUP        1 Z    GLL  0     **** GLL Z 20
@<TRIPOS>SET

