#    Name: 3zk6_H1I_2_ligand
#    Modification time : Tue Mar 25 03:30:19 2014

@<TRIPOS>MOLECULE
3zk6_H1I_2_ligand
   71    75     1     0     0
SMALL
NO_CHARGES


@<TRIPOS>ATOM
      1 C1         18.2670   63.8380    4.5330 C.ar      1 H1I1198     0.0000 
      2 C2         17.1240   63.0680    4.7320 C.ar      1 H1I1198     0.0000 
      3 C3         16.8220   62.0190    3.8750 C.ar      1 H1I1198     0.0000 
      4 C4         17.6710   61.7450    2.8080 C.ar      1 H1I1198     0.0000 
      5 C5         18.8190   62.5080    2.6030 C.ar      1 H1I1198     0.0000 
      6 C6         19.1160   63.5570    3.4660 C.ar      1 H1I1198     0.0000 
      7 N7         19.4620   62.0410    1.5060 N.2       1 H1I1198     0.0000 
      8 C8         18.7790   60.9950    0.9790 C.2       1 H1I1198     0.0000 
      9 S9         17.3080   60.4780    1.7460 S.3       1 H1I1198     0.0000 
     10 N10        19.2300   60.3540   -0.1290 N.pl3     1 H1I1198     0.0000 
     11 N11        18.5810   59.3260   -0.6500 N.2       1 H1I1198     0.0000 
     12 C12        18.9790   58.7480   -1.7010 C.2       1 H1I1198     0.0000 
     13 C13        20.2500   59.1600   -2.3810 C.3       1 H1I1198     0.0000 
     14 C14        18.2500   57.5800   -2.2380 C.2       1 H1I1198     0.0000 
     15 C15        18.1810   56.9340   -3.4550 C.2       1 H1I1198     0.0000 
     16 C16        17.3190   55.8680   -3.2490 C.2       1 H1I1198     0.0000 
     17 C17        16.9010   55.8890   -1.9150 C.2       1 H1I1198     0.0000 
     18 O18        17.4880   56.9630   -1.2910 O.3       1 H1I1198     0.0000 
     19 C19        15.9590   54.9390   -1.2460 C.ar      1 H1I1198     0.0000 
     20 C20        15.3340   55.3420   -0.0740 C.ar      1 H1I1198     0.0000 
     21 C21        14.4580   54.4910    0.5740 C.ar      1 H1I1198     0.0000 
     22 C22        14.2070   53.2340    0.0490 C.ar      1 H1I1198     0.0000 
     23 C23        14.8470   52.8180   -1.1150 C.ar      1 H1I1198     0.0000 
     24 C24        15.7130   53.6780   -1.7750 C.ar      1 H1I1198     0.0000 
     25 S25        14.5290   51.3760   -1.7230 S.o2      1 H1I1198     0.0000 
     26 O25        13.4650   50.7240   -1.0120 O.2       1 H1I1198     0.0000 
     27 O26        14.1120   51.5770   -3.0790 O.2       1 H1I1198     0.0000 
     28 N26        15.7430   50.4840   -1.6740 N.am      1 H1I1198     0.0000 
     29 C27        16.6770   50.5940   -2.6060 C.2       1 H1I1198     0.0000 
     30 O27        16.6400   51.3870   -3.5330 O.2       1 H1I1198     0.0000 
     31 C28        17.8330   49.6520   -2.4640 C.3       1 H1I1198     0.0000 
     32 C29        17.4250   48.3110   -3.0420 C.3       1 H1I1198     0.0000 
     33 C30        18.7050   47.5890   -3.3990 C.3       1 H1I1198     0.0000 
     34 C31        18.4740   46.1550   -3.8430 C.3       1 H1I1198     0.0000 
     35 C32        19.8460   45.5950   -4.2090 C.3       1 H1I1198     0.0000 
     36 C33        19.6400   44.2510   -4.8590 C.ar      1 H1I1198     0.0000 
     37 C34        18.8970   43.2840   -4.1980 C.ar      1 H1I1198     0.0000 
     38 C35        18.7110   42.0360   -4.7860 C.ar      1 H1I1198     0.0000 
     39 C36        19.2600   41.7530   -6.0360 C.ar      1 H1I1198     0.0000 
     40 C37        20.0060   42.7250   -6.6950 C.ar      1 H1I1198     0.0000 
     41 C38        20.1950   43.9730   -6.1060 C.ar      1 H1I1198     0.0000 
     42 H          18.4833   64.6120    5.1724 H         1 H1I1198     0.0000 
     43 H          16.4973   63.2808    5.5242 H         1 H1I1198     0.0000 
     44 H          15.9829   61.4517    4.0256 H         1 H1I1198     0.0000 
     45 H          19.9595   64.1236    3.3173 H         1 H1I1198     0.0000 
     46 H          20.1243   60.6965   -0.5760 H         1 H1I1198     0.0000 
     47 H          18.6171   57.1613   -4.2456 H         1 H1I1198     0.0000 
     48 H          17.0535   55.2289   -3.8985 H         1 H1I1198     0.0000 
     49 H          15.5251   56.2787    0.3123 H         1 H1I1198     0.0000 
     50 H          13.9941   54.7889    1.4423 H         1 H1I1198     0.0000 
     51 H          13.5433   52.6011    0.5205 H         1 H1I1198     0.0000 
     52 H          16.1681   53.3861   -2.6461 H         1 H1I1198     0.0000 
     53 H          15.7689   49.8253   -0.8939 H         1 H1I1198     0.0000 
     54 H          18.0856   49.5293   -1.4186 H         1 H1I1198     0.0000 
     55 H          18.6892   50.0305   -3.0075 H         1 H1I1198     0.0000 
     56 H          16.8335   48.4628   -3.9256 H         1 H1I1198     0.0000 
     57 H          16.8830   47.7490   -2.3045 H         1 H1I1198     0.0000 
     58 H          19.3775   47.5902   -2.5274 H         1 H1I1198     0.0000 
     59 H          19.2171   48.1357   -4.2057 H         1 H1I1198     0.0000 
     60 H          17.8387   46.1389   -4.7051 H         1 H1I1198     0.0000 
     61 H          18.0586   45.5866   -3.0358 H         1 H1I1198     0.0000 
     62 H          20.4359   45.4850   -3.3121 H         1 H1I1198     0.0000 
     63 H          20.3323   46.2680   -4.8983 H         1 H1I1198     0.0000 
     64 H          18.4854   43.4855   -3.2796 H         1 H1I1198     0.0000 
     65 H          18.1629   41.3144   -4.2939 H         1 H1I1198     0.0000 
     66 H          19.1141   40.8341   -6.4656 H         1 H1I1198     0.0000 
     67 H          20.4170   42.5234   -7.6144 H         1 H1I1198     0.0000 
     68 H          20.7465   44.6920   -6.5937 H         1 H1I1198     0.0000 
     69 H          21.0431   59.0553   -1.7809 H         1 H1I1198     0.0000 
     70 H          20.4275   58.6133   -3.1993 H         1 H1I1198     0.0000 
     71 H          20.2241   60.1175   -2.6681 H         1 H1I1198     0.0000 
@<TRIPOS>BOND
     1    2    1 ar   
     2    6    1 ar   
     3   42    1 1    
     4    3    2 ar   
     5   43    2 1    
     6    4    3 ar   
     7   44    3 1    
     8    5    4 ar   
     9    9    4 1    
    10    6    5 ar   
    11    7    5 1    
    12   45    6 1    
    13    8    7 2    
    14    9    8 1    
    15   10    8 1    
    16   11   10 1    
    17   46   10 1    
    18   12   11 2    
    19   13   12 1    
    20   14   12 1    
    21   69   13 1    
    22   70   13 1    
    23   71   13 1    
    24   15   14 2    
    25   18   14 1    
    26   16   15 1    
    27   47   15 1    
    28   17   16 2    
    29   48   16 1    
    30   18   17 1    
    31   19   17 1    
    32   20   19 ar   
    33   24   19 ar   
    34   21   20 ar   
    35   49   20 1    
    36   22   21 ar   
    37   50   21 1    
    38   23   22 ar   
    39   51   22 1    
    40   24   23 ar   
    41   25   23 1    
    42   52   24 1    
    43   26   25 2    
    44   27   25 2    
    45   28   25 1    
    46   29   28 am   
    47   53   28 1    
    48   30   29 2    
    49   31   29 1    
    50   32   31 1    
    51   54   31 1    
    52   55   31 1    
    53   33   32 1    
    54   56   32 1    
    55   57   32 1    
    56   34   33 1    
    57   58   33 1    
    58   59   33 1    
    59   35   34 1    
    60   60   34 1    
    61   61   34 1    
    62   36   35 1    
    63   62   35 1    
    64   63   35 1    
    65   37   36 ar   
    66   41   36 ar   
    67   38   37 ar   
    68   64   37 1    
    69   39   38 ar   
    70   65   38 1    
    71   40   39 ar   
    72   66   39 1    
    73   41   40 ar   
    74   67   40 1    
    75   68   41 1    
@<TRIPOS>SUBSTRUCTURE
     1 H1I1198     1 GROUP   
@<TRIPOS>SET

