#    Name: 2yut_NAP_1_INTS_M
#    Modification time : Tue Mar 25 09:41:58 2014

@<TRIPOS>MOLECULE
2yut_NAP_1_INTS_M
  110     0    12     0     0
SMALL
NO_CHARGES


@<TRIPOS>ATOM
      1 N          40.0185   45.3435    1.8510 N.am      2 SEC2        0.0000 
      2 N          40.9660   44.3800    1.3930 N.am     10 SEL2        0.0000 
      3 N          39.0710   46.3070    2.3090 N.am      6 SEP2        0.0000 
      4 CA         43.5085   43.2320    7.1685 C.3       4 GLC5        0.0000 
      5 CA         43.7250   44.4840    5.5250 C.3      12 GLL5        0.0000 
      6 CA         43.2920   41.9800    8.8120 C.3       8 GLP5        0.0000 
      7 N          44.5305   42.2800    6.6670 N.am      2 SEC2        0.0000 
      8 N          44.7220   43.8100    6.3130 N.am     10 SEL2        0.0000 
      9 N          44.3390   40.7500    7.0210 N.am      6 SEP2        0.0000 
     10 O          44.1620   48.2500    5.5985 O.2       1 ALC1        0.0000 
     11 O          43.8450   46.8840    5.8490 O.2       9 ALL1        0.0000 
     12 O          44.4790   49.6160    5.3480 O.2       5 ALP1        0.0000 
     13 CA         44.1490   45.6610    7.6680 C.3       4 GLC5        0.0000 
     14 CA         45.6910   44.8120    6.6510 C.3      12 GLL5        0.0000 
     15 CA         42.6070   46.5100    8.6850 C.3       8 GLP5        0.0000 
     16 CA         45.6980   43.3890    8.0870 C.3       4 GLC5        0.0000 
     17 CA         45.7050   41.9660    9.5230 C.3       8 GLP5        0.0000 
     18 CA         49.3480   42.3890   10.3345 C.3       4 GLC5        0.0000 
     19 CA         49.8280   43.8730    9.0060 C.3      12 GLL5        0.0000 
     20 CA         48.8680   40.9050   11.6630 C.3       8 GLP5        0.0000 
     21 O          52.0465   43.7860    9.7815 O.2       1 ALC1        0.0000 
     22 O          50.9380   43.1400    8.9870 O.2       9 ALL1        0.0000 
     23 O          53.1550   44.4320   10.5760 O.2       5 ALP1        0.0000 
     24 N          50.1935   45.0730   11.2615 N.am      2 SEC2        0.0000 
     25 N          49.6210   44.7760    9.9750 N.am     10 SEL2        0.0000 
     26 N          50.7660   45.3700   12.5480 N.am      6 SEP2        0.0000 
     27 CA         49.4265   46.5500    8.7885 C.3       4 GLC5        0.0000 
     28 CA         48.5220   45.5100    9.9990 C.3      12 GLL5        0.0000 
     29 CA         50.3310   47.5900    7.5780 C.3       8 GLP5        0.0000 
     30 CA         50.3780   46.2100   10.6815 C.3       4 GLC5        0.0000 
     31 CA         52.2340   46.9100   11.3640 C.3       8 GLP5        0.0000 
     32 CA         48.2955   45.5525   11.8630 C.3       4 GLC5        0.0000 
     33 CA         48.0690   45.5950   13.7270 C.3       8 GLP5        0.0000 
     34 N          38.8290   41.7145    0.8060 N.am      2 SEC2        0.0000 
     35 N          38.8670   41.3840    1.9990 N.am     10 SEL2        0.0000 
     36 N          38.7910   42.0450   -0.3870 N.am      6 SEP2        0.0000 
     37 N          37.9865   44.2325    3.7050 N.am      2 SEC2        0.0000 
     38 N          39.1970   43.2770    3.6680 N.am     10 SEL2        0.0000 
     39 N          36.7760   45.1880    3.7420 N.am      6 SEP2        0.0000 
     40 CA         37.7915   42.4500    5.5690 C.3       4 GLC5        0.0000 
     41 CA         39.5500   41.2800    5.6400 C.3      12 GLL5        0.0000 
     42 CA         36.0330   43.6200    5.4980 C.3       8 GLP5        0.0000 
     43 CA         38.4365   39.8960    8.3715 C.3       4 GLC5        0.0000 
     44 CA         39.5080   40.0540    6.5570 C.3      12 GLL5        0.0000 
     45 CA         37.3650   39.7380   10.1860 C.3       8 GLP5        0.0000 
     46 CA         42.0365   40.5990    7.6090 C.3       4 GLC5        0.0000 
     47 CA         40.7810   39.2180    6.4060 C.3      12 GLL5        0.0000 
     48 CA         42.7360   39.3885    6.3430 C.3       4 GLC5        0.0000 
     49 CA         44.6910   39.5590    6.2800 C.3       8 GLP5        0.0000 
     50 N          41.1970   37.0005    7.7615 N.am      2 SEC2        0.0000 
     51 N          41.0270   38.4390    7.5800 N.am     10 SEL2        0.0000 
     52 N          41.3670   35.5620    7.9430 N.am      6 SEP2        0.0000 
     53 O          42.0920   39.0145    8.0610 O.2       1 ALC1        0.0000 
     54 O          41.0270   38.4390    7.5800 O.2       9 ALL1        0.0000 
     55 O          43.1570   39.5900    8.5420 O.2       5 ALP1        0.0000 
     56 CA         40.8660   36.3170    6.1680 C.3       4 GLC5        0.0000 
     57 CA         40.4000   38.3050    5.2440 C.3      12 GLL5        0.0000 
     58 CA         41.3320   34.3290    7.0920 C.3       8 GLP5        0.0000 
     59 CA         40.6455   38.1685    3.2025 C.3       4 GLC5        0.0000 
     60 CA         40.8910   38.0320    1.1610 C.3       8 GLP5        0.0000 
     61 N          41.2795   36.3380    6.5885 N.am      2 SEC2        0.0000 
     62 N          41.1920   37.1140    5.2340 N.am     10 SEL2        0.0000 
     63 O          41.0320   35.8795    4.4660 O.2       1 ALC1        0.0000 
     64 O          41.1920   37.1140    5.2340 O.2       9 ALL1        0.0000 
     65 O          40.8720   34.6450    3.6980 O.2       5 ALP1        0.0000 
     66 CA         38.2995   37.6810    7.4785 C.3       4 GLC5        0.0000 
     67 CA         38.9810   37.9590    5.6910 C.3      12 GLL5        0.0000 
     68 CA         37.6180   37.4030    9.2660 C.3       8 GLP5        0.0000 
     69 N          35.3745   37.6065   -0.3700 N.am      2 SEC2        0.0000 
     70 N          36.6530   37.3270    0.0670 N.am     10 SEL2        0.0000 
     71 N          34.0960   37.8860   -0.8070 N.am      6 SEP2        0.0000 
     72 N          37.3380   37.4510   -1.1700 N.am      2 SEC2        0.0000 
     73 N          38.0230   37.5750   -2.4070 N.am      6 SEP2        0.0000 
     74 O          36.7095   39.4990   -0.4195 O.2       1 ALC1        0.0000 
     75 O          37.6060   39.1850    0.9350 O.2       9 ALL1        0.0000 
     76 O          35.8130   39.8130   -1.7740 O.2       5 ALP1        0.0000 
     77 N          45.3455   48.6310    4.2625 N.am      2 SEC2        0.0000 
     78 N          46.2120   47.6460    3.1770 N.am     10 SEL2        0.0000 
     79 N          44.4790   49.6160    5.3480 N.am      6 SEP2        0.0000 
     80 N          46.3315   48.9975    2.4700 N.am      2 SEC2        0.0000 
     81 N          46.4510   50.3490    1.7630 N.am      6 SEP2        0.0000 
     82 N          45.7375   49.4405    5.1890 N.am      2 SEC2        0.0000 
     83 N          46.9960   49.2650    5.0300 N.am     10 SEL2        0.0000 
     84 N          47.5520   49.5045    6.3275 N.am      2 SEC2        0.0000 
     85 N          48.1080   49.7440    7.6250 N.am      6 SEP2        0.0000 
     86 N          47.8800   50.3130    5.2160 N.am      2 SEC2        0.0000 
     87 N          48.7640   51.3610    5.4020 N.am      6 SEP2        0.0000 
     88 NZ         49.3475   45.9615    4.0725 N.4       3 LYC4        0.0000 
     89 NZ         48.5340   47.3630    4.2380 N.4      11 LYL4        0.0000 
     90 NZ         50.8330   44.9200    4.9930 N.4       7 LYP4        0.0000 
     91 N          49.4765   46.6595    4.9790 N.am      2 SEC2        0.0000 
     92 N          48.5340   47.3630    4.2380 N.am     10 SEL2        0.0000 
     93 N          50.4190   45.9560    5.7200 N.am      6 SEP2        0.0000 
     94 N          49.3475   45.9615    4.0725 N.am      2 SEC2        0.0000 
     95 N          50.1610   44.5600    3.9070 N.am      6 SEP2        0.0000 
     96 CA         43.3207   45.8270    6.9875 C.3       4 GLC5        0.0000 
     97 CA         42.4574   46.0424    4.2770 C.3       4 GLC5        0.0000 
     98 CA         40.9640   47.1620    3.5640 C.3       8 GLP5        0.0000 
     99 CA         47.0007   43.0395    8.7845 C.3       4 GLC5        0.0000 
    100 CA         48.8650   43.7170    8.0170 C.3      12 GLL5        0.0000 
    101 CA         49.8141   45.2970    7.6081 C.3       4 GLC5        0.0000 
    102 CA         47.7280   44.5090    8.0750 C.3      12 GLL5        0.0000 
    103 CA         51.0910   46.4420    6.9230 C.3       8 GLP5        0.0000 
    104 CA         39.5885   41.7640    7.7553 C.3       4 GLC5        0.0000 
    105 CA         39.6480   42.8610    9.4120 C.3       8 GLP5        0.0000 
    106 CA         39.2840   37.8113    2.0202 C.3       4 GLC5        0.0000 
    107 CA         38.0510   37.9030    3.3750 C.3      12 GLL5        0.0000 
    108 CA         34.8500   36.0692    4.1925 C.3       4 GLC5        0.0000 
    109 CA         36.6880   36.0580    2.6410 C.3      12 GLL5        0.0000 
    110 CA         32.9490   36.3810    5.1200 C.3       8 GLP5        0.0000 
@<TRIPOS>BOND
@<TRIPOS>SUBSTRUCTURE
     1 ALC1       10 GROUP        1 X    ALC  0     ROOT ALC X 1
     2 SEC2        1 GROUP        1 X    SEC  0     **** SEC X 2
     3 LYC4       88 GROUP        1 X    LYC  0     **** LYC X 4
     4 GLC5        4 GROUP        1 X    GLC  0     **** GLC X 6
     5 ALP1       12 GROUP        1 Y    ALP  0     ROOT ALP Y 8
     6 SEP2        3 GROUP        1 Y    SEP  0     **** SEP Y 9
     7 LYP4       90 GROUP        1 Y    LYP  0     **** LYP Y 11
     8 GLP5        6 GROUP        1 Y    GLP  0     **** GLP Y 13
     9 ALL1       11 GROUP        1 Z    ALL  0     ROOT ALL Z 15
    10 SEL2        2 GROUP        1 Z    SEL  0     **** SEL Z 16
    11 LYL4       89 GROUP        1 Z    LYL  0     **** LYL Z 18
    12 GLL5        5 GROUP        1 Z    GLL  0     **** GLL Z 20
@<TRIPOS>SET

