#    Name: 2yut_NAP_1_ligand
#    Modification time : Tue Mar 25 09:41:58 2014

@<TRIPOS>MOLECULE
2yut_NAP_1_ligand
   73    77     1     0     0
SMALL
NO_CHARGES


@<TRIPOS>ATOM
      1 PA         41.8680   43.5060    2.1760 P.3       1 NAP500      0.0000 
      2 O1A        43.1940   43.0860    1.3660 O.co2     1 NAP500      0.0000 
      3 O2A        40.9660   44.3800    1.3930 O.co2     1 NAP500      0.0000 
      4 O5B        42.3870   44.2210    3.5190 O.3       1 NAP500      0.0000 
      5 C5B        43.3900   43.5990    4.3250 C.3       1 NAP500      0.0000 
      6 C4B        43.7250   44.4840    5.5250 C.3       1 NAP500      0.0000 
      7 O4B        44.7220   43.8100    6.3130 O.3       1 NAP500      0.0000 
      8 C3B        44.3440   45.8040    5.0550 C.3       1 NAP500      0.0000 
      9 O3B        43.8450   46.8840    5.8490 O.3       1 NAP500      0.0000 
     10 C2B        45.8290   45.5900    5.3430 C.3       1 NAP500      0.0000 
     11 O2B        46.4420   46.8470    5.6390 O.3       1 NAP500      0.0000 
     12 C1B        45.6910   44.8120    6.6510 C.3       1 NAP500      0.0000 
     13 N9A        46.9840   44.1940    7.0190 N.pl3     1 NAP500      0.0000 
     14 C8A        47.6160   43.2450    6.3320 C.2       1 NAP500      0.0000 
     15 N7A        48.7650   42.9500    6.9360 N.2       1 NAP500      0.0000 
     16 C5A        48.8650   43.7170    8.0170 C.ar      1 NAP500      0.0000 
     17 C6A        49.8280   43.8730    9.0060 C.ar      1 NAP500      0.0000 
     18 N6A        50.9380   43.1400    8.9870 N.pl3     1 NAP500      0.0000 
     19 N1A        49.6210   44.7760    9.9750 N.ar      1 NAP500      0.0000 
     20 C2A        48.5220   45.5100    9.9990 C.ar      1 NAP500      0.0000 
     21 N3A        47.5860   45.3900    9.0750 N.ar      1 NAP500      0.0000 
     22 C4A        47.7280   44.5090    8.0750 C.ar      1 NAP500      0.0000 
     23 O3         41.1950   42.1140    2.6310 O.3       1 NAP500      0.0000 
     24 PN         39.6570   41.9930    3.0940 P.3       1 NAP500      0.0000 
     25 O1N        38.8670   41.3840    1.9990 O.co2     1 NAP500      0.0000 
     26 O2N        39.1970   43.2770    3.6680 O.co2     1 NAP500      0.0000 
     27 O5D        39.7260   40.8980    4.2730 O.3       1 NAP500      0.0000 
     28 C5D        39.5500   41.2800    5.6400 C.3       1 NAP500      0.0000 
     29 C4D        39.5080   40.0540    6.5570 C.3       1 NAP500      0.0000 
     30 O4D        38.4250   39.2220    6.0960 O.3       1 NAP500      0.0000 
     31 C3D        40.7810   39.2180    6.4060 C.3       1 NAP500      0.0000 
     32 O3D        41.0270   38.4390    7.5800 O.3       1 NAP500      0.0000 
     33 C2D        40.4000   38.3050    5.2440 C.3       1 NAP500      0.0000 
     34 O2D        41.1920   37.1140    5.2340 O.3       1 NAP500      0.0000 
     35 C1D        38.9810   37.9590    5.6910 C.3       1 NAP500      0.0000 
     36 N1N        38.1820   37.3010    4.6330 N.pl3     1 NAP500      0.0000 
     37 C2N        38.0510   37.9030    3.3750 C.ar      1 NAP500      0.0000 
     38 C3N        37.3030   37.2780    2.3840 C.ar      1 NAP500      0.0000 
     39 C7N        37.1520   37.9370    1.0110 C.2       1 NAP500      0.0000 
     40 O7N        36.6530   37.3270    0.0670 O.2       1 NAP500      0.0000 
     41 N7N        37.6060   39.1850    0.9350 N.am      1 NAP500      0.0000 
     42 C4N        36.6880   36.0580    2.6410 C.ar      1 NAP500      0.0000 
     43 C5N        36.8140   35.4570    3.8890 C.ar      1 NAP500      0.0000 
     44 C6N        37.5590   36.0730    4.8870 C.ar      1 NAP500      0.0000 
     45 P2B        47.1290   47.7510    4.4960 P.3       1 NAP500      0.0000 
     46 O1X        46.2120   47.6460    3.1770 O.co2     1 NAP500      0.0000 
     47 O2X        46.9960   49.2650    5.0300 O.co2     1 NAP500      0.0000 
     48 O3X        48.5340   47.3630    4.2380 O.co2     1 NAP500      0.0000 
     49 H          44.3179   43.4335    3.7625 H         1 NAP500      0.0000 
     50 H          43.0564   42.6266    4.7098 H         1 NAP500      0.0000 
     51 H          42.8517   44.6829    6.0794 H         1 NAP500      0.0000 
     52 H          44.2016   45.9043    4.0318 H         1 NAP500      0.0000 
     53 H          46.2523   45.0152    4.6348 H         1 NAP500      0.0000 
     54 H          45.3331   45.4655    7.3905 H         1 NAP500      0.0000 
     55 H          47.2865   42.8281    5.5091 H         1 NAP500      0.0000 
     56 H          51.7600   43.5766    9.3527 H         1 NAP500      0.0000 
     57 H          50.8503   42.2185    8.6087 H         1 NAP500      0.0000 
     58 H          48.3884   46.2154   10.7829 H         1 NAP500      0.0000 
     59 H          38.6115   41.8376    5.7878 H         1 NAP500      0.0000 
     60 H          40.3698   41.9279    5.9890 H         1 NAP500      0.0000 
     61 H          39.3838   40.3469    7.5517 H         1 NAP500      0.0000 
     62 H          41.5621   39.8369    6.1083 H         1 NAP500      0.0000 
     63 H          40.3591   38.8438    4.3753 H         1 NAP500      0.0000 
     64 H          39.0736   37.3118    6.5575 H         1 NAP500      0.0000 
     65 H          38.5076   38.8025    3.1903 H         1 NAP500      0.0000 
     66 H          37.9650   39.5750    1.7829 H         1 NAP500      0.0000 
     67 H          37.5474   39.6206    0.0368 H         1 NAP500      0.0000 
     68 H          36.1359   35.5963    1.9033 H         1 NAP500      0.0000 
     69 H          36.3545   34.5547    4.0728 H         1 NAP500      0.0000 
     70 H          37.6552   35.6335    5.8085 H         1 NAP500      0.0000 
     71 H          44.2214   47.7096    5.4286 H         1 NAP500      0.0000 
     72 H          42.0177   38.4744    7.7110 H         1 NAP500      0.0000 
     73 H          40.7677   36.5270    4.5445 H         1 NAP500      0.0000 
@<TRIPOS>BOND
     1    2    1 ar   
     2    3    1 ar   
     3    4    1 1    
     4   23    1 1    
     5    5    4 1    
     6    6    5 1    
     7   49    5 1    
     8   50    5 1    
     9    7    6 1    
    10    8    6 1    
    11   51    6 1    
    12   12    7 1    
    13    9    8 1    
    14   10    8 1    
    15   52    8 1    
    16   71    9 1    
    17   11   10 1    
    18   12   10 1    
    19   53   10 1    
    20   45   11 1    
    21   13   12 1    
    22   54   12 1    
    23   14   13 1    
    24   22   13 1    
    25   15   14 2    
    26   55   14 1    
    27   16   15 1    
    28   17   16 ar   
    29   22   16 ar   
    30   18   17 1    
    31   19   17 ar   
    32   56   18 1    
    33   57   18 1    
    34   20   19 ar   
    35   21   20 ar   
    36   58   20 1    
    37   22   21 ar   
    38   24   23 1    
    39   25   24 ar   
    40   26   24 ar   
    41   27   24 1    
    42   28   27 1    
    43   29   28 1    
    44   59   28 1    
    45   60   28 1    
    46   30   29 1    
    47   31   29 1    
    48   61   29 1    
    49   35   30 1    
    50   32   31 1    
    51   33   31 1    
    52   62   31 1    
    53   72   32 1    
    54   34   33 1    
    55   35   33 1    
    56   63   33 1    
    57   73   34 1    
    58   36   35 1    
    59   64   35 1    
    60   37   36 ar   
    61   44   36 ar   
    62   38   37 ar   
    63   65   37 1    
    64   39   38 1    
    65   42   38 ar   
    66   40   39 2    
    67   41   39 am   
    68   66   41 1    
    69   67   41 1    
    70   43   42 ar   
    71   68   42 1    
    72   44   43 ar   
    73   69   43 1    
    74   70   44 1    
    75   46   45 ar   
    76   47   45 ar   
    77   48   45 ar   
@<TRIPOS>SUBSTRUCTURE
     1 NAP500      1 GROUP   
@<TRIPOS>SET

