#    Name: 2h7l_665_1_INTS_M
#    Modification time : Tue Mar 25 15:42:19 2014

@<TRIPOS>MOLECULE
2h7l_665_1_INTS_M
   65     0     6     0     0
SMALL
NO_CHARGES


@<TRIPOS>ATOM
      1 CA          2.7145   31.5255   57.4925 C.3       2 GLC5        0.0000 
      2 CA          4.5050   30.9890   58.3890 C.3       6 GLL5        0.0000 
      3 CA          0.9240   32.0620   56.5960 C.3       4 GLP5        0.0000 
      4 CA          9.0715   30.0550   60.0640 C.3       2 GLC5        0.0000 
      5 CA          7.4920   30.8950   59.2870 C.3       6 GLL5        0.0000 
      6 CA         10.6510   29.2150   60.8410 C.3       4 GLP5        0.0000 
      7 CA          8.4385   28.6495   59.4070 C.3       2 GLC5        0.0000 
      8 CA          6.8090   29.6420   58.6100 C.3       6 GLL5        0.0000 
      9 CA         10.0680   27.6570   60.2040 C.3       4 GLP5        0.0000 
     10 CA          8.2660   29.3685   57.0175 C.3       2 GLC5        0.0000 
     11 CA          9.7230   29.0950   55.4250 C.3       4 GLP5        0.0000 
     12 CA         11.4645   35.1870   58.6535 C.3       2 GLC5        0.0000 
     13 CA          9.5830   34.1380   59.2030 C.3       6 GLL5        0.0000 
     14 CA         13.3460   36.2360   58.1040 C.3       4 GLP5        0.0000 
     15 N          10.1695   33.3345   56.8440 N.am      1 SEC2        0.0000 
     16 N           8.8200   33.4300   57.1690 N.am      5 SEL2        0.0000 
     17 N          11.5190   33.2390   56.5190 N.am      3 SEP2        0.0000 
     18 N           7.9960   33.5945   56.2520 N.am      1 SEC2        0.0000 
     19 N           7.1720   33.7590   55.3350 N.am      3 SEP2        0.0000 
     20 CA         13.2975   27.7405   64.7640 C.3       2 GLC5        0.0000 
     21 CA         12.7930   29.6530   64.1410 C.3       6 GLL5        0.0000 
     22 CA         13.8020   25.8280   65.3870 C.3       4 GLP5        0.0000 
     23 CA         11.4640   29.8825   65.8540 C.3       2 GLC5        0.0000 
     24 CA         10.1350   30.1120   67.5670 C.3       4 GLP5        0.0000 
     25 CA         11.2365   28.1335   64.5930 C.3       2 GLC5        0.0000 
     26 CA          9.6800   26.6140   65.0450 C.3       4 GLP5        0.0000 
     27 CA         15.1610   30.6760   64.3790 C.3       2 GLC5        0.0000 
     28 CA         14.1640   32.2170   63.7490 C.3       6 GLL5        0.0000 
     29 CA         16.1580   29.1350   65.0090 C.3       4 GLP5        0.0000 
     30 CA         14.7680   31.0990   62.1830 C.3       2 GLC5        0.0000 
     31 CA         15.3720   29.9810   60.6170 C.3       4 GLP5        0.0000 
     32 CA         15.6690   34.2090   61.6910 C.3       2 GLC5        0.0000 
     33 CA         14.1870   33.5570   63.1830 C.3       6 GLL5        0.0000 
     34 CA         17.1510   34.8610   60.1990 C.3       4 GLP5        0.0000 
     35 CA         10.5345   33.9810   63.4925 C.3       2 GLC5        0.0000 
     36 CA         11.9060   33.0810   62.1550 C.3       6 GLL5        0.0000 
     37 CA          9.1630   34.8810   64.8300 C.3       4 GLP5        0.0000 
     38 CA          6.0797   33.3533   57.1345 C.3       2 GLC5        0.0000 
     39 CA          6.9000   32.1060   58.5910 C.3       6 GLL5        0.0000 
     40 CA          6.0450   34.5490   55.6200 C.3       4 GLP5        0.0000 
     41 CA          5.6595   28.3230   57.1665 C.3       2 GLC5        0.0000 
     42 CA          5.3080   27.0140   55.7050 C.3       4 GLP5        0.0000 
     43 CA         10.7665   33.2070   59.2130 C.3       2 GLC5        0.0000 
     44 CA         12.1840   32.1680   58.5550 C.3       4 GLP5        0.0000 
     45 CA          8.0755   34.1042   62.2895 C.3       2 GLC5        0.0000 
     46 CA          9.1150   34.3540   60.5390 C.3       6 GLL5        0.0000 
     47 CA          7.8030   34.0410   64.0290 C.3       4 GLP5        0.0000 
     48 CA          7.9335   35.8233   59.4275 C.3       2 GLC5        0.0000 
     49 CA          7.5810   33.9810   60.5610 C.3       6 GLL5        0.0000 
     50 CA          7.4020   37.5330   58.6390 C.3       4 GLP5        0.0000 
     51 CA         11.7800   29.8680   62.3308 C.3       2 GLC5        0.0000 
     52 CA         13.0250   31.3890   63.5000 C.3       6 GLL5        0.0000 
     53 CA         14.5335   29.8280   64.4147 C.3       2 GLC5        0.0000 
     54 CA         12.2085   31.6810   65.2057 C.3       2 GLC5        0.0000 
     55 CA         11.5080   32.8410   66.5910 C.3       4 GLP5        0.0000 
     56 CA         11.2893   30.8293   61.6440 C.3       2 GLC5        0.0000 
     57 CA         11.9490   31.8060   62.7390 C.3       6 GLL5        0.0000 
     58 CA         13.9005   30.5723   61.9484 C.3       2 GLC5        0.0000 
     59 CA         11.7178   32.6423   64.5190 C.3       2 GLC5        0.0000 
     60 CA         13.5128   33.1780   65.1620 C.3       2 GLC5        0.0000 
     61 CA         12.8500   33.4690   66.8580 C.3       4 GLP5        0.0000 
     62 CA         14.6240   32.5675   61.3920 C.3       2 GLC5        0.0000 
     63 CA         15.6270   31.3590   59.9990 C.3       4 GLP5        0.0000 
     64 CA         14.3695   35.5265   63.1585 C.3       2 GLC5        0.0000 
     65 CA         15.1180   37.2770   63.5320 C.3       4 GLP5        0.0000 
@<TRIPOS>BOND
@<TRIPOS>SUBSTRUCTURE
     1 SEC2       15 GROUP        1 X    SEC  0     ROOT SEC X 2
     2 GLC5        1 GROUP        1 X    GLC  0     **** GLC X 6
     3 SEP2       17 GROUP        1 Y    SEP  0     ROOT SEP Y 9
     4 GLP5        3 GROUP        1 Y    GLP  0     **** GLP Y 13
     5 SEL2       16 GROUP        1 Z    SEL  0     ROOT SEL Z 16
     6 GLL5        2 GROUP        1 Z    GLL  0     **** GLL Z 20
@<TRIPOS>SET

