#    Name: 2h7l_665_1_ligand
#    Modification time : Tue Mar 25 15:42:19 2014

@<TRIPOS>MOLECULE
2h7l_665_1_ligand
   43    45     1     0     0
SMALL
NO_CHARGES


@<TRIPOS>ATOM
      1 C1          4.5050   30.9890   58.3890 C.3       1 665401      0.0000 
      2 C2          5.3290   32.2090   58.7070 C.3       1 665401      0.0000 
      3 C3          6.9000   32.1060   58.5910 C.3       1 665401      0.0000 
      4 C4          7.4920   30.8950   59.2870 C.3       1 665401      0.0000 
      5 C5          6.8090   29.6420   58.6100 C.3       1 665401      0.0000 
      6 C6          5.2130   29.6220   58.6460 C.3       1 665401      0.0000 
      7 C7          8.5640   33.6690   58.3550 C.2       1 665401      0.0000 
      8 C8          9.5830   34.1380   59.2030 C.3       1 665401      0.0000 
      9 C9          9.1150   34.3540   60.5390 C.3       1 665401      0.0000 
     10 C10         7.5810   33.9810   60.5610 C.3       1 665401      0.0000 
     11 N11         7.3350   33.5400   58.9960 N.am      1 665401      0.0000 
     12 C12         9.7270   33.4530   61.5390 C.2       1 665401      0.0000 
     13 N13        10.9850   34.0740   62.0520 N.am      1 665401      0.0000 
     14 O14         9.2590   32.3990   61.8130 O.2       1 665401      0.0000 
     15 O15         8.8200   33.4300   57.1690 O.2       1 665401      0.0000 
     16 BR1        12.7930   29.6530   64.1410 Br        1 665401      0.0000 
     17 C17        11.9490   31.8060   62.7390 C.ar      1 665401      0.0000 
     18 C18        13.0250   31.3890   63.5000 C.ar      1 665401      0.0000 
     19 C19        14.1640   32.2170   63.7490 C.ar      1 665401      0.0000 
     20 C20        14.1870   33.5570   63.1830 C.ar      1 665401      0.0000 
     21 C21        13.0550   33.9950   62.3870 C.ar      1 665401      0.0000 
     22 C22        11.9060   33.0810   62.1550 C.ar      1 665401      0.0000 
     23 H           4.1956   31.0122   57.3263 H         1 665401      0.0000 
     24 H           3.5720   31.0011   58.9849 H         1 665401      0.0000 
     25 H           5.1025   32.5553   59.7479 H         1 665401      0.0000 
     26 H           5.0104   33.0596   58.0517 H         1 665401      0.0000 
     27 H           7.0720   32.0409   57.4896 H         1 665401      0.0000 
     28 H           7.2406   30.8934   60.3196 H         1 665401      0.0000 
     29 H           8.5392   30.8361   59.1154 H         1 665401      0.0000 
     30 H           7.1703   28.7338   59.1082 H         1 665401      0.0000 
     31 H           7.1246   29.5951   57.5603 H         1 665401      0.0000 
     32 H           4.8716   28.8941   57.8938 H         1 665401      0.0000 
     33 H           4.9065   29.2389   59.6316 H         1 665401      0.0000 
     34 H          10.0176   35.0879   58.8033 H         1 665401      0.0000 
     35 H          10.4387   33.4180   59.2208 H         1 665401      0.0000 
     36 H           9.1759   35.3635   60.8501 H         1 665401      0.0000 
     37 H           7.0101   34.8220   60.7427 H         1 665401      0.0000 
     38 H           7.4231   33.1475   61.1496 H         1 665401      0.0000 
     39 H          11.0464   34.9811   62.2422 H         1 665401      0.0000 
     40 H          11.1446   31.1633   62.5900 H         1 665401      0.0000 
     41 H          14.9342   31.8922   64.2991 H         1 665401      0.0000 
     42 H          14.9651   34.1610   63.3395 H         1 665401      0.0000 
     43 H          13.0336   34.9147   61.9856 H         1 665401      0.0000 
@<TRIPOS>BOND
     1    2    1 1    
     2    6    1 1    
     3   23    1 1    
     4   24    1 1    
     5    3    2 1    
     6   25    2 1    
     7   26    2 1    
     8    4    3 1    
     9   11    3 1    
    10   27    3 1    
    11    5    4 1    
    12   28    4 1    
    13   29    4 1    
    14    6    5 1    
    15   30    5 1    
    16   31    5 1    
    17   32    6 1    
    18   33    6 1    
    19    8    7 1    
    20   11    7 am   
    21   15    7 2    
    22    9    8 1    
    23   34    8 1    
    24   35    8 1    
    25   10    9 1    
    26   12    9 1    
    27   36    9 1    
    28   11   10 1    
    29   37   10 1    
    30   38   10 1    
    31   13   12 am   
    32   14   12 2    
    33   22   13 1    
    34   39   13 1    
    35   18   16 1    
    36   18   17 ar   
    37   22   17 ar   
    38   40   17 1    
    39   19   18 ar   
    40   20   19 ar   
    41   41   19 1    
    42   21   20 ar   
    43   42   20 1    
    44   22   21 ar   
    45   43   21 1    
@<TRIPOS>SUBSTRUCTURE
     1 665401      1 GROUP   
@<TRIPOS>SET

