#    Name: 4aoi_4K0_1_INTS_M
#    Modification time : Tue Mar 25 05:54:59 2014

@<TRIPOS>MOLECULE
4aoi_4K0_1_INTS_M
   58     0     9     0     0
SMALL
NO_CHARGES


@<TRIPOS>ATOM
      1 CA         20.0150   81.0050    4.9070 C.3       3 GLC5        0.0000 
      2 CA         18.6110   81.5680    3.5270 C.3       9 GLL5        0.0000 
      3 CA         21.4190   80.4420    6.2870 C.3       6 GLP5        0.0000 
      4 CA         20.9185   82.0350    4.0585 C.3       3 GLC5        0.0000 
      5 CA         19.2960   82.5180    2.6890 C.3       9 GLL5        0.0000 
      6 CA         22.5410   81.5520    5.4280 C.3       6 GLP5        0.0000 
      7 N          17.4205   82.1535    9.7810 N.am      2 SEC2        0.0000 
      8 N          18.0940   82.9970    8.7720 N.am      8 SEL2        0.0000 
      9 N          16.7470   81.3100   10.7900 N.am      5 SEP2        0.0000 
     10 CA         18.9590   86.7620    5.3955 C.3       3 GLC5        0.0000 
     11 CA         19.6400   85.7180    6.9930 C.3       9 GLL5        0.0000 
     12 CA         18.2780   87.8060    3.7980 C.3       6 GLP5        0.0000 
     13 CA         17.5905   85.2605    6.5170 C.3       3 GLC5        0.0000 
     14 CA         15.5410   84.8030    6.0410 C.3       6 GLP5        0.0000 
     15 CA         21.2685   84.9480   10.1025 C.3       3 GLC5        0.0000 
     16 CA         21.9560   85.7590    8.1850 C.3       9 GLL5        0.0000 
     17 CA         20.5810   84.1370   12.0200 C.3       6 GLP5        0.0000 
     18 CA         21.9355   87.1175    9.5030 C.3       3 GLC5        0.0000 
     19 CA         21.9150   88.4760   10.8210 C.3       6 GLP5        0.0000 
     20 CA         22.4065   86.6770    3.1100 C.3       3 GLC5        0.0000 
     21 CA         21.8560   85.1870    4.5650 C.3       9 GLL5        0.0000 
     22 CA         22.9570   88.1670    1.6550 C.3       6 GLP5        0.0000 
     23 CA         24.3910   84.0380    7.5125 C.3       3 GLC5        0.0000 
     24 CA         23.3590   85.3970    6.4730 C.3       9 GLL5        0.0000 
     25 CA         25.4230   82.6790    8.5520 C.3       6 GLP5        0.0000 
     26 O          24.2920   86.0120    8.7300 O.2       1 ALC1        0.0000 
     27 O          23.2880   85.6170    7.8230 O.2       7 ALL1        0.0000 
     28 O          25.2960   86.4070    9.6370 O.2       4 ALP1        0.0000 
     29 N          25.7870   84.9220    6.4085 N.am      2 SEC2        0.0000 
     30 N          24.4910   85.2100    5.7330 N.am      8 SEL2        0.0000 
     31 N          27.0830   84.6340    7.0840 N.am      5 SEP2        0.0000 
     32 CA         25.1950   83.7090    5.7885 C.3       3 GLC5        0.0000 
     33 CA         24.3150   85.0050    4.3800 C.3       9 GLL5        0.0000 
     34 CA         26.0750   82.4130    7.1970 C.3       6 GLP5        0.0000 
     35 CA         19.8105   79.2972    2.2485 C.3       3 GLC5        0.0000 
     36 CA         19.0320   81.0490    0.7060 C.3       9 GLL5        0.0000 
     37 CA         20.9320   78.0230    3.3810 C.3       6 GLP5        0.0000 
     38 CA         19.0842   84.1910    1.1487 C.3       3 GLC5        0.0000 
     39 CA         19.5030   82.2600    1.2980 C.3       9 GLL5        0.0000 
     40 CA         18.7690   85.9930    0.3040 C.3       6 GLP5        0.0000 
     41 CA         16.5500   81.0420    2.5983 C.3       3 GLC5        0.0000 
     42 CA         18.3460   80.0940    1.5260 C.3       9 GLL5        0.0000 
     43 CA         14.8580   81.8630    2.9730 C.3       6 GLP5        0.0000 
     44 CA         19.6532   79.4905    3.3025 C.3       3 GLC5        0.0000 
     45 CA         18.1380   80.3480    2.9210 C.3       9 GLL5        0.0000 
     46 CA         16.9057   81.9530    3.0405 C.3       3 GLC5        0.0000 
     47 CA         19.9860   86.8675    8.5260 C.3       3 GLC5        0.0000 
     48 CA         19.5710   88.0620   10.0300 C.3       6 GLP5        0.0000 
     49 CA         21.1363   87.0635    4.9241 C.3       3 GLC5        0.0000 
     50 CA         20.5380   88.7770    4.3120 C.3       6 GLP5        0.0000 
     51 CA         23.8833   86.6977    3.3487 C.3       3 GLC5        0.0000 
     52 CA         23.0260   84.9840    3.7510 C.3       9 GLL5        0.0000 
     53 CA         24.0960   88.4010    2.6320 C.3       6 GLP5        0.0000 
     54 CA         23.1058   83.2733    4.7468 C.3       3 GLC5        0.0000 
     55 CA         22.6003   83.4484    5.6484 C.3       3 GLC5        0.0000 
     56 CA         22.0640   85.3980    5.9640 C.3       9 GLL5        0.0000 
     57 CA         22.8516   87.1768    6.8051 C.3       3 GLC5        0.0000 
     58 CA         23.5680   88.8080    6.6920 C.3       6 GLP5        0.0000 
@<TRIPOS>BOND
@<TRIPOS>SUBSTRUCTURE
     1 ALC1       26 GROUP        1 X    ALC  0     ROOT ALC X 1
     2 SEC2        7 GROUP        1 X    SEC  0     **** SEC X 2
     3 GLC5        1 GROUP        1 X    GLC  0     **** GLC X 6
     4 ALP1       28 GROUP        1 Y    ALP  0     ROOT ALP Y 8
     5 SEP2        9 GROUP        1 Y    SEP  0     **** SEP Y 9
     6 GLP5        3 GROUP        1 Y    GLP  0     **** GLP Y 13
     7 ALL1       27 GROUP        1 Z    ALL  0     ROOT ALL Z 15
     8 SEL2        8 GROUP        1 Z    SEL  0     **** SEL Z 16
     9 GLL5        2 GROUP        1 Z    GLL  0     **** GLL Z 20
@<TRIPOS>SET

