#    Name: 4aoi_4K0_1_ligand
#    Modification time : Tue Mar 25 05:54:59 2014

@<TRIPOS>MOLECULE
4aoi_4K0_1_ligand
   39    43     1     0     0
SMALL
NO_CHARGES


@<TRIPOS>ATOM
      1 N23        19.4290   80.5960   -1.7810 N.1       1 4K02345     0.0000 
      2 C22        19.2430   80.8020   -0.6550 C.1       1 4K02345     0.0000 
      3 C19        19.0320   81.0490    0.7060 C.ar      1 4K02345     0.0000 
      4 C20        19.5030   82.2600    1.2980 C.ar      1 4K02345     0.0000 
      5 C18        18.3460   80.0940    1.5260 C.ar      1 4K02345     0.0000 
      6 C17        18.1380   80.3480    2.9210 C.ar      1 4K02345     0.0000 
      7 C16        18.6110   81.5680    3.5270 C.ar      1 4K02345     0.0000 
      8 C21        19.2960   82.5180    2.6890 C.ar      1 4K02345     0.0000 
      9 C12        18.4240   81.8770    4.9850 C.2       1 4K02345     0.0000 
     10 N15        18.8480   83.0920    5.4400 N.2       1 4K02345     0.0000 
     11 N7         18.6770   83.3270    6.7090 N.pl3     1 4K02345     0.0000 
     12 C8         18.1060   82.4450    7.6060 C.2       1 4K02345     0.0000 
     13 N14        17.6560   81.2180    7.2460 N.2       1 4K02345     0.0000 
     14 C13        17.8240   80.9390    5.9090 C.2       1 4K02345     0.0000 
     15 C11        18.9860   84.4260    7.4700 C.2       1 4K02345     0.0000 
     16 N10        18.6230   84.1870    8.6910 N.2       1 4K02345     0.0000 
     17 N9         18.0940   82.9970    8.7720 N.2       1 4K02345     0.0000 
     18 C24        19.6400   85.7180    6.9930 C.3       1 4K02345     0.0000 
     19 C25        21.1620   85.6280    7.0510 C.2       1 4K02345     0.0000 
     20 C26        21.9560   85.7590    8.1850 C.2       1 4K02345     0.0000 
     21 C1         22.0640   85.3980    5.9640 C.ar      1 4K02345     0.0000 
     22 C6         21.8560   85.1870    4.5650 C.ar      1 4K02345     0.0000 
     23 C5         23.0260   84.9840    3.7510 C.ar      1 4K02345     0.0000 
     24 C2         23.3590   85.3970    6.4730 C.ar      1 4K02345     0.0000 
     25 N27        23.2880   85.6170    7.8230 N.pl3     1 4K02345     0.0000 
     26 N3         24.4910   85.2100    5.7330 N.ar      1 4K02345     0.0000 
     27 C4         24.3150   85.0050    4.3800 C.ar      1 4K02345     0.0000 
     28 H          19.9913   82.9473    0.7245 H         1 4K02345     0.0000 
     29 H          18.0039   79.2284    1.1139 H         1 4K02345     0.0000 
     30 H          17.6511   79.6616    3.4941 H         1 4K02345     0.0000 
     31 H          19.6377   83.3886    3.0991 H         1 4K02345     0.0000 
     32 H          17.5168   80.0247    5.5180 H         1 4K02345     0.0000 
     33 H          19.3050   86.5448    7.6229 H         1 4K02345     0.0000 
     34 H          19.3312   85.9195    5.9651 H         1 4K02345     0.0000 
     35 H          21.6351   85.9205    9.0689 H         1 4K02345     0.0000 
     36 H          20.9461   85.1800    4.1679 H         1 4K02345     0.0000 
     37 H          22.9390   84.8310    2.7631 H         1 4K02345     0.0000 
     38 H          24.0294   85.6665    8.4265 H         1 4K02345     0.0000 
     39 H          25.1468   84.8556    3.7645 H         1 4K02345     0.0000 
@<TRIPOS>BOND
     1    2    1 3    
     2    3    2 1    
     3    4    3 ar   
     4    5    3 ar   
     5    8    4 ar   
     6   28    4 1    
     7    6    5 ar   
     8   29    5 1    
     9    7    6 ar   
    10   30    6 1    
    11    8    7 ar   
    12    9    7 1    
    13   31    8 1    
    14   10    9 2    
    15   14    9 1    
    16   11   10 1    
    17   12   11 1    
    18   15   11 1    
    19   13   12 1    
    20   17   12 2    
    21   14   13 2    
    22   32   14 1    
    23   16   15 2    
    24   18   15 1    
    25   17   16 1    
    26   19   18 1    
    27   33   18 1    
    28   34   18 1    
    29   20   19 2    
    30   21   19 1    
    31   25   20 1    
    32   35   20 1    
    33   22   21 ar   
    34   24   21 ar   
    35   23   22 ar   
    36   36   22 1    
    37   27   23 ar   
    38   37   23 1    
    39   25   24 1    
    40   26   24 ar   
    41   38   25 1    
    42   27   26 ar   
    43   39   27 1    
@<TRIPOS>SUBSTRUCTURE
     1 4K02345     1 GROUP   
@<TRIPOS>SET

