#    Name: 1mrq_STR_1_INTS_M
#    Modification time : Tue Mar 25 12:01:42 2014

@<TRIPOS>MOLECULE
1mrq_STR_1_INTS_M
   54     0     6     0     0
SMALL
NO_CHARGES


@<TRIPOS>ATOM
      1 CA          1.3375   36.9490   14.7865 C.3       2 GLC5        0.0000 
      2 CA         -0.0940   35.7250   15.6970 C.3       6 GLL5        0.0000 
      3 CA          2.7690   38.1730   13.8760 C.3       4 GLP5        0.0000 
      4 CA         -1.0485   37.0060   13.3590 C.3       2 GLC5        0.0000 
      5 CA         -1.4490   35.6910   14.9910 C.3       6 GLL5        0.0000 
      6 CA         -0.6480   38.3210   11.7270 C.3       4 GLP5        0.0000 
      7 CA          1.0535   30.9695   14.3135 C.3       2 GLC5        0.0000 
      8 CA          1.6390   32.5680   14.1480 C.3       6 GLL5        0.0000 
      9 CA          0.4680   29.3710   14.4790 C.3       4 GLP5        0.0000 
     10 CA          2.6265   31.3030   12.5875 C.3       2 GLC5        0.0000 
     11 CA          3.6140   30.0380   11.0270 C.3       4 GLP5        0.0000 
     12 CA          4.2370   37.4030   18.8330 C.3       2 GLC5        0.0000 
     13 CA          3.5520   35.4740   18.1780 C.3       6 GLL5        0.0000 
     14 CA          4.9220   39.3320   19.4880 C.3       4 GLP5        0.0000 
     15 CA          7.1980   31.6290   18.3975 C.3       2 GLC5        0.0000 
     16 CA          6.5760   33.3120   17.5210 C.3       6 GLL5        0.0000 
     17 CA          7.8200   29.9460   19.2740 C.3       4 GLP5        0.0000 
     18 CA          2.9425   31.4890   18.8510 C.3       2 GLC5        0.0000 
     19 CA          3.8120   33.1080   18.9870 C.3       6 GLL5        0.0000 
     20 CA          2.0730   29.8700   18.7150 C.3       4 GLP5        0.0000 
     21 N           6.5190   32.6315   21.2505 N.am      1 SEC2        0.0000 
     22 N           7.1100   33.3320   20.1230 N.am      5 SEL2        0.0000 
     23 N           5.9280   31.9310   22.3780 N.am      3 SEP2        0.0000 
     24 CA          5.2255   36.1650   21.5705 C.3       2 GLC5        0.0000 
     25 CA          6.5350   35.6250   20.4000 C.3       6 GLL5        0.0000 
     26 CA          3.9160   36.7050   22.7410 C.3       4 GLP5        0.0000 
     27 CA          6.3855   37.2775   19.8440 C.3       2 GLC5        0.0000 
     28 CA          6.2360   38.9300   19.2880 C.3       4 GLP5        0.0000 
     29 CA          8.1315   35.1650   20.8430 C.3       2 GLC5        0.0000 
     30 CA          9.7280   34.7050   21.2860 C.3       4 GLP5        0.0000 
     31 CA          1.1757   33.7248   12.4637 C.3       2 GLC5        0.0000 
     32 CA          0.6270   33.6590   14.4470 C.3       6 GLL5        0.0000 
     33 CA          2.1700   33.6410   10.9620 C.3       4 GLP5        0.0000 
     34 CA          2.2542   33.1925   12.6790 C.3       2 GLC5        0.0000 
     35 CA          2.0202   31.4763   16.0562 C.3       2 GLC5        0.0000 
     36 CA          3.0380   32.9200   14.6440 C.3       6 GLL5        0.0000 
     37 CA          1.0190   29.7920   16.7450 C.3       4 GLP5        0.0000 
     38 CA          3.6277   35.6838   15.6905 C.3       2 GLC5        0.0000 
     39 CA          3.0050   33.4010   16.0910 C.3       6 GLL5        0.0000 
     40 CA          4.7170   37.3550   15.2180 C.3       4 GLP5        0.0000 
     41 CA          2.5090   35.8718   19.4990 C.3       2 GLC5        0.0000 
     42 CA          2.1360   35.2770   17.6280 C.3       6 GLL5        0.0000 
     43 CA          2.1740   36.3680   21.0950 C.3       4 GLP5        0.0000 
     44 CA          3.7805   36.3653   16.5605 C.3       2 GLC5        0.0000 
     45 CA          3.0850   34.3445   19.9885 C.3       2 GLC5        0.0000 
     46 CA          4.3820   34.2020   18.0670 C.3       6 GLL5        0.0000 
     47 CA          2.0730   35.0340   21.4500 C.3       4 GLP5        0.0000 
     48 CA          7.2380   32.1515   16.1262 C.3       2 GLC5        0.0000 
     49 CA          5.5520   32.7780   16.5140 C.3       6 GLL5        0.0000 
     50 CA          8.4120   31.2580   15.2350 C.3       4 GLP5        0.0000 
     51 CA          4.9219   35.7717   16.5307 C.3       2 GLC5        0.0000 
     52 CA          5.8640   34.3890   18.3490 C.3       6 GLL5        0.0000 
     53 CA          0.1805   31.8320   15.8219 C.3       2 GLC5        0.0000 
     54 CA          0.1110   29.9140   15.6860 C.3       4 GLP5        0.0000 
@<TRIPOS>BOND
@<TRIPOS>SUBSTRUCTURE
     1 SEC2       21 GROUP        1 X    SEC  0     ROOT SEC X 2
     2 GLC5        1 GROUP        1 X    GLC  0     **** GLC X 6
     3 SEP2       23 GROUP        1 Y    SEP  0     ROOT SEP Y 9
     4 GLP5        3 GROUP        1 Y    GLP  0     **** GLP Y 13
     5 SEL2       22 GROUP        1 Z    SEL  0     ROOT SEL Z 16
     6 GLL5        2 GROUP        1 Z    GLL  0     **** GLL Z 20
@<TRIPOS>SET

