#    Name: 1mrq_STR_1_ligand
#    Modification time : Tue Mar 25 12:01:42 2014

@<TRIPOS>MOLECULE
1mrq_STR_1_ligand
   53    56     1     0     0
SMALL
NO_CHARGES


@<TRIPOS>ATOM
      1 C1         -0.0940   35.7250   15.6970 C.3       1 STR501      0.0000 
      2 C2         -1.4490   35.6910   14.9910 C.3       1 STR501      0.0000 
      3 C3         -1.2970   34.9980   13.6580 C.2       1 STR501      0.0000 
      4 O3         -2.0260   35.2970   12.7260 O.2       1 STR501      0.0000 
      5 C4         -0.2640   33.9580   13.4840 C.2       1 STR501      0.0000 
      6 C5          0.6270   33.6590   14.4470 C.2       1 STR501      0.0000 
      7 C6          1.6390   32.5680   14.1480 C.3       1 STR501      0.0000 
      8 C7          3.0380   32.9200   14.6440 C.3       1 STR501      0.0000 
      9 C8          3.0050   33.4010   16.0910 C.3       1 STR501      0.0000 
     10 C9          2.0720   34.6240   16.2350 C.3       1 STR501      0.0000 
     11 C10         0.6210   34.3710   15.7920 C.3       1 STR501      0.0000 
     12 C11         2.1360   35.2770   17.6280 C.3       1 STR501      0.0000 
     13 C12         3.5520   35.4740   18.1780 C.3       1 STR501      0.0000 
     14 C13         4.3820   34.2020   18.0670 C.3       1 STR501      0.0000 
     15 C14         4.3970   33.7740   16.6090 C.3       1 STR501      0.0000 
     16 C15         5.5520   32.7780   16.5140 C.3       1 STR501      0.0000 
     17 C16         6.5760   33.3120   17.5210 C.3       1 STR501      0.0000 
     18 C17         5.8640   34.3890   18.3490 C.3       1 STR501      0.0000 
     19 C18         3.8120   33.1080   18.9870 C.3       1 STR501      0.0000 
     20 C19        -0.1240   33.4850   16.7960 C.3       1 STR501      0.0000 
     21 C20         6.1250   34.3040   19.8260 C.2       1 STR501      0.0000 
     22 O20         7.1100   33.3320   20.1230 O.2       1 STR501      0.0000 
     23 C21         6.5350   35.6250   20.4000 C.3       1 STR501      0.0000 
     24 H          -0.2327   36.1244   16.7192 H         1 STR501      0.0000 
     25 H           0.5669   36.4379   15.1693 H         1 STR501      0.0000 
     26 H          -1.7965   36.7065   14.8405 H         1 STR501      0.0000 
     27 H          -2.1575   35.1507   15.6081 H         1 STR501      0.0000 
     28 H          -0.2704   33.4703   12.5653 H         1 STR501      0.0000 
     29 H           1.6770   32.3958   13.0653 H         1 STR501      0.0000 
     30 H           1.3161   31.6338   14.6239 H         1 STR501      0.0000 
     31 H           3.4559   33.7058   14.0133 H         1 STR501      0.0000 
     32 H           3.6770   32.0389   14.5724 H         1 STR501      0.0000 
     33 H           2.6068   32.6106   16.7178 H         1 STR501      0.0000 
     34 H           2.4774   35.4083   15.5185 H         1 STR501      0.0000 
     35 H           1.5603   34.6552   18.3355 H         1 STR501      0.0000 
     36 H           1.6303   36.2572   17.5813 H         1 STR501      0.0000 
     37 H           3.4877   35.7740   19.2268 H         1 STR501      0.0000 
     38 H           4.0419   36.2758   17.6202 H         1 STR501      0.0000 
     39 H           4.7391   34.6968   16.0541 H         1 STR501      0.0000 
     40 H           5.9658   32.7982   15.5389 H         1 STR501      0.0000 
     41 H           5.2240   31.8163   16.8139 H         1 STR501      0.0000 
     42 H           7.4006   33.7503   16.9967 H         1 STR501      0.0000 
     43 H           6.8946   32.5177   18.1648 H         1 STR501      0.0000 
     44 H           6.1500   35.3542   17.9666 H         1 STR501      0.0000 
     45 H           4.3446   32.2633   18.9338 H         1 STR501      0.0000 
     46 H           3.8095   33.3930   19.9455 H         1 STR501      0.0000 
     47 H           2.8692   32.8756   18.7478 H         1 STR501      0.0000 
     48 H           0.3050   32.5864   16.8882 H         1 STR501      0.0000 
     49 H          -0.1456   33.8944   17.7081 H         1 STR501      0.0000 
     50 H          -1.0731   33.3300   16.5218 H         1 STR501      0.0000 
     51 H           6.7080   35.5651   21.3831 H         1 STR501      0.0000 
     52 H           7.3719   35.9707   19.9756 H         1 STR501      0.0000 
     53 H           5.8301   36.3220   20.2684 H         1 STR501      0.0000 
@<TRIPOS>BOND
     1    2    1 1    
     2   11    1 1    
     3   24    1 1    
     4   25    1 1    
     5    3    2 1    
     6   26    2 1    
     7   27    2 1    
     8    4    3 2    
     9    5    3 1    
    10    6    5 2    
    11   28    5 1    
    12    7    6 1    
    13   11    6 1    
    14    8    7 1    
    15   29    7 1    
    16   30    7 1    
    17    9    8 1    
    18   31    8 1    
    19   32    8 1    
    20   10    9 1    
    21   15    9 1    
    22   33    9 1    
    23   11   10 1    
    24   12   10 1    
    25   34   10 1    
    26   20   11 1    
    27   13   12 1    
    28   35   12 1    
    29   36   12 1    
    30   14   13 1    
    31   37   13 1    
    32   38   13 1    
    33   15   14 1    
    34   18   14 1    
    35   19   14 1    
    36   16   15 1    
    37   39   15 1    
    38   17   16 1    
    39   40   16 1    
    40   41   16 1    
    41   18   17 1    
    42   42   17 1    
    43   43   17 1    
    44   21   18 1    
    45   44   18 1    
    46   45   19 1    
    47   46   19 1    
    48   47   19 1    
    49   48   20 1    
    50   49   20 1    
    51   50   20 1    
    52   22   21 2    
    53   23   21 1    
    54   51   23 1    
    55   52   23 1    
    56   53   23 1    
@<TRIPOS>SUBSTRUCTURE
     1 STR501      1 GROUP   
@<TRIPOS>SET

