#    Name: 3snl_548_1_INTS_M
#    Modification time : Mon Mar 24 17:59:47 2014

@<TRIPOS>MOLECULE
3snl_548_1_INTS_M
   53     0     6     0     0
SMALL
NO_CHARGES


@<TRIPOS>ATOM
      1 CA         14.5510  -41.8595  -18.5110 C.3       2 GLC5        0.0000 
      2 CA         14.8990  -40.8760  -20.2600 C.3       6 GLL5        0.0000 
      3 CA         14.2030  -42.8430  -16.7620 C.3       4 GLP5        0.0000 
      4 CA         16.6905  -40.6485  -19.5830 C.3       2 GLC5        0.0000 
      5 CA         18.4820  -40.4210  -18.9060 C.3       4 GLP5        0.0000 
      6 CA         16.4735  -40.5440  -21.3340 C.3       2 GLC5        0.0000 
      7 CA         18.0480  -40.2120  -22.4080 C.3       4 GLP5        0.0000 
      8 CA         12.5035  -36.7885  -23.7500 C.3       2 GLC5        0.0000 
      9 CA         14.1700  -37.4510  -23.9710 C.3       6 GLL5        0.0000 
     10 CA         10.8370  -36.1260  -23.5290 C.3       4 GLP5        0.0000 
     11 CA         20.6890  -36.0580  -20.4450 C.3       2 GLC5        0.0000 
     12 CA         19.0790  -35.1640  -20.9710 C.3       6 GLL5        0.0000 
     13 CA         22.2990  -36.9520  -19.9190 C.3       4 GLP5        0.0000 
     14 CA         17.4175  -38.9520  -25.1780 C.3       2 GLC5        0.0000 
     15 CA         15.8260  -38.8030  -24.3740 C.3       6 GLL5        0.0000 
     16 CA         19.0090  -39.1010  -25.9820 C.3       4 GLP5        0.0000 
     17 CA         10.9340  -37.6760  -22.1910 C.3       2 GLC5        0.0000 
     18 CA         11.0310  -39.2260  -20.8530 C.3       6 GLL5        0.0000 
     19 N          18.6915  -35.4515  -18.2935 N.am      1 SEC2        0.0000 
     20 N          17.4170  -36.1670  -18.6740 N.am      5 SEL2        0.0000 
     21 N          19.9660  -34.7360  -17.9130 N.am      3 SEP2        0.0000 
     22 CA         12.7780  -37.0490  -17.3880 C.3       2 GLC5        0.0000 
     23 CA         14.7330  -37.8860  -16.7760 C.3       6 GLL5        0.0000 
     24 CA         10.8230  -36.2120  -18.0000 C.3       4 GLP5        0.0000 
     25 CA         16.2945  -34.9205  -15.1840 C.3       2 GLC5        0.0000 
     26 CA         17.3130  -36.1060  -16.2700 C.3       6 GLL5        0.0000 
     27 CA         15.2760  -33.7350  -14.0980 C.3       4 GLP5        0.0000 
     28 CA         17.5375  -37.7515  -16.0170 C.3       2 GLC5        0.0000 
     29 CA         17.7620  -39.3970  -15.7640 C.3       4 GLP5        0.0000 
     30 CA         14.5150  -39.8935  -15.4785 C.3       2 GLC5        0.0000 
     31 CA         14.7300  -37.8070  -15.2970 C.3       6 GLL5        0.0000 
     32 CA         14.3000  -41.9800  -15.6600 C.3       4 GLP5        0.0000 
     33 CA         12.7245  -37.2055  -14.9725 C.3       2 GLC5        0.0000 
     34 CA         10.7190  -36.6040  -14.6480 C.3       4 GLP5        0.0000 
     35 CA         14.8490  -37.8595  -13.5150 C.3       2 GLC5        0.0000 
     36 CA         14.9680  -37.9120  -11.7330 C.3       4 GLP5        0.0000 
     37 CA         15.0030  -35.7710  -14.6975 C.3       2 GLC5        0.0000 
     38 CA         16.2460  -38.6020  -15.5305 C.3       2 GLC5        0.0000 
     39 CA         17.6698  -33.7238  -20.7940 C.3       2 GLC5        0.0000 
     40 CA         17.6540  -36.1390  -21.0970 C.3       6 GLL5        0.0000 
     41 CA         16.9730  -31.7960  -20.5540 C.3       4 GLP5        0.0000 
     42 CA         17.6893  -37.4218  -24.7127 C.3       2 GLC5        0.0000 
     43 CA         15.9920  -36.6960  -24.8820 C.3       6 GLL5        0.0000 
     44 CA         19.6190  -37.7200  -25.0190 C.3       4 GLP5        0.0000 
     45 CA         16.8622  -39.1945  -23.2802 C.3       2 GLC5        0.0000 
     46 CA         15.5270  -37.5510  -23.9310 C.3       6 GLL5        0.0000 
     47 CA         11.5509  -37.6218  -19.0202 C.3       2 GLC5        0.0000 
     48 CA         11.8420  -38.6180  -19.9130 C.3       6 GLL5        0.0000 
     49 CA         16.4642  -38.5070  -16.5022 C.3       2 GLC5        0.0000 
     50 CA         17.4273  -38.6860  -19.4737 C.3       2 GLC5        0.0000 
     51 CA         15.7950  -37.3480  -20.1300 C.3       6 GLL5        0.0000 
     52 CA         18.1378  -37.3055  -23.7425 C.3       2 GLC5        0.0000 
     53 CA         16.0840  -37.2840  -22.5520 C.3       6 GLL5        0.0000 
@<TRIPOS>BOND
@<TRIPOS>SUBSTRUCTURE
     1 SEC2       19 GROUP        1 X    SEC  0     ROOT SEC X 2
     2 GLC5        1 GROUP        1 X    GLC  0     **** GLC X 6
     3 SEP2       21 GROUP        1 Y    SEP  0     ROOT SEP Y 9
     4 GLP5        3 GROUP        1 Y    GLP  0     **** GLP Y 13
     5 SEL2       20 GROUP        1 Z    SEL  0     ROOT SEL Z 16
     6 GLL5        2 GROUP        1 Z    GLL  0     **** GLL Z 20
@<TRIPOS>SET

