#    Name: 3snl_548_1_ligand
#    Modification time : Mon Mar 24 17:59:47 2014

@<TRIPOS>MOLECULE
3snl_548_1_ligand
   41    44     1     0     0
SMALL
NO_CHARGES


@<TRIPOS>ATOM
      1 C1         14.8990  -40.8760  -20.2600 C.3       1 5481        0.0000 
      2 F1         14.1700  -37.4510  -23.9710 F         1 5481        0.0000 
      3 N1         11.4050  -40.3000  -21.5770 N.ar      1 5481        0.0000 
      4 CL1        19.0790  -35.1640  -20.9710 Cl        1 5481        0.0000 
      5 C2         13.5440  -40.2590  -20.4340 C.ar      1 5481        0.0000 
      6 F2         15.9920  -36.6960  -24.8820 F         1 5481        0.0000 
      7 N2         13.7460  -38.5910  -17.4100 N.2       1 5481        0.0000 
      8 C3         12.6450  -40.7900  -21.3530 C.ar      1 5481        0.0000 
      9 F3         15.8260  -38.8030  -24.3740 F         1 5481        0.0000 
     10 N3         15.1220  -37.7410  -18.9430 N.pl3     1 5481        0.0000 
     11 C4         11.0310  -39.2260  -20.8530 C.ar      1 5481        0.0000 
     12 N4         17.4170  -36.1670  -18.6740 N.2       1 5481        0.0000 
     13 C5         11.8420  -38.6180  -19.9130 C.ar      1 5481        0.0000 
     14 C6         13.1210  -39.1410  -19.6980 C.ar      1 5481        0.0000 
     15 C7         13.9820  -38.5020  -18.7070 C.2       1 5481        0.0000 
     16 C8         14.7330  -37.8860  -16.7760 C.2       1 5481        0.0000 
     17 C9         15.6000  -37.3480  -17.7050 C.2       1 5481        0.0000 
     18 C10        15.7950  -37.3480  -20.1300 C.ar      1 5481        0.0000 
     19 C11        15.3710  -37.7060  -21.4160 C.ar      1 5481        0.0000 
     20 C12        16.0840  -37.2840  -22.5520 C.ar      1 5481        0.0000 
     21 C13        17.2290  -36.4980  -22.3800 C.ar      1 5481        0.0000 
     22 C14        17.6540  -36.1390  -21.0970 C.ar      1 5481        0.0000 
     23 C15        16.9500  -36.5540  -19.9530 C.ar      1 5481        0.0000 
     24 C16        16.7820  -36.5400  -17.6080 C.2       1 5481        0.0000 
     25 C17        17.3130  -36.1060  -16.2700 C.3       1 5481        0.0000 
     26 C18        15.5270  -37.5510  -23.9310 C.3       1 5481        0.0000 
     27 C19        14.7300  -37.8070  -15.2970 C.3       1 5481        0.0000 
     28 H          12.9697  -41.6383  -21.9090 H         1 5481        0.0000 
     29 H          10.0640  -38.8144  -21.0025 H         1 5481        0.0000 
     30 H          11.5226  -37.8083  -19.3858 H         1 5481        0.0000 
     31 H          14.5278  -38.2848  -21.5334 H         1 5481        0.0000 
     32 H          17.7604  -36.1829  -23.2018 H         1 5481        0.0000 
     33 H          15.4251  -40.8628  -21.1103 H         1 5481        0.0000 
     34 H          15.4413  -40.3934  -19.5723 H         1 5481        0.0000 
     35 H          14.8377  -41.8305  -19.9681 H         1 5481        0.0000 
     36 H          18.2440  -36.4365  -16.1149 H         1 5481        0.0000 
     37 H          17.3378  -35.1099  -16.1856 H         1 5481        0.0000 
     38 H          16.7508  -36.4500  -15.5180 H         1 5481        0.0000 
     39 H          14.7942  -38.7121  -14.8766 H         1 5481        0.0000 
     40 H          15.4989  -37.2685  -14.9523 H         1 5481        0.0000 
     41 H          13.8947  -37.3810  -14.9495 H         1 5481        0.0000 
@<TRIPOS>BOND
     1    5    1 1    
     2   33    1 1    
     3   34    1 1    
     4   35    1 1    
     5   26    2 1    
     6    8    3 ar   
     7   11    3 ar   
     8   22    4 1    
     9    8    5 ar   
    10   14    5 ar   
    11   26    6 1    
    12   15    7 2    
    13   16    7 1    
    14   28    8 1    
    15   26    9 1    
    16   15   10 1    
    17   17   10 1    
    18   18   10 1    
    19   13   11 ar   
    20   29   11 1    
    21   23   12 1    
    22   24   12 2    
    23   14   13 ar   
    24   30   13 1    
    25   15   14 1    
    26   17   16 2    
    27   27   16 1    
    28   24   17 1    
    29   19   18 ar   
    30   23   18 ar   
    31   20   19 ar   
    32   31   19 1    
    33   21   20 ar   
    34   26   20 1    
    35   22   21 ar   
    36   32   21 1    
    37   23   22 ar   
    38   25   24 1    
    39   36   25 1    
    40   37   25 1    
    41   38   25 1    
    42   39   27 1    
    43   40   27 1    
    44   41   27 1    
@<TRIPOS>SUBSTRUCTURE
     1 5481        1 GROUP   
@<TRIPOS>SET

