#    Name: 3g0u_MDY_2_INTS_M
#    Modification time : Tue Mar 25 06:58:26 2014

@<TRIPOS>MOLECULE
3g0u_MDY_2_INTS_M
   78     0     6     0     0
SMALL
NO_CHARGES


@<TRIPOS>ATOM
      1 CA         34.0095    9.4190   -0.3065 C.3       2 GLC5        0.0000 
      2 CA         32.6350    8.0230   -0.9190 C.3       6 GLL5        0.0000 
      3 CA         35.3840   10.8150    0.3060 C.3       4 GLP5        0.0000 
      4 CA         33.2750    6.1505   -0.6020 C.3       2 GLC5        0.0000 
      5 CA         33.9150    4.2780   -0.2850 C.3       4 GLP5        0.0000 
      6 CA         33.6635    7.6190   -2.7465 C.3       2 GLC5        0.0000 
      7 CA         34.6920    7.2150   -4.5740 C.3       4 GLP5        0.0000 
      8 CA         31.6170    6.4680   -1.9040 C.3       2 GLC5        0.0000 
      9 CA         30.5990    4.9130   -2.8890 C.3       4 GLP5        0.0000 
     10 CA         31.4515    8.1945   -2.5845 C.3       2 GLC5        0.0000 
     11 CA         30.2680    8.3660   -4.2500 C.3       4 GLP5        0.0000 
     12 CA         30.4965    7.9060   -0.5945 C.3       2 GLC5        0.0000 
     13 CA         28.3580    7.7890   -0.2700 C.3       4 GLP5        0.0000 
     14 CA         29.8155    7.5370    0.5315 C.3       2 GLC5        0.0000 
     15 CA         31.2730    7.2850    1.3330 C.3       6 GLL5        0.0000 
     16 CA         33.5460   13.4155   -1.5530 C.3       2 GLC5        0.0000 
     17 CA         32.4800   13.8990   -0.2920 C.3       6 GLL5        0.0000 
     18 CA         34.6120   12.9320   -2.8140 C.3       4 GLP5        0.0000 
     19 CA         32.8590   15.6585   -1.2160 C.3       2 GLC5        0.0000 
     20 CA         33.2380   17.4180   -2.1400 C.3       4 GLP5        0.0000 
     21 CA         31.2650   13.5595   -1.5115 C.3       2 GLC5        0.0000 
     22 CA         30.0500   13.2200   -2.7310 C.3       4 GLP5        0.0000 
     23 CA         32.1300   15.5780    0.5440 C.3       2 GLC5        0.0000 
     24 CA         31.7800   17.2570    1.3800 C.3       4 GLP5        0.0000 
     25 CA         35.4155   13.0900    4.5240 C.3       2 GLC5        0.0000 
     26 CA         33.8160   12.5380    3.2620 C.3       6 GLL5        0.0000 
     27 CA         37.0150   13.6420    5.7860 C.3       4 GLP5        0.0000 
     28 CA         36.3295   18.4555    5.0865 C.3       2 GLC5        0.0000 
     29 CA         34.8870   17.6530    3.9010 C.3       6 GLL5        0.0000 
     30 CA         37.7720   19.2580    6.2720 C.3       4 GLP5        0.0000 
     31 CA         34.5425   18.8810    5.7330 C.3       2 GLC5        0.0000 
     32 CA         34.1980   20.1090    7.5650 C.3       4 GLP5        0.0000 
     33 CA         33.0420   17.3700    3.3450 C.3       2 GLC5        0.0000 
     34 CA         31.1970   17.0870    2.7890 C.3       4 GLP5        0.0000 
     35 CA         37.1020   17.0545    1.0125 C.3       2 GLC5        0.0000 
     36 CA         35.8380   18.5640    1.1340 C.3       6 GLL5        0.0000 
     37 CA         38.3660   15.5450    0.8910 C.3       4 GLP5        0.0000 
     38 CA         36.8195   19.9835    2.1050 C.3       2 GLC5        0.0000 
     39 CA         37.8010   21.4030    3.0760 C.3       4 GLP5        0.0000 
     40 CA         33.8090   17.9105    1.2570 C.3       2 GLC5        0.0000 
     41 CA         36.1235   20.0080   -0.1375 C.3       2 GLC5        0.0000 
     42 CA         36.4090   21.4520   -1.4090 C.3       4 GLP5        0.0000 
     43 O          35.3625   17.0895   -0.7960 O.2       1 ALC1        0.0000 
     44 O          35.1430   16.3820    0.3380 O.2       5 ALL1        0.0000 
     45 O          35.5820   17.7970   -1.9300 O.2       3 ALP1        0.0000 
     46 CA         33.5875    9.9280    1.0547 C.3       2 GLC5        0.0000 
     47 CA         31.7960    9.4860    2.3480 C.3       6 GLL5        0.0000 
     48 CA         30.5355    7.8447    5.5358 C.3       2 GLC5        0.0000 
     49 CA         30.7080    7.7340    3.6370 C.3       6 GLL5        0.0000 
     50 CA         30.0910    7.3110    7.4780 C.3       4 GLP5        0.0000 
     51 CA         30.1165    9.5482    4.5942 C.3       2 GLC5        0.0000 
     52 CA         29.2530   10.7180    5.5950 C.3       4 GLP5        0.0000 
     53 CA         33.8090   11.0232    0.9832 C.3       2 GLC5        0.0000 
     54 CA         32.3670   10.8110    2.2190 C.3       6 GLL5        0.0000 
     55 CA         31.0376   11.5806    3.3144 C.3       2 GLC5        0.0000 
     56 CA         32.1010   11.6520    1.1020 C.3       6 GLL5        0.0000 
     57 CA         29.9840   12.2610    4.9360 C.3       4 GLP5        0.0000 
     58 CA         30.7533   12.6775   -0.1883 C.3       2 GLC5        0.0000 
     59 CA         29.0920   13.0930   -1.4750 C.3       4 GLP5        0.0000 
     60 CA         31.6898   14.4975    2.1955 C.3       2 GLC5        0.0000 
     61 CA         32.7280   12.8720    1.0950 C.3       6 GLL5        0.0000 
     62 CA         30.2190   15.8850    2.7800 C.3       4 GLP5        0.0000 
     63 CA         31.7428   12.0872    4.1018 C.3       2 GLC5        0.0000 
     64 CA         33.9913   11.3458    5.0653 C.3       2 GLC5        0.0000 
     65 CA         33.1870   11.2890    3.2730 C.3       6 GLL5        0.0000 
     66 CA         34.4810   10.7780    6.8630 C.3       4 GLP5        0.0000 
     67 CA         34.4428   11.3643    1.7868 C.3       2 GLC5        0.0000 
     68 CA         34.2413   12.0909    0.7851 C.3       2 GLC5        0.0000 
     69 CA         33.5930   13.3480    2.1270 C.3       6 GLL5        0.0000 
     70 CA         36.6990   16.2635    1.4882 C.3       2 GLC5        0.0000 
     71 CA         34.8370   16.7580    2.7860 C.3       6 GLL5        0.0000 
     72 CA         33.4060   17.1195    1.7328 C.3       2 GLC5        0.0000 
     73 CA         35.2270   17.2060    1.3850 C.3       6 GLL5        0.0000 
     74 CA         34.9647   18.0055   -0.6053 C.3       2 GLC5        0.0000 
     75 CA         34.3970   18.1260   -2.4700 C.3       4 GLP5        0.0000 
     76 CA         29.5905    8.4428    1.9186 C.3       2 GLC5        0.0000 
     77 CA         31.2520    9.0230    3.5500 C.3       6 GLL5        0.0000 
     78 CA         28.0570    8.7170    0.9560 C.3       4 GLP5        0.0000 
@<TRIPOS>BOND
@<TRIPOS>SUBSTRUCTURE
     1 ALC1       43 GROUP        1 X    ALC  0     ROOT ALC X 1
     2 GLC5        1 GROUP        1 X    GLC  0     **** GLC X 6
     3 ALP1       45 GROUP        1 Y    ALP  0     ROOT ALP Y 8
     4 GLP5        3 GROUP        1 Y    GLP  0     **** GLP Y 13
     5 ALL1       44 GROUP        1 Z    ALL  0     ROOT ALL Z 15
     6 GLL5        2 GROUP        1 Z    GLL  0     **** GLL Z 20
@<TRIPOS>SET

