#    Name: 3g0u_MDY_2_ligand
#    Modification time : Tue Mar 25 06:58:26 2014

@<TRIPOS>MOLECULE
3g0u_MDY_2_ligand
   39    40     1     0     0
SMALL
NO_CHARGES


@<TRIPOS>ATOM
      1 CAA        32.6350    8.0230   -0.9190 C.3       1 MDY2        0.0000 
      2 OAP        32.3050    9.0300    0.0920 O.3       1 MDY2        0.0000 
      3 CAW        31.7860    8.5960    1.2590 C.ar      1 MDY2        0.0000 
      4 CAJ        31.2730    7.2850    1.3330 C.ar      1 MDY2        0.0000 
      5 CAH        30.7450    6.8760    2.5340 C.ar      1 MDY2        0.0000 
      6 CAI        30.7080    7.7340    3.6370 C.ar      1 MDY2        0.0000 
      7 CAK        31.2520    9.0230    3.5500 C.ar      1 MDY2        0.0000 
      8 CAX        31.7960    9.4860    2.3480 C.ar      1 MDY2        0.0000 
      9 CAU        32.3670   10.8110    2.2190 C.ar      1 MDY2        0.0000 
     10 CAN        32.1010   11.6520    1.1020 C.ar      1 MDY2        0.0000 
     11 CAT        32.7280   12.8720    1.0950 C.ar      1 MDY2        0.0000 
     12 CLAF       32.4800   13.8990   -0.2920 Cl        1 MDY2        0.0000 
     13 CAL        33.1870   11.2890    3.2730 C.ar      1 MDY2        0.0000 
     14 CAM        33.8160   12.5380    3.2620 C.ar      1 MDY2        0.0000 
     15 CAV        33.5930   13.3480    2.1270 C.ar      1 MDY2        0.0000 
     16 NAO        34.1790   14.5790    1.9930 N.am      1 MDY2        0.0000 
     17 CAR        34.3170   15.3980    3.0180 C.2       1 MDY2        0.0000 
     18 OAD        33.9350   15.1170    4.1460 O.2       1 MDY2        0.0000 
     19 CAS        34.8370   16.7580    2.7860 C.2       1 MDY2        0.0000 
     20 CAG        34.8870   17.6530    3.9010 C.1       1 MDY2        0.0000 
     21 NAC        34.9570   18.4410    4.7560 N.1       1 MDY2        0.0000 
     22 CAQ        35.2270   17.2060    1.3850 C.2       1 MDY2        0.0000 
     23 CAB        35.8380   18.5640    1.1340 C.3       1 MDY2        0.0000 
     24 OAE        35.1430   16.3820    0.3380 O.3       1 MDY2        0.0000 
     25 H          31.3003    6.6809    0.5230 H         1 MDY2        0.0000 
     26 H          30.3646    5.9157    2.6343 H         1 MDY2        0.0000 
     27 H          30.2802    7.4198    4.5169 H         1 MDY2        0.0000 
     28 H          31.2502    9.6329    4.3791 H         1 MDY2        0.0000 
     29 H          31.4859   11.3468    0.3738 H         1 MDY2        0.0000 
     30 H          33.3244   10.6642    4.1044 H         1 MDY2        0.0000 
     31 H          34.3950   12.8475    4.0156 H         1 MDY2        0.0000 
     32 H          34.5223   14.8595    1.0346 H         1 MDY2        0.0000 
     33 H          33.0118    8.4378   -1.7472 H         1 MDY2        0.0000 
     34 H          33.3133    7.3689   -0.5841 H         1 MDY2        0.0000 
     35 H          31.8310    7.4962   -1.1948 H         1 MDY2        0.0000 
     36 H          36.6981   18.6817    1.6303 H         1 MDY2        0.0000 
     37 H          36.0368   18.7084    0.1647 H         1 MDY2        0.0000 
     38 H          35.2299   19.3038    1.4218 H         1 MDY2        0.0000 
     39 H          35.3183   16.9588   -0.4599 H         1 MDY2        0.0000 
@<TRIPOS>BOND
     1    2    1 1    
     2   33    1 1    
     3   34    1 1    
     4   35    1 1    
     5    3    2 1    
     6    4    3 ar   
     7    8    3 ar   
     8    5    4 ar   
     9   25    4 1    
    10    6    5 ar   
    11   26    5 1    
    12    7    6 ar   
    13   27    6 1    
    14    8    7 ar   
    15   28    7 1    
    16    9    8 1    
    17   10    9 ar   
    18   13    9 ar   
    19   11   10 ar   
    20   29   10 1    
    21   12   11 1    
    22   15   11 ar   
    23   14   13 ar   
    24   30   13 1    
    25   15   14 ar   
    26   31   14 1    
    27   16   15 1    
    28   17   16 am   
    29   32   16 1    
    30   18   17 2    
    31   19   17 1    
    32   20   19 1    
    33   22   19 2    
    34   21   20 3    
    35   23   22 1    
    36   24   22 1    
    37   36   23 1    
    38   37   23 1    
    39   38   23 1    
    40   39   24 1    
@<TRIPOS>SUBSTRUCTURE
     1 MDY2        1 GROUP   
@<TRIPOS>SET

