#    Name: 2qi4_MZ6_1_INTS_M
#    Modification time : Mon Mar 24 22:11:27 2014

@<TRIPOS>MOLECULE
2qi4_MZ6_1_INTS_M
   93     0     9     0     0
SMALL
NO_CHARGES


@<TRIPOS>ATOM
      1 CA         23.7615   27.1345   13.5930 C.3       3 GLC5        0.0000 
      2 CA         23.4940   27.7990   11.6830 C.3       9 GLL5        0.0000 
      3 CA         24.0290   26.4700   15.5030 C.3       6 GLP5        0.0000 
      4 CA         24.1515   29.5600   11.5890 C.3       3 GLC5        0.0000 
      5 CA         24.8090   31.3210   11.4950 C.3       6 GLP5        0.0000 
      6 CA         26.0715   25.7680   11.2595 C.3       3 GLC5        0.0000 
      7 CA         24.1310   26.7550   11.0190 C.3       9 GLL5        0.0000 
      8 CA         28.0120   24.7810   11.5000 C.3       6 GLP5        0.0000 
      9 O          26.0245   25.7025   10.1765 O.2       1 ALC1        0.0000 
     10 O          25.4460   26.8580   10.7410 O.2       7 ALL1        0.0000 
     11 O          26.6030   24.5470    9.6120 O.2       4 ALP1        0.0000 
     12 O          20.3880   26.8870   14.1230 O.2       1 ALC1        0.0000 
     13 O          20.5580   28.3660   13.6150 O.2       7 ALL1        0.0000 
     14 O          20.2180   25.4080   14.6310 O.2       4 ALP1        0.0000 
     15 CA         17.1340   31.0585   11.3455 C.3       3 GLC5        0.0000 
     16 CA         17.5730   29.0860   11.8520 C.3       9 GLL5        0.0000 
     17 CA         16.6950   33.0310   10.8390 C.3       6 GLP5        0.0000 
     18 CA         18.8385   29.7335    9.6215 C.3       3 GLC5        0.0000 
     19 CA         17.2890   28.7640   10.5240 C.3       9 GLL5        0.0000 
     20 CA         20.3880   30.7030    8.7190 C.3       6 GLP5        0.0000 
     21 CA         17.2185   30.6250    9.9900 C.3       3 GLC5        0.0000 
     22 CA         17.1480   32.4860    9.4560 C.3       6 GLP5        0.0000 
     23 CA         17.2320   25.5950   13.5765 C.3       3 GLC5        0.0000 
     24 CA         18.0900   26.7890   12.2960 C.3       9 GLL5        0.0000 
     25 CA         16.3740   24.4010   14.8570 C.3       6 GLP5        0.0000 
     26 N          19.4625   27.9400   17.8045 N.am      2 SEC2        0.0000 
     27 N          20.0150   28.4250   16.5180 N.am      8 SEL2        0.0000 
     28 N          18.9100   27.4550   19.0910 N.am      5 SEP2        0.0000 
     29 O          20.8430   28.1145   17.4555 O.2       1 ALC1        0.0000 
     30 O          20.0150   28.4250   16.5180 O.2       7 ALL1        0.0000 
     31 O          21.6710   27.8040   18.3930 O.2       4 ALP1        0.0000 
     32 O          21.5200   28.8850   17.0275 O.2       1 ALC1        0.0000 
     33 O          23.0250   29.3450   17.5370 O.2       4 ALP1        0.0000 
     34 CA         18.1770   31.1610   18.2335 C.3       3 GLC5        0.0000 
     35 CA         19.1980   30.7250   16.2840 C.3       9 GLL5        0.0000 
     36 CA         17.1560   31.5970   20.1830 C.3       6 GLP5        0.0000 
     37 CA         22.9470   32.9745   19.1620 C.3       3 GLC5        0.0000 
     38 CA         22.3900   33.5920   17.2860 C.3       9 GLL5        0.0000 
     39 CA         23.5040   32.3570   21.0380 C.3       6 GLP5        0.0000 
     40 CA         24.1530   32.5125   17.4610 C.3       3 GLC5        0.0000 
     41 CA         25.9160   31.4330   17.6360 C.3       6 GLP5        0.0000 
     42 CA         23.0445   35.8370   15.4860 C.3       3 GLC5        0.0000 
     43 CA         22.1950   35.0700   17.0060 C.3       9 GLL5        0.0000 
     44 CA         23.8940   36.6040   13.9660 C.3       6 GLP5        0.0000 
     45 CA         23.0970   34.6360   14.4475 C.3       3 GLC5        0.0000 
     46 CA         22.3000   32.6680   14.9290 C.3       9 GLL5        0.0000 
     47 CA         24.0240   31.2875   15.0035 C.3       3 GLC5        0.0000 
     48 CA         25.7480   29.9070   15.0780 C.3       6 GLP5        0.0000 
     49 CA         21.3420   34.2600   13.6890 C.3       3 GLC5        0.0000 
     50 CA         20.3840   35.8520   12.4490 C.3       6 GLP5        0.0000 
     51 CA         23.3710   32.7030   13.0325 C.3       3 GLC5        0.0000 
     52 CA         24.4420   32.7380   11.1360 C.3       6 GLP5        0.0000 
     53 CA         15.9255   33.3095   14.1195 C.3       3 GLC5        0.0000 
     54 CA         17.2020   33.4440   15.8720 C.3       9 GLL5        0.0000 
     55 CA         14.6490   33.1750   12.3670 C.3       6 GLP5        0.0000 
     56 CA         15.3645   31.1095   15.4765 C.3       3 GLC5        0.0000 
     57 CA         16.2480   32.7630   16.6300 C.3       9 GLL5        0.0000 
     58 CA         14.4810   29.4560   14.3230 C.3       6 GLP5        0.0000 
     59 CA         16.3880   33.1870   19.0035 C.3       3 GLC5        0.0000 
     60 CA         15.6200   34.7770   17.8240 C.3       9 GLL5        0.0000 
     61 CA         13.8700   35.1475   19.1285 C.3       3 GLC5        0.0000 
     62 CA         12.1200   35.5180   20.4330 C.3       6 GLP5        0.0000 
     63 N          14.4805   34.9275   20.0555 N.am      2 SEC2        0.0000 
     64 N          14.9680   35.5770   18.7000 N.am      8 SEL2        0.0000 
     65 N          13.9930   34.2780   21.4110 N.am      5 SEP2        0.0000 
     66 CA         15.3915   37.8125   16.1255 C.3       3 GLC5        0.0000 
     67 CA         16.6230   37.1790   17.4730 C.3       9 GLL5        0.0000 
     68 CA         14.1600   38.4460   14.7780 C.3       6 GLP5        0.0000 
     69 CA         23.4342   23.8035   11.2495 C.3       3 GLC5        0.0000 
     70 CA         23.4420   25.6030   10.6470 C.3       9 GLL5        0.0000 
     71 CA         24.1030   22.0640   11.7060 C.3       6 GLP5        0.0000 
     72 CA         16.1423   27.4710   11.9423 C.3       3 GLC5        0.0000 
     73 CA         17.9840   28.1020   12.7470 C.3       9 GLL5        0.0000 
     74 CA         14.5060   26.3480   11.5850 C.3       6 GLP5        0.0000 
     75 CA         16.1703   29.0679   13.4938 C.3       3 GLC5        0.0000 
     76 CA         16.0727   28.3758    8.9793 C.3       3 GLC5        0.0000 
     77 CA         14.7970   28.6440    7.6550 C.3       6 GLP5        0.0000 
     78 CA         15.9273   27.2278   10.9443 C.3       3 GLC5        0.0000 
     79 CA         17.4080   27.4510   10.0830 C.3       9 GLL5        0.0000 
     80 CA         16.2285   26.4880   11.6098 C.3       3 GLC5        0.0000 
     81 CA         17.8120   26.4670   10.9730 C.3       9 GLL5        0.0000 
     82 CA         23.9588   34.6960   17.7850 C.3       3 GLC5        0.0000 
     83 CA         25.6250   35.0610   18.4240 C.3       6 GLP5        0.0000 
     84 CA         15.9612   31.9192   18.3305 C.3       3 GLC5        0.0000 
     85 CA         16.0590   30.7480   19.5500 C.3       6 GLP5        0.0000 
     86 CA         13.8684   33.5564   16.7553 C.3       3 GLC5        0.0000 
     87 CA         15.4790   33.4180   17.5920 C.3       9 GLL5        0.0000 
     88 CA         11.9950   33.1790   16.0430 C.3       6 GLP5        0.0000 
     89 CA         14.6035   35.6515   15.9325 C.3       3 GLC5        0.0000 
     90 CA         13.1190   36.1580   14.4100 C.3       6 GLP5        0.0000 
     91 CA         22.9292   25.8306   13.0828 C.3       3 GLC5        0.0000 
     92 CA         22.0890   25.4830   10.9390 C.3       9 GLL5        0.0000 
     93 CA         22.9930   25.4240   15.0690 C.3       6 GLP5        0.0000 
@<TRIPOS>BOND
@<TRIPOS>SUBSTRUCTURE
     1 ALC1        9 GROUP        1 X    ALC  0     ROOT ALC X 1
     2 SEC2       26 GROUP        1 X    SEC  0     **** SEC X 2
     3 GLC5        1 GROUP        1 X    GLC  0     **** GLC X 6
     4 ALP1       11 GROUP        1 Y    ALP  0     ROOT ALP Y 8
     5 SEP2       28 GROUP        1 Y    SEP  0     **** SEP Y 9
     6 GLP5        3 GROUP        1 Y    GLP  0     **** GLP Y 13
     7 ALL1       10 GROUP        1 Z    ALL  0     ROOT ALL Z 15
     8 SEL2       27 GROUP        1 Z    SEL  0     **** SEL Z 16
     9 GLL5        2 GROUP        1 Z    GLL  0     **** GLL Z 20
@<TRIPOS>SET

