#    Name: 2qi4_MZ6_1_ligand
#    Modification time : Mon Mar 24 22:11:27 2014

@<TRIPOS>MOLECULE
2qi4_MZ6_1_ligand
   72    75     1     0     0
SMALL
NO_CHARGES


@<TRIPOS>ATOM
      1 O22        21.4760   29.9050   12.2310 O.2       1 MZ6200      0.0000 
      2 C21        21.3670   28.7580   12.6410 C.2       1 MZ6200      0.0000 
      3 C22        22.1510   27.6830   11.9740 C.ar      1 MZ6200      0.0000 
      4 C27        23.4940   27.7990   11.6830 C.ar      1 MZ6200      0.0000 
      5 C26        24.1310   26.7550   11.0190 C.ar      1 MZ6200      0.0000 
      6 O27        25.4460   26.8580   10.7410 O.3       1 MZ6200      0.0000 
      7 C25        23.4420   25.6030   10.6470 C.ar      1 MZ6200      0.0000 
      8 C24        22.0890   25.4830   10.9390 C.ar      1 MZ6200      0.0000 
      9 C23        21.4480   26.5320   11.5880 C.ar      1 MZ6200      0.0000 
     10 N20        20.5580   28.3660   13.6150 N.am      1 MZ6200      0.0000 
     11 C19        19.6170   29.2450   14.2860 C.3       1 MZ6200      0.0000 
     12 C32        18.3080   28.4450   14.2070 C.3       1 MZ6200      0.0000 
     13 C38        17.9840   28.1020   12.7470 C.ar      1 MZ6200      0.0000 
     14 C37        17.5730   29.0860   11.8520 C.ar      1 MZ6200      0.0000 
     15 C36        17.2890   28.7640   10.5240 C.ar      1 MZ6200      0.0000 
     16 C35        17.4080   27.4510   10.0830 C.ar      1 MZ6200      0.0000 
     17 C34        17.8120   26.4670   10.9730 C.ar      1 MZ6200      0.0000 
     18 C33        18.0900   26.7890   12.2960 C.ar      1 MZ6200      0.0000 
     19 C17        20.0650   29.5980   15.6920 C.3       1 MZ6200      0.0000 
     20 O18        20.0150   28.4250   16.5180 O.3       1 MZ6200      0.0000 
     21 C16        19.1980   30.7250   16.2840 C.3       1 MZ6200      0.0000 
     22 N11        19.4380   31.9630   15.4970 N.pl3     1 MZ6200      0.0000 
     23 C12        20.1530   33.0000   16.2810 C.3       1 MZ6200      0.0000 
     24 C13        21.6520   32.6580   16.3160 C.3       1 MZ6200      0.0000 
     25 C15        22.3900   33.5920   17.2860 C.3       1 MZ6200      0.0000 
     26 C18        22.1950   35.0700   17.0060 C.3       1 MZ6200      0.0000 
     27 C14        22.3000   32.6680   14.9290 C.3       1 MZ6200      0.0000 
     28 S8         18.0900   32.5750   14.7950 S.o2      1 MZ6200      0.0000 
     29 O10        17.3350   31.4910   14.2590 O.2       1 MZ6200      0.0000 
     30 O9         18.5620   33.4330   13.7410 O.2       1 MZ6200      0.0000 
     31 C5         17.2020   33.4440   15.8720 C.ar      1 MZ6200      0.0000 
     32 C6         16.2480   32.7630   16.6300 C.ar      1 MZ6200      0.0000 
     33 C7         15.4790   33.4180   17.5920 C.ar      1 MZ6200      0.0000 
     34 C2         15.6200   34.7770   17.8240 C.ar      1 MZ6200      0.0000 
     35 C3         16.5560   35.5130   17.0860 C.ar      1 MZ6200      0.0000 
     36 C4         17.3480   34.8400   16.1140 C.ar      1 MZ6200      0.0000 
     37 N1         14.9680   35.5770   18.7000 N.2       1 MZ6200      0.0000 
     38 C1         15.3770   36.8600   18.6450 C.2       1 MZ6200      0.0000 
     39 S1         16.6230   37.1790   17.4730 S.3       1 MZ6200      0.0000 
     40 H          24.0181   28.6358   11.9483 H         1 MZ6200      0.0000 
     41 H          23.9339   24.8457   10.1585 H         1 MZ6200      0.0000 
     42 H          21.5747   24.6402   10.6819 H         1 MZ6200      0.0000 
     43 H          20.4363   26.4681   11.7921 H         1 MZ6200      0.0000 
     44 H          20.5587   27.3668   13.9601 H         1 MZ6200      0.0000 
     45 H          19.4835   30.1375   13.6948 H         1 MZ6200      0.0000 
     46 H          17.5012   29.0382   14.6233 H         1 MZ6200      0.0000 
     47 H          18.4152   27.5277   14.7754 H         1 MZ6200      0.0000 
     48 H          17.4771   30.0618   12.1715 H         1 MZ6200      0.0000 
     49 H          16.9911   29.5016    9.8720 H         1 MZ6200      0.0000 
     50 H          17.1986   27.2136    9.1081 H         1 MZ6200      0.0000 
     51 H          17.9069   25.4914   10.6527 H         1 MZ6200      0.0000 
     52 H          18.3789   26.0459   12.9537 H         1 MZ6200      0.0000 
     53 H          21.0888   29.9721   15.6301 H         1 MZ6200      0.0000 
     54 H          19.4804   30.8687   17.3185 H         1 MZ6200      0.0000 
     55 H          18.1594   30.4282   16.2226 H         1 MZ6200      0.0000 
     56 H          19.7835   33.0317   17.3010 H         1 MZ6200      0.0000 
     57 H          20.0336   33.9766   15.8230 H         1 MZ6200      0.0000 
     58 H          21.7446   31.6352   16.7230 H         1 MZ6200      0.0000 
     59 H          23.4684   33.3539   17.2499 H         1 MZ6200      0.0000 
     60 H          22.0515   33.3685   18.3139 H         1 MZ6200      0.0000 
     61 H          16.1081   31.7473   16.4742 H         1 MZ6200      0.0000 
     62 H          14.7887   32.8733   18.1429 H         1 MZ6200      0.0000 
     63 H          18.0415   35.3731   15.5739 H         1 MZ6200      0.0000 
     64 H          15.1312   37.6521   19.1154 H         1 MZ6200      0.0000 
     65 H          22.6897   35.6406   17.6615 H         1 MZ6200      0.0000 
     66 H          22.5204   35.3214   16.0944 H         1 MZ6200      0.0000 
     67 H          21.2317   35.3336   17.0564 H         1 MZ6200      0.0000 
     68 H          23.2745   32.4477   14.9727 H         1 MZ6200      0.0000 
     69 H          21.8760   32.0012   14.3162 H         1 MZ6200      0.0000 
     70 H          22.2212   33.5624   14.4887 H         1 MZ6200      0.0000 
     71 H          25.7072   25.9591   10.3891 H         1 MZ6200      0.0000 
     72 H          20.9250   28.3577   16.9272 H         1 MZ6200      0.0000 
@<TRIPOS>BOND
     1    2    1 2    
     2    3    2 1    
     3   10    2 am   
     4    4    3 ar   
     5    9    3 ar   
     6    5    4 ar   
     7   40    4 1    
     8    6    5 1    
     9    7    5 ar   
    10   71    6 1    
    11    8    7 ar   
    12   41    7 1    
    13    9    8 ar   
    14   42    8 1    
    15   43    9 1    
    16   11   10 1    
    17   44   10 1    
    18   12   11 1    
    19   19   11 1    
    20   45   11 1    
    21   13   12 1    
    22   46   12 1    
    23   47   12 1    
    24   14   13 ar   
    25   18   13 ar   
    26   15   14 ar   
    27   48   14 1    
    28   16   15 ar   
    29   49   15 1    
    30   17   16 ar   
    31   50   16 1    
    32   18   17 ar   
    33   51   17 1    
    34   52   18 1    
    35   20   19 1    
    36   21   19 1    
    37   53   19 1    
    38   72   20 1    
    39   22   21 1    
    40   54   21 1    
    41   55   21 1    
    42   23   22 1    
    43   28   22 1    
    44   24   23 1    
    45   56   23 1    
    46   57   23 1    
    47   25   24 1    
    48   27   24 1    
    49   58   24 1    
    50   26   25 1    
    51   59   25 1    
    52   60   25 1    
    53   65   26 1    
    54   66   26 1    
    55   67   26 1    
    56   68   27 1    
    57   69   27 1    
    58   70   27 1    
    59   29   28 2    
    60   30   28 2    
    61   31   28 1    
    62   32   31 ar   
    63   36   31 ar   
    64   33   32 ar   
    65   61   32 1    
    66   34   33 ar   
    67   62   33 1    
    68   35   34 ar   
    69   37   34 1    
    70   36   35 ar   
    71   39   35 1    
    72   63   36 1    
    73   38   37 2    
    74   39   38 1    
    75   64   38 1    
@<TRIPOS>SUBSTRUCTURE
     1 MZ6200      1 GROUP   
@<TRIPOS>SET

