#    Name: 4dpd_DHF_1_INTS_M
#    Modification time : Tue Mar 25 10:00:02 2014

@<TRIPOS>MOLECULE
4dpd_DHF_1_INTS_M
   37     0    12     0     0
SMALL
NO_CHARGES


@<TRIPOS>ATOM
      1 O          29.9260    6.0895   53.5465 O.2       1 ALC1        0.0000 
      2 O          30.4970    4.9940   54.6620 O.2       9 ALL1        0.0000 
      3 O          29.3550    7.1850   52.4310 O.2       5 ALP1        0.0000 
      4 CA         30.0705    1.9905   60.7030 C.3       4 GLC5        0.0000 
      5 CA         29.8770    3.8940   60.4980 C.3      12 GLL5        0.0000 
      6 CA         30.2640    0.0870   60.9080 C.3       8 GLP5        0.0000 
      7 CA         30.3620    5.3570   62.2720 C.3       4 GLC5        0.0000 
      8 CA         28.4950    5.3180   62.1550 C.3      12 GLL5        0.0000 
      9 CA         32.2290    5.3960   62.3890 C.3       8 GLP5        0.0000 
     10 CA         22.9070    7.9035   63.5360 C.3       4 GLC5        0.0000 
     11 CA         23.9790    7.1520   62.0170 C.3      12 GLL5        0.0000 
     12 CA         21.8350    8.6550   65.0550 C.3       8 GLP5        0.0000 
     13 CA         21.6600    3.1375   60.9810 C.3       4 GLC5        0.0000 
     14 CA         20.6760    4.4060   59.5270 C.3      12 GLL5        0.0000 
     15 CA         22.6440    1.8690   62.4350 C.3       8 GLP5        0.0000 
     16 CA         20.9075    3.3340   55.6610 C.3       4 GLC5        0.0000 
     17 CA         20.3440    4.9190   57.0380 C.3      12 GLL5        0.0000 
     18 CA         21.4710    1.7490   54.2840 C.3       8 GLP5        0.0000 
     19 NZ         21.3640    1.0355   58.7420 N.4       3 LYC4        0.0000 
     20 NZ         21.9280    2.6530   58.4690 N.4      11 LYL4        0.0000 
     21 NZ         21.9400   -1.2170   58.7510 N.4       7 LYP4        0.0000 
     22 N          22.4380    1.0475   58.3260 N.am      2 SEC2        0.0000 
     23 N          21.9280    2.6530   58.4690 N.am     10 SEL2        0.0000 
     24 N          22.9480   -0.5580   58.1830 N.am      6 SEP2        0.0000 
     25 N          21.3640    1.0355   58.7420 N.am      2 SEC2        0.0000 
     26 N          20.8000   -0.5820   59.0150 N.am      6 SEP2        0.0000 
     27 N          20.3030    0.8500   59.0285 N.am      2 SEC2        0.0000 
     28 N          19.8060    2.2820   59.0420 N.am     10 SEL2        0.0000 
     29 CA         22.9868    5.8335   63.5483 C.3       4 GLC5        0.0000 
     30 CA         23.5740    6.0440   61.2780 C.3      12 GLL5        0.0000 
     31 CA         22.1970    5.0690   65.4490 C.3       8 GLP5        0.0000 
     32 CA         23.3395    3.7182   61.7540 C.3       4 GLC5        0.0000 
     33 CA         25.2335    5.7445   63.8762 C.3       4 GLC5        0.0000 
     34 CA         26.2540    6.3170   61.9410 C.3      12 GLL5        0.0000 
     35 CA         24.6760    4.6880   65.6060 C.3       8 GLP5        0.0000 
     36 CA         18.9563    5.2500   60.2823 C.3       4 GLC5        0.0000 
     37 CA         17.5270    5.6130   61.5600 C.3       8 GLP5        0.0000 
@<TRIPOS>BOND
@<TRIPOS>SUBSTRUCTURE
     1 ALC1        1 GROUP        1 X    ALC  0     ROOT ALC X 1
     2 SEC2       22 GROUP        1 X    SEC  0     **** SEC X 2
     3 LYC4       19 GROUP        1 X    LYC  0     **** LYC X 4
     4 GLC5        4 GROUP        1 X    GLC  0     **** GLC X 6
     5 ALP1        3 GROUP        1 Y    ALP  0     ROOT ALP Y 8
     6 SEP2       24 GROUP        1 Y    SEP  0     **** SEP Y 9
     7 LYP4       21 GROUP        1 Y    LYP  0     **** LYP Y 11
     8 GLP5        6 GROUP        1 Y    GLP  0     **** GLP Y 13
     9 ALL1        2 GROUP        1 Z    ALL  0     ROOT ALL Z 15
    10 SEL2       23 GROUP        1 Z    SEL  0     **** SEL Z 16
    11 LYL4       20 GROUP        1 Z    LYL  0     **** LYL Z 18
    12 GLL5        5 GROUP        1 Z    GLL  0     **** GLL Z 20
@<TRIPOS>SET

