#    Name: 4dpd_DHF_1_ligand
#    Modification time : Tue Mar 25 10:00:03 2014

@<TRIPOS>MOLECULE
4dpd_DHF_1_ligand
   51    53     1     0     0
SMALL
NO_CHARGES


@<TRIPOS>ATOM
      1 N1         30.4140    4.3960   56.8980 N.pl3     1 DHF701      0.0000 
      2 C2         30.0550    5.2270   55.9140 C.2       1 DHF701      0.0000 
      3 NA2        30.4970    4.9940   54.6620 N.pl3     1 DHF701      0.0000 
      4 N3         29.2670    6.3050   56.1260 N.2       1 DHF701      0.0000 
      5 C4         28.7670    6.6170   57.3440 C.2       1 DHF701      0.0000 
      6 O4         28.0310    7.6230   57.5030 O.2       1 DHF701      0.0000 
      7 C4A        29.1080    5.7220   58.4750 C.2       1 DHF701      0.0000 
      8 N5         28.6530    5.9430   59.7260 N.2       1 DHF701      0.0000 
      9 C6         28.9900    5.1020   60.7390 C.2       1 DHF701      0.0000 
     10 C7         29.8770    3.8940   60.4980 C.3       1 DHF701      0.0000 
     11 N8         30.3390    3.7140   59.1180 N.pl3     1 DHF701      0.0000 
     12 C8A        29.9810    4.5700   58.1580 C.2       1 DHF701      0.0000 
     13 C9         28.4950    5.3180   62.1550 C.3       1 DHF701      0.0000 
     14 N10        27.5700    6.4410   62.2530 N.pl3     1 DHF701      0.0000 
     15 C11        23.5740    6.0440   61.2780 C.ar      1 DHF701      0.0000 
     16 C12        23.9790    7.1520   62.0170 C.ar      1 DHF701      0.0000 
     17 C13        25.3280    7.2850   62.3520 C.ar      1 DHF701      0.0000 
     18 C14        26.2540    6.3170   61.9410 C.ar      1 DHF701      0.0000 
     19 C15        25.8400    5.2190   61.1950 C.ar      1 DHF701      0.0000 
     20 C16        24.4960    5.0910   60.8680 C.ar      1 DHF701      0.0000 
     21 C          22.1570    5.8320   60.8720 C.2       1 DHF701      0.0000 
     22 O          21.2650    6.5240   61.3240 O.2       1 DHF701      0.0000 
     23 N          21.9680    4.8620   59.9900 N.am      1 DHF701      0.0000 
     24 CA         20.6760    4.4060   59.5270 C.3       1 DHF701      0.0000 
     25 CB         20.0950    5.3680   58.4820 C.3       1 DHF701      0.0000 
     26 CG         20.3440    4.9190   57.0380 C.3       1 DHF701      0.0000 
     27 CD         19.2740    5.4850   56.1310 C.2       1 DHF701      0.0000 
     28 OE1        18.1380    5.6780   56.6230 O.co2     1 DHF701      0.0000 
     29 OE2        19.5630    5.7420   54.9360 O.co2     1 DHF701      0.0000 
     30 CT         20.8200    3.0150   58.9680 C.2       1 DHF701      0.0000 
     31 O1         21.9280    2.6530   58.4690 O.co2     1 DHF701      0.0000 
     32 O2         19.8060    2.2820   59.0420 O.co2     1 DHF701      0.0000 
     33 H          31.0524    3.5834   56.6829 H         1 DHF701      0.0000 
     34 H          30.2101    5.6509   53.9647 H         1 DHF701      0.0000 
     35 H          31.0725    4.1850   54.5420 H         1 DHF701      0.0000 
     36 H          29.3208    2.9857   60.8356 H         1 DHF701      0.0000 
     37 H          30.7534    3.9675   61.1872 H         1 DHF701      0.0000 
     38 H          30.9469    2.8972   58.9447 H         1 DHF701      0.0000 
     39 H          29.3715    5.4796   62.8072 H         1 DHF701      0.0000 
     40 H          28.0115    4.3864   62.4986 H         1 DHF701      0.0000 
     41 H          27.9698    7.3424   62.5743 H         1 DHF701      0.0000 
     42 H          23.3025    7.8567   62.3101 H         1 DHF701      0.0000 
     43 H          25.6443    8.0930   62.9006 H         1 DHF701      0.0000 
     44 H          26.5167    4.5151   60.8913 H         1 DHF701      0.0000 
     45 H          24.1800    4.2778   60.3138 H         1 DHF701      0.0000 
     46 H          22.7985    4.3498   59.5616 H         1 DHF701      0.0000 
     47 H          19.9774    4.3633   60.3630 H         1 DHF701      0.0000 
     48 H          20.5379    6.3624   58.6285 H         1 DHF701      0.0000 
     49 H          19.0128    5.4604   58.6460 H         1 DHF701      0.0000 
     50 H          20.3248    3.8339   56.9969 H         1 DHF701      0.0000 
     51 H          21.3203    5.2736   56.7209 H         1 DHF701      0.0000 
@<TRIPOS>BOND
     1    2    1 1    
     2   12    1 1    
     3   33    1 1    
     4    3    2 1    
     5    4    2 2    
     6   34    3 1    
     7   35    3 1    
     8    5    4 1    
     9    6    5 2    
    10    7    5 1    
    11    8    7 1    
    12   12    7 2    
    13    9    8 2    
    14   10    9 1    
    15   13    9 1    
    16   11   10 1    
    17   36   10 1    
    18   37   10 1    
    19   12   11 1    
    20   38   11 1    
    21   14   13 1    
    22   39   13 1    
    23   40   13 1    
    24   18   14 1    
    25   41   14 1    
    26   16   15 ar   
    27   20   15 ar   
    28   21   15 1    
    29   17   16 ar   
    30   42   16 1    
    31   18   17 ar   
    32   43   17 1    
    33   19   18 ar   
    34   20   19 ar   
    35   44   19 1    
    36   45   20 1    
    37   22   21 2    
    38   23   21 am   
    39   24   23 1    
    40   46   23 1    
    41   25   24 1    
    42   30   24 1    
    43   47   24 1    
    44   26   25 1    
    45   48   25 1    
    46   49   25 1    
    47   27   26 1    
    48   50   26 1    
    49   51   26 1    
    50   28   27 ar   
    51   29   27 ar   
    52   31   30 ar   
    53   32   30 ar   
@<TRIPOS>SUBSTRUCTURE
     1 DHF701      1 GROUP   
@<TRIPOS>SET

