#    Name: 1b2l_NDC_1_INTS_M
#    Modification time : Mon Mar 24 19:15:27 2014

@<TRIPOS>MOLECULE
1b2l_NDC_1_INTS_M
  117     0     9     0     0
SMALL
NO_CHARGES


@<TRIPOS>ATOM
      1 N          -3.3220   48.5680   49.8280 N.am      2 SEC2        0.0000 
      2 N          -2.7650   49.5480   48.9490 N.am      8 SEL2        0.0000 
      3 N          -3.8790   47.5880   50.7070 N.am      5 SEP2        0.0000 
      4 N          -0.9865   45.9715   43.1460 N.am      2 SEC2        0.0000 
      5 N          -0.3490   45.8300   44.7100 N.am      8 SEL2        0.0000 
      6 N          -1.6240   46.1130   41.5820 N.am      5 SEP2        0.0000 
      7 O           1.5540   43.9655   47.2905 O.2       1 ALC1        0.0000 
      8 O           0.0670   44.6670   47.5780 O.2       7 ALL1        0.0000 
      9 O           3.0410   43.2640   47.0030 O.2       4 ALP1        0.0000 
     10 O           0.9515   43.7480   48.1725 O.2       1 ALC1        0.0000 
     11 O           1.8360   42.8290   48.7670 O.2       4 ALP1        0.0000 
     12 O           2.8315   44.5065   46.9180 O.2       1 ALC1        0.0000 
     13 O           2.6220   45.7490   46.8330 O.2       7 ALL1        0.0000 
     14 CA          0.0300   43.9805   45.1250 C.3       3 GLC5        0.0000 
     15 CA          0.9290   45.5080   44.9670 C.3       9 GLL5        0.0000 
     16 CA         -0.8690   42.4530   45.2830 C.3       6 GLP5        0.0000 
     17 CA         -0.1770   44.6200   43.4400 C.3       3 GLC5        0.0000 
     18 CA         -1.2830   43.7320   41.9130 C.3       6 GLP5        0.0000 
     19 CA          2.3035   45.9775   40.5165 C.3       3 GLC5        0.0000 
     20 CA          3.3890   45.5810   42.2600 C.3       9 GLL5        0.0000 
     21 CA          1.2180   46.3740   38.7730 C.3       6 GLP5        0.0000 
     22 CA          5.8670   43.2865   41.3380 C.3       3 GLC5        0.0000 
     23 CA          4.3880   44.8510   41.4300 C.3       9 GLL5        0.0000 
     24 CA          7.3460   41.7220   41.2460 C.3       6 GLP5        0.0000 
     25 CA          3.6900   43.8370   39.9190 C.3       3 GLC5        0.0000 
     26 CA          2.9920   42.8230   38.4080 C.3       6 GLP5        0.0000 
     27 CA          4.0685   46.5360   40.0905 C.3       3 GLC5        0.0000 
     28 CA          3.7490   48.2210   38.7510 C.3       6 GLP5        0.0000 
     29 O           6.2540   44.6980   39.9770 O.2       1 ALC1        0.0000 
     30 O           5.0920   45.4310   40.4840 O.2       7 ALL1        0.0000 
     31 O           7.4160   43.9650   39.4700 O.2       4 ALP1        0.0000 
     32 N           4.9940   42.5425   40.7205 N.am      2 SEC2        0.0000 
     33 N           4.5260   43.5010   41.7470 N.am      8 SEL2        0.0000 
     34 N           5.4620   41.5840   39.6940 N.am      5 SEP2        0.0000 
     35 CA          5.1530   43.7120   43.8970 C.3       3 GLC5        0.0000 
     36 CA          3.8230   42.8640   42.6820 C.3       9 GLL5        0.0000 
     37 CA          6.4830   44.5600   45.1120 C.3       6 GLP5        0.0000 
     38 CA          5.5845   42.2930   41.9640 C.3       3 GLC5        0.0000 
     39 CA          3.1940   41.7885   41.1990 C.3       3 GLC5        0.0000 
     40 CA          2.5650   40.7130   39.7160 C.3       6 GLP5        0.0000 
     41 CA          1.9260   43.0905   41.9745 C.3       3 GLC5        0.0000 
     42 CA          0.0290   43.3170   41.2670 C.3       6 GLP5        0.0000 
     43 CA          4.5810   44.7305   44.1805 C.3       3 GLC5        0.0000 
     44 CA          2.6790   44.9010   43.2490 C.3       9 GLL5        0.0000 
     45 N          -5.9840   47.3010   49.0495 N.am      2 SEC2        0.0000 
     46 N          -5.3050   47.7940   47.9320 N.am      8 SEL2        0.0000 
     47 N          -6.6630   46.8080   50.1670 N.am      5 SEP2        0.0000 
     48 CA         -6.8820   46.2020   46.9250 C.3       3 GLC5        0.0000 
     49 CA         -5.5060   46.5600   45.2920 C.3       9 GLL5        0.0000 
     50 CA         -8.2580   45.8440   48.5580 C.3       6 GLP5        0.0000 
     51 CA         -7.3325   45.0185   43.2955 C.3       3 GLC5        0.0000 
     52 CA         -6.0060   46.2550   43.9000 C.3       9 GLL5        0.0000 
     53 CA         -8.6590   43.7820   42.6910 C.3       6 GLP5        0.0000 
     54 CA         -3.6600   47.1530   41.7730 C.3       3 GLC5        0.0000 
     55 CA         -5.2480   47.0440   42.7540 C.3       9 GLL5        0.0000 
     56 CA         -2.0720   47.2620   40.7920 C.3       6 GLP5        0.0000 
     57 N          -5.8835   46.3105   40.2945 N.am      2 SEC2        0.0000 
     58 N          -5.2910   46.2720   41.5890 N.am      8 SEL2        0.0000 
     59 N          -6.4760   46.3490   39.0000 N.am      5 SEP2        0.0000 
     60 N          -6.7905   49.6620   40.6440 N.am      2 SEC2        0.0000 
     61 N          -5.8830   48.8820   41.3350 N.am      8 SEL2        0.0000 
     62 N          -7.6980   50.4420   39.9530 N.am      5 SEP2        0.0000 
     63 N          -6.1795   47.6155   40.1675 N.am      2 SEC2        0.0000 
     64 CA         -8.0835   45.7560   42.7120 C.3       3 GLC5        0.0000 
     65 CA         -7.5080   47.7300   42.7330 C.3       9 GLL5        0.0000 
     66 N         -11.8570   52.0610   46.5445 N.am      2 SEC2        0.0000 
     67 N         -10.8210   51.7790   45.6900 N.am      8 SEL2        0.0000 
     68 N         -12.8930   52.3430   47.3990 N.am      5 SEP2        0.0000 
     69 O          -9.7845   51.6600   47.8730 O.2       1 ALC1        0.0000 
     70 O          -8.9880   50.8430   46.6310 O.2       7 ALL1        0.0000 
     71 O         -10.5810   52.4770   49.1150 O.2       4 ALP1        0.0000 
     72 CA        -11.0005   47.0800   42.4435 C.3       3 GLC5        0.0000 
     73 CA         -9.7040   48.5080   42.1920 C.3       9 GLL5        0.0000 
     74 CA        -12.2970   45.6520   42.6950 C.3       6 GLP5        0.0000 
     75 N         -11.5995   50.7640   39.8595 N.am      2 SEC2        0.0000 
     76 N         -11.7410   51.7170   40.8010 N.am      8 SEL2        0.0000 
     77 N         -11.4580   49.8110   38.9180 N.am      5 SEP2        0.0000 
     78 CA        -11.3050   53.4000   39.0570 C.3       3 GLC5        0.0000 
     79 CA        -10.4810   53.7050   40.6600 C.3       9 GLL5        0.0000 
     80 CA        -12.1290   53.0950   37.4540 C.3       6 GLP5        0.0000 
     81 CA        -10.5390   56.4470   42.0460 C.3       3 GLC5        0.0000 
     82 CA         -9.6260   54.6630   41.4350 C.3       9 GLL5        0.0000 
     83 CA        -11.4520   58.2310   42.6570 C.3       6 GLP5        0.0000 
     84 CA         -7.4715   55.5000   43.3510 C.3       3 GLC5        0.0000 
     85 CA         -8.6790   54.0180   42.4170 C.3       9 GLL5        0.0000 
     86 CA         -6.2640   56.9820   44.2850 C.3       6 GLP5        0.0000 
     87 CA        -11.3355   53.8525   43.1430 C.3       3 GLC5        0.0000 
     88 CA         -9.3980   52.9490   43.2130 C.3       9 GLL5        0.0000 
     89 CA        -13.2730   54.7560   43.0730 C.3       6 GLP5        0.0000 
     90 CA         -8.5240   51.5520   40.6460 C.3       3 GLC5        0.0000 
     91 CA         -9.8790   51.8180   42.2980 C.3       9 GLL5        0.0000 
     92 CA         -7.1690   51.2860   38.9940 C.3       6 GLP5        0.0000 
     93 CA         -0.6398   44.2890   45.9053 C.3       3 GLC5        0.0000 
     94 CA         -0.9820   46.2000   45.9980 C.3       9 GLL5        0.0000 
     95 CA         -1.1947   46.1270   48.3843 C.3       3 GLC5        0.0000 
     96 CA         -1.9790   46.1290   50.2410 C.3       6 GLP5        0.0000 
     97 CA          5.5142   45.8455   42.7470 C.3       3 GLC5        0.0000 
     98 CA          7.1400   46.4750   43.6490 C.3       6 GLP5        0.0000 
     99 CA          1.5315   44.2790   42.0108 C.3       3 GLC5        0.0000 
    100 CA         -6.8223   47.8222   40.4802 C.3       3 GLC5        0.0000 
    101 CA         -6.1210   48.2930   42.5860 C.3       9 GLL5        0.0000 
    102 CA         -6.8300   47.6330   38.3010 C.3       6 GLP5        0.0000 
    103 CA         -9.3762   48.5408   45.6045 C.3       3 GLC5        0.0000 
    104 CA         -8.6150   49.3450   44.1390 C.3       9 GLL5        0.0000 
    105 CA         -9.6520   47.2650   46.9940 C.3       6 GLP5        0.0000 
    106 CA        -10.5512   48.7493   40.4798 C.3       3 GLC5        0.0000 
    107 CA        -10.6870   49.4410   42.3130 C.3       9 GLL5        0.0000 
    108 CA        -10.9070   48.5240   38.7070 C.3       6 GLP5        0.0000 
    109 CA        -11.5751   48.5643   43.7434 C.3       3 GLC5        0.0000 
    110 CA        -12.7890   47.1680   44.4740 C.3       6 GLP5        0.0000 
    111 CA        -11.0188   55.3040   40.1018 C.3       3 GLC5        0.0000 
    112 CA        -11.9840   56.4240   39.1560 C.3       6 GLP5        0.0000 
    113 CA         -9.0583   53.0875   39.6292 C.3       3 GLC5        0.0000 
    114 CA         -8.0630   51.9910   38.2110 C.3       6 GLP5        0.0000 
    115 CA        -11.6632   54.4700   42.0603 C.3       3 GLC5        0.0000 
    116 CA         -7.6842   54.8558   41.1125 C.3       3 GLC5        0.0000 
    117 CA         -6.2160   55.3710   40.2990 C.3       6 GLP5        0.0000 
@<TRIPOS>BOND
@<TRIPOS>SUBSTRUCTURE
     1 ALC1        7 GROUP        1 X    ALC  0     ROOT ALC X 1
     2 SEC2        1 GROUP        1 X    SEC  0     **** SEC X 2
     3 GLC5       14 GROUP        1 X    GLC  0     **** GLC X 6
     4 ALP1        9 GROUP        1 Y    ALP  0     ROOT ALP Y 8
     5 SEP2        3 GROUP        1 Y    SEP  0     **** SEP Y 9
     6 GLP5       16 GROUP        1 Y    GLP  0     **** GLP Y 13
     7 ALL1        8 GROUP        1 Z    ALL  0     ROOT ALL Z 15
     8 SEL2        2 GROUP        1 Z    SEL  0     **** SEL Z 16
     9 GLL5       15 GROUP        1 Z    GLL  0     **** GLL Z 20
@<TRIPOS>SET

