#    Name: 1b2l_NDC_1_ligand
#    Modification time : Mon Mar 24 19:15:27 2014

@<TRIPOS>MOLECULE
1b2l_NDC_1_ligand
   85    90     1     0     0
SMALL
NO_CHARGES


@<TRIPOS>ATOM
      1 PA         -2.5540   49.4090   47.4120 P.3       1 NDC255      0.0000 
      2 O1A        -1.6160   50.3980   46.7830 O.co2     1 NDC255      0.0000 
      3 O2A        -2.7650   49.5480   48.9490 O.co2     1 NDC255      0.0000 
      4 O5'        -2.1300   47.9260   47.1150 O.3       1 NDC255      0.0000 
      5 C5'        -1.3820   47.6110   45.8420 C.3       1 NDC255      0.0000 
      6 C4'        -0.9820   46.2000   45.9980 C.3       1 NDC255      0.0000 
      7 O4'        -0.3490   45.8300   44.7100 O.3       1 NDC255      0.0000 
      8 C3'         0.1610   46.0500   47.0570 C.3       1 NDC255      0.0000 
      9 O3'         0.0670   44.6670   47.5780 O.3       1 NDC255      0.0000 
     10 C2'         1.4410   46.2170   46.2940 C.3       1 NDC255      0.0000 
     11 O2'         2.6220   45.7490   46.8330 O.3       1 NDC255      0.0000 
     12 C1'         0.9290   45.5080   44.9670 C.3       1 NDC255      0.0000 
     13 N9A         1.8290   45.7910   43.8970 N.pl3     1 NDC255      0.0000 
     14 C8A         2.0680   46.9830   43.2340 C.2       1 NDC255      0.0000 
     15 N7A         2.9790   46.8810   42.2760 N.2       1 NDC255      0.0000 
     16 C5A         3.3890   45.5810   42.2600 C.ar      1 NDC255      0.0000 
     17 C6A         4.3880   44.8510   41.4300 C.ar      1 NDC255      0.0000 
     18 N6A         5.0920   45.4310   40.4840 N.pl3     1 NDC255      0.0000 
     19 N1A         4.5260   43.5010   41.7470 N.ar      1 NDC255      0.0000 
     20 C2A         3.8230   42.8640   42.6820 C.ar      1 NDC255      0.0000 
     21 N3A         2.8870   43.5180   43.4990 N.ar      1 NDC255      0.0000 
     22 C4A         2.6790   44.9010   43.2490 C.ar      1 NDC255      0.0000 
     23 OPP        -3.9430   49.5250   46.6930 O.3       1 NDC255      0.0000 
     24 PN         -5.3680   48.7810   46.8180 P.3       1 NDC255      0.0000 
     25 O1N        -6.3850   49.8280   46.8170 O.co2     1 NDC255      0.0000 
     26 O2N        -5.3050   47.7940   47.9320 O.co2     1 NDC255      0.0000 
     27 O5B        -5.4920   48.0190   45.4230 O.3       1 NDC255      0.0000 
     28 C5B        -5.5060   46.5600   45.2920 C.3       1 NDC255      0.0000 
     29 C4B        -6.0060   46.2550   43.9000 C.3       1 NDC255      0.0000 
     30 O4B        -7.3930   46.7940   43.8080 O.3       1 NDC255      0.0000 
     31 C3B        -5.2480   47.0440   42.7540 C.3       1 NDC255      0.0000 
     32 O3B        -5.2910   46.2720   41.5890 O.3       1 NDC255      0.0000 
     33 C2B        -6.1210   48.2930   42.5860 C.3       1 NDC255      0.0000 
     34 O2B        -5.8830   48.8820   41.3350 O.3       1 NDC255      0.0000 
     35 C1B        -7.5080   47.7300   42.7330 C.3       1 NDC255      0.0000 
     36 N1N        -8.5180   48.5840   42.9710 N.pl3     1 NDC255      0.0000 
     37 C2N        -8.6150   49.3450   44.1390 C.ar      1 NDC255      0.0000 
     38 C3N        -9.5860   50.2880   44.2910 C.ar      1 NDC255      0.0000 
     39 C7N        -9.8420   51.0100   45.5580 C.2       1 NDC255      0.0000 
     40 O7N       -10.8210   51.7790   45.6900 O.2       1 NDC255      0.0000 
     41 N7N        -8.9880   50.8430   46.6310 N.am      1 NDC255      0.0000 
     42 C4N       -10.4850   50.6720   43.1340 C.ar      1 NDC255      0.0000 
     43 C5N       -10.6870   49.4410   42.3130 C.ar      1 NDC255      0.0000 
     44 C6N        -9.7040   48.5080   42.1920 C.ar      1 NDC255      0.0000 
     45 CC1       -10.8990   52.4370   41.3530 C.2       1 NDC255      0.0000 
     46 OC1       -11.7410   51.7170   40.8010 O.2       1 NDC255      0.0000 
     47 CC2       -10.4810   53.7050   40.6600 C.3       1 NDC255      0.0000 
     48 CC3        -9.6260   54.6630   41.4350 C.3       1 NDC255      0.0000 
     49 CC4        -8.6790   54.0180   42.4170 C.3       1 NDC255      0.0000 
     50 CC5        -9.3980   52.9490   43.2130 C.3       1 NDC255      0.0000 
     51 CC6        -9.8790   51.8180   42.2980 C.3       1 NDC255      0.0000 
     52 H          -0.5230   48.2445   45.7679 H         1 NDC255      0.0000 
     53 H          -2.0376   47.7308   45.0050 H         1 NDC255      0.0000 
     54 H          -1.7622   45.5725   46.2261 H         1 NDC255      0.0000 
     55 H           0.0426   46.7673   47.7842 H         1 NDC255      0.0000 
     56 H           1.4547   47.2870   45.9921 H         1 NDC255      0.0000 
     57 H           1.0251   44.4137   45.2194 H         1 NDC255      0.0000 
     58 H           1.5856   47.8206   43.4767 H         1 NDC255      0.0000 
     59 H           5.7131   44.8381   39.9715 H         1 NDC255      0.0000 
     60 H           4.9423   46.4123   40.3630 H         1 NDC255      0.0000 
     61 H           3.9521   41.8299   42.8382 H         1 NDC255      0.0000 
     62 H          -6.1761   46.1143   46.0134 H         1 NDC255      0.0000 
     63 H          -4.5115   46.1527   45.4071 H         1 NDC255      0.0000 
     64 H          -5.9992   45.2410   43.6782 H         1 NDC255      0.0000 
     65 H          -4.3194   47.3062   43.1094 H         1 NDC255      0.0000 
     66 H          -5.9198   48.9254   43.4192 H         1 NDC255      0.0000 
     67 H          -7.6813   47.1179   41.8129 H         1 NDC255      0.0000 
     68 H          -7.9240   49.1762   44.8993 H         1 NDC255      0.0000 
     69 H          -8.2349   50.1988   46.4978 H         1 NDC255      0.0000 
     70 H          -9.1971   51.3809   47.4477 H         1 NDC255      0.0000 
     71 H         -11.6007   49.3503   41.8559 H         1 NDC255      0.0000 
     72 H          -9.7970   47.7179   41.5273 H         1 NDC255      0.0000 
     73 H         -11.4035   54.2439   40.3139 H         1 NDC255      0.0000 
     74 H          -9.9480   53.4338   39.7095 H         1 NDC255      0.0000 
     75 H         -10.2808   55.3742   41.9837 H         1 NDC255      0.0000 
     76 H          -9.0373   55.2830   40.7246 H         1 NDC255      0.0000 
     77 H          -8.2889   54.7741   43.0980 H         1 NDC255      0.0000 
     78 H          -7.8456   53.5676   41.8782 H         1 NDC255      0.0000 
     79 H         -10.2593   53.3855   43.7185 H         1 NDC255      0.0000 
     80 H          -8.7241   52.5349   43.9629 H         1 NDC255      0.0000 
     81 H          -9.0481   51.4579   41.7361 H         1 NDC255      0.0000 
     82 H           0.9894   44.4469   47.8954 H         1 NDC255      0.0000 
     83 H           2.3965   44.8502   47.2089 H         1 NDC255      0.0000 
     84 H          -4.3750   46.3471   41.1950 H         1 NDC255      0.0000 
     85 H          -5.5152   48.1450   40.7679 H         1 NDC255      0.0000 
@<TRIPOS>BOND
     1    2    1 ar   
     2    3    1 ar   
     3    4    1 1    
     4   23    1 1    
     5    5    4 1    
     6    6    5 1    
     7   52    5 1    
     8   53    5 1    
     9    7    6 1    
    10    8    6 1    
    11   54    6 1    
    12   12    7 1    
    13    9    8 1    
    14   10    8 1    
    15   55    8 1    
    16   82    9 1    
    17   11   10 1    
    18   12   10 1    
    19   56   10 1    
    20   83   11 1    
    21   13   12 1    
    22   57   12 1    
    23   14   13 1    
    24   22   13 1    
    25   15   14 2    
    26   58   14 1    
    27   16   15 1    
    28   17   16 ar   
    29   22   16 ar   
    30   18   17 1    
    31   19   17 ar   
    32   59   18 1    
    33   60   18 1    
    34   20   19 ar   
    35   21   20 ar   
    36   61   20 1    
    37   22   21 ar   
    38   24   23 1    
    39   25   24 ar   
    40   26   24 ar   
    41   27   24 1    
    42   28   27 1    
    43   29   28 1    
    44   62   28 1    
    45   63   28 1    
    46   30   29 1    
    47   31   29 1    
    48   64   29 1    
    49   35   30 1    
    50   32   31 1    
    51   33   31 1    
    52   65   31 1    
    53   84   32 1    
    54   34   33 1    
    55   35   33 1    
    56   66   33 1    
    57   85   34 1    
    58   36   35 1    
    59   67   35 1    
    60   37   36 ar   
    61   44   36 ar   
    62   38   37 ar   
    63   68   37 1    
    64   39   38 1    
    65   42   38 ar   
    66   40   39 2    
    67   41   39 am   
    68   69   41 1    
    69   70   41 1    
    70   43   42 ar   
    71   51   42 1    
    72   44   43 ar   
    73   71   43 1    
    74   72   44 1    
    75   46   45 2    
    76   47   45 1    
    77   51   45 1    
    78   48   47 1    
    79   73   47 1    
    80   74   47 1    
    81   49   48 1    
    82   75   48 1    
    83   76   48 1    
    84   50   49 1    
    85   77   49 1    
    86   78   49 1    
    87   51   50 1    
    88   79   50 1    
    89   80   50 1    
    90   81   51 1    
@<TRIPOS>SUBSTRUCTURE
     1 NDC255      1 GROUP   
@<TRIPOS>SET

