#    Name: 1wwk_NAD_2_INTS_M
#    Modification time : Tue Mar 25 09:22:36 2014

@<TRIPOS>MOLECULE
1wwk_NAD_2_INTS_M
   93     0    12     0     0
SMALL
NO_CHARGES


@<TRIPOS>ATOM
      1 NZ         95.0440   -6.4575   32.8160 N.4       3 LYC4        0.0000 
      2 NZ         95.5540   -6.0800   31.2200 N.4      11 LYL4        0.0000 
      3 NZ         94.5340   -6.8350   34.4120 N.4       7 LYP4        0.0000 
      4 N          94.4145   -6.0245   30.1980 N.am      2 SEC2        0.0000 
      5 N          95.5540   -6.0800   31.2200 N.am     10 SEL2        0.0000 
      6 N          93.2750   -5.9690   29.1760 N.am      6 SEP2        0.0000 
      7 CA         99.0915   -2.6060   28.4860 C.3       4 GLC5        0.0000 
      8 CA         98.3100   -4.6540   28.9430 C.3      12 GLL5        0.0000 
      9 CA         99.8730   -0.5580   28.0290 C.3       8 GLP5        0.0000 
     10 CA         98.2080   -3.6665   25.8430 C.3       4 GLC5        0.0000 
     11 CA         98.5310   -4.9410   27.4570 C.3      12 GLL5        0.0000 
     12 CA         97.8850   -2.3920   24.2290 C.3       8 GLP5        0.0000 
     13 O          98.3225   -6.5350   24.9295 O.2       1 ALC1        0.0000 
     14 O          98.0820   -6.9210   26.1180 O.2       9 ALL1        0.0000 
     15 O          98.5630   -6.1490   23.7410 O.2       5 ALP1        0.0000 
     16 O         100.4915   -7.3770   24.6135 O.2       1 ALC1        0.0000 
     17 O         100.6490   -7.4600   25.9780 O.2       9 ALL1        0.0000 
     18 O         100.3340   -7.2940   23.2490 O.2       5 ALP1        0.0000 
     19 O          99.6060   -6.8045   24.8595 O.2       1 ALC1        0.0000 
     20 CA         99.1420   -3.7290   25.1835 C.3       4 GLC5        0.0000 
     21 CA        100.3990   -5.0660   26.1380 C.3      12 GLL5        0.0000 
     22 CA        100.4650   -2.8515   25.8725 C.3       4 GLC5        0.0000 
     23 CA        100.5310   -0.6370   25.6070 C.3       8 GLP5        0.0000 
     24 CA        100.8960   -3.8505   27.8950 C.3       4 GLC5        0.0000 
     25 CA        101.3930   -2.6350   29.6520 C.3       8 GLP5        0.0000 
     26 O         106.7555   -2.5400   25.2440 O.2       1 ALC1        0.0000 
     27 O         105.4610   -2.3990   24.3940 O.2       9 ALL1        0.0000 
     28 O         108.0500   -2.6810   26.0940 O.2       5 ALP1        0.0000 
     29 CA        101.2650   -0.6640   22.5590 C.3       4 GLC5        0.0000 
     30 CA        102.1740   -2.3870   23.0960 C.3      12 GLL5        0.0000 
     31 CA        100.3560    1.0590   22.0220 C.3       8 GLP5        0.0000 
     32 CA        100.0295   -2.3895   23.6625 C.3       4 GLC5        0.0000 
     33 CA        102.5435   -3.9640   22.5595 C.3       4 GLC5        0.0000 
     34 CA        102.9130   -5.5410   22.0230 C.3       8 GLP5        0.0000 
     35 CA        101.3525   -1.5120   24.3515 C.3       4 GLC5        0.0000 
     36 CA        102.5400   -4.6405   23.5005 C.3       4 GLC5        0.0000 
     37 CA        102.1670   -3.7400   24.9780 C.3      12 GLL5        0.0000 
     38 NZ         95.1735   -4.8405   33.8885 N.4       3 LYC4        0.0000 
     39 NZ         94.8090   -3.6390   32.9770 N.4      11 LYL4        0.0000 
     40 N          95.1735   -4.8405   33.8885 N.am      2 SEC2        0.0000 
     41 N          94.8090   -3.6390   32.9770 N.am     10 SEL2        0.0000 
     42 N          95.5380   -6.0420   34.8000 N.am      6 SEP2        0.0000 
     43 N          93.3165   -3.2680   30.0480 N.am      2 SEC2        0.0000 
     44 N          94.7420   -3.0930   30.4950 N.am     10 SEL2        0.0000 
     45 N          91.8910   -3.4430   29.6010 N.am      6 SEP2        0.0000 
     46 CA         99.9300   -0.3260   31.9760 C.3       4 GLC5        0.0000 
     47 CA         98.2320    0.2720   32.5990 C.3      12 GLL5        0.0000 
     48 CA        101.6280   -0.9240   31.3530 C.3       8 GLP5        0.0000 
     49 O          99.6940    1.0250   31.2190 O.2       1 ALC1        0.0000 
     50 O          99.2470    1.2680   32.4510 O.2       9 ALL1        0.0000 
     51 O         100.1410    0.7820   29.9870 O.2       5 ALP1        0.0000 
     52 CA         94.7840    0.6750   32.8480 C.3       4 GLC5        0.0000 
     53 CA         96.5980    1.6240   33.5230 C.3      12 GLL5        0.0000 
     54 CA         92.9700   -0.2740   32.1730 C.3       8 GLP5        0.0000 
     55 CA         97.0560    2.9100   32.3080 C.3       4 GLC5        0.0000 
     56 CA         97.5140    4.1960   31.0930 C.3       8 GLP5        0.0000 
     57 CA         93.3010    3.2715   33.3620 C.3       4 GLC5        0.0000 
     58 CA         95.1070    3.3100   34.5750 C.3      12 GLL5        0.0000 
     59 CA         91.4950    3.2330   32.1490 C.3       8 GLP5        0.0000 
     60 CA         96.3105    3.7530   32.8340 C.3       4 GLC5        0.0000 
     61 N          91.4135    5.2920   36.8880 N.am      2 SEC2        0.0000 
     62 N          92.9920    5.5030   36.5450 N.am     10 SEL2        0.0000 
     63 N          89.8350    5.0810   37.2310 N.am      6 SEP2        0.0000 
     64 O          94.4965    5.3825   33.2830 O.2       1 ALC1        0.0000 
     65 O          93.9580    5.8830   34.5380 O.2       9 ALL1        0.0000 
     66 O          95.0350    4.8820   32.0280 O.2       5 ALP1        0.0000 
     67 O          93.3810    7.1935   34.4830 O.2       1 ALC1        0.0000 
     68 O          92.8040    8.5040   34.4280 O.2       5 ALP1        0.0000 
     69 CA         91.8785    2.9645   37.5300 C.3       4 GLC5        0.0000 
     70 CA         93.4990    2.6720   36.2470 C.3      12 GLL5        0.0000 
     71 CA         90.2580    3.2570   38.8130 C.3       8 GLP5        0.0000 
     72 CA         99.9068   -3.7162   28.9260 C.3       4 GLC5        0.0000 
     73 CA         96.6979   -5.8731   27.4893 C.3       4 GLC5        0.0000 
     74 CA         94.7630   -6.1360   27.2680 C.3       8 GLP5        0.0000 
     75 CA        104.0110   -4.5395   23.7990 C.3       4 GLC5        0.0000 
     76 CA        103.5180   -3.4880   25.1730 C.3      12 GLL5        0.0000 
     77 CA        104.1820   -6.0080   22.8780 C.3       8 GLP5        0.0000 
     78 CA        104.4790   -1.7035   25.8165 C.3       4 GLC5        0.0000 
     79 CA        105.1180   -0.3360   26.9130 C.3       8 GLP5        0.0000 
     80 CA        101.7673   -2.0213   25.2280 C.3       4 GLC5        0.0000 
     81 CA         94.9000   -0.2250   31.7453 C.3       4 GLC5        0.0000 
     82 CA         96.5520   -0.8380   31.0540 C.3      12 GLL5        0.0000 
     83 CA         96.6645    0.4075   29.2787 C.3       4 GLC5        0.0000 
     84 CA         96.4990    0.9910   27.2400 C.3       8 GLP5        0.0000 
     85 CA         97.9970    1.9610   31.0310 C.3       4 GLC5        0.0000 
     86 CA         97.1080    0.4860   31.5810 C.3      12 GLL5        0.0000 
     87 CA         98.3240    3.5430   29.9720 C.3       8 GLP5        0.0000 
     88 CA         94.2095    1.4678   38.0438 C.3       4 GLC5        0.0000 
     89 CA         94.7150    0.9270   39.8830 C.3       8 GLP5        0.0000 
     90 CA         92.2763    2.2970   35.1836 C.3       4 GLC5        0.0000 
     91 CA         93.9090    1.3450   36.1620 C.3      12 GLL5        0.0000 
     92 CA         90.7010    2.3400   34.3600 C.3       8 GLP5        0.0000 
     93 CA         93.6935    0.4472   33.9470 C.3       4 GLC5        0.0000 
@<TRIPOS>BOND
@<TRIPOS>SUBSTRUCTURE
     1 ALC1       13 GROUP        1 X    ALC  0     ROOT ALC X 1
     2 SEC2        4 GROUP        1 X    SEC  0     **** SEC X 2
     3 LYC4        1 GROUP        1 X    LYC  0     **** LYC X 4
     4 GLC5        7 GROUP        1 X    GLC  0     **** GLC X 6
     5 ALP1       15 GROUP        1 Y    ALP  0     ROOT ALP Y 8
     6 SEP2        6 GROUP        1 Y    SEP  0     **** SEP Y 9
     7 LYP4        3 GROUP        1 Y    LYP  0     **** LYP Y 11
     8 GLP5        9 GROUP        1 Y    GLP  0     **** GLP Y 13
     9 ALL1       14 GROUP        1 Z    ALL  0     ROOT ALL Z 15
    10 SEL2        5 GROUP        1 Z    SEL  0     **** SEL Z 16
    11 LYL4        2 GROUP        1 Z    LYL  0     **** LYL Z 18
    12 GLL5        8 GROUP        1 Z    GLL  0     **** GLL Z 20
@<TRIPOS>SET

