#    Name: 1wwk_NAD_2_ligand
#    Modification time : Tue Mar 25 09:22:37 2014

@<TRIPOS>MOLECULE
1wwk_NAD_2_ligand
   70    74     1     0     0
SMALL
NO_CHARGES


@<TRIPOS>ATOM
      1 PA         96.8790   -5.4610   30.9930 P.3       1 NAD2001     0.0000 
      2 O1A        98.0690   -6.1090   31.5880 O.co2     1 NAD2001     0.0000 
      3 O2A        95.5540   -6.0800   31.2200 O.co2     1 NAD2001     0.0000 
      4 O5B        97.1190   -5.2910   29.4120 O.3       1 NAD2001     0.0000 
      5 C5B        98.3100   -4.6540   28.9430 C.3       1 NAD2001     0.0000 
      6 C4B        98.5310   -4.9410   27.4570 C.3       1 NAD2001     0.0000 
      7 O4B        99.6880   -4.2010   27.0340 O.3       1 NAD2001     0.0000 
      8 C3B        98.8450   -6.4230   27.2210 C.3       1 NAD2001     0.0000 
      9 O3B        98.0820   -6.9210   26.1180 O.3       1 NAD2001     0.0000 
     10 C2B       100.3360   -6.3980   26.8840 C.3       1 NAD2001     0.0000 
     11 O2B       100.6490   -7.4600   25.9780 O.3       1 NAD2001     0.0000 
     12 C1B       100.3990   -5.0660   26.1380 C.3       1 NAD2001     0.0000 
     13 N9A       101.7780   -4.5560   25.9530 N.pl3     1 NAD2001     0.0000 
     14 C8A       102.8340   -4.8040   26.7250 C.2       1 NAD2001     0.0000 
     15 N7A       103.8980   -4.1550   26.2590 N.2       1 NAD2001     0.0000 
     16 C5A       103.5180   -3.4880   25.1730 C.ar      1 NAD2001     0.0000 
     17 C6A       104.1620   -2.6540   24.2670 C.ar      1 NAD2001     0.0000 
     18 N6A       105.4610   -2.3990   24.3940 N.pl3     1 NAD2001     0.0000 
     19 N1A       103.4620   -2.1260   23.2520 N.ar      1 NAD2001     0.0000 
     20 C2A       102.1740   -2.3870   23.0960 C.ar      1 NAD2001     0.0000 
     21 N3A       101.5320   -3.1770   23.9390 N.ar      1 NAD2001     0.0000 
     22 C4A       102.1670   -3.7400   24.9780 C.ar      1 NAD2001     0.0000 
     23 O3         96.8670   -3.9460   31.5370 O.3       1 NAD2001     0.0000 
     24 PN         95.4960   -3.1340   31.7670 P.3       1 NAD2001     0.0000 
     25 O1N        94.8090   -3.6390   32.9770 O.co2     1 NAD2001     0.0000 
     26 O2N        94.7420   -3.0930   30.4950 O.co2     1 NAD2001     0.0000 
     27 O5D        96.0340   -1.6550   32.1080 O.3       1 NAD2001     0.0000 
     28 C5D        96.5520   -0.8380   31.0540 C.3       1 NAD2001     0.0000 
     29 C4D        97.1080    0.4860   31.5810 C.3       1 NAD2001     0.0000 
     30 O4D        96.0460    1.1620   32.2800 O.3       1 NAD2001     0.0000 
     31 C3D        98.2320    0.2720   32.5990 C.3       1 NAD2001     0.0000 
     32 O3D        99.2470    1.2680   32.4510 O.3       1 NAD2001     0.0000 
     33 C2D        97.5040    0.4620   33.9280 C.3       1 NAD2001     0.0000 
     34 O2D        98.4000    0.8840   34.9600 O.3       1 NAD2001     0.0000 
     35 C1D        96.5980    1.6240   33.5230 C.3       1 NAD2001     0.0000 
     36 N1N        95.5280    1.9760   34.4840 N.pl3     1 NAD2001     0.0000 
     37 C2N        95.1070    3.3100   34.5750 C.ar      1 NAD2001     0.0000 
     38 C3N        94.0890    3.6540   35.4580 C.ar      1 NAD2001     0.0000 
     39 C7N        93.6180    5.1070   35.5630 C.2       1 NAD2001     0.0000 
     40 O7N        92.9920    5.5030   36.5450 O.2       1 NAD2001     0.0000 
     41 N7N        93.9580    5.8830   34.5380 N.am      1 NAD2001     0.0000 
     42 C4N        93.4990    2.6720   36.2470 C.ar      1 NAD2001     0.0000 
     43 C5N        93.9090    1.3450   36.1620 C.ar      1 NAD2001     0.0000 
     44 C6N        94.9250    0.9920   35.2800 C.ar      1 NAD2001     0.0000 
     45 H          99.1994   -5.0064   29.4863 H         1 NAD2001     0.0000 
     46 H          98.2621   -3.5619   29.0680 H         1 NAD2001     0.0000 
     47 H          97.6719   -4.6713   26.9073 H         1 NAD2001     0.0000 
     48 H          98.7077   -6.9421   28.1196 H         1 NAD2001     0.0000 
     49 H         100.8874   -6.3431   27.7397 H         1 NAD2001     0.0000 
     50 H          99.8792   -5.1644   25.2256 H         1 NAD2001     0.0000 
     51 H         102.8280   -5.3804   27.5202 H         1 NAD2001     0.0000 
     52 H         105.9116   -2.7976   25.1928 H         1 NAD2001     0.0000 
     53 H         105.8700   -1.8317   23.6792 H         1 NAD2001     0.0000 
     54 H         101.6508   -1.9563   22.2838 H         1 NAD2001     0.0000 
     55 H          95.7737   -0.5986   30.3079 H         1 NAD2001     0.0000 
     56 H          97.3667   -1.3479   30.5100 H         1 NAD2001     0.0000 
     57 H          97.4695    1.0700   30.7751 H         1 NAD2001     0.0000 
     58 H          98.5673   -0.7138   32.5338 H         1 NAD2001     0.0000 
     59 H          96.9252   -0.3634   34.1252 H         1 NAD2001     0.0000 
     60 H          97.2391    2.4750   33.3237 H         1 NAD2001     0.0000 
     61 H          95.5508    4.0255   33.9909 H         1 NAD2001     0.0000 
     62 H          93.6292    6.8268   34.5726 H         1 NAD2001     0.0000 
     63 H          94.5118    5.4528   33.8251 H         1 NAD2001     0.0000 
     64 H          92.7451    2.9315   36.9060 H         1 NAD2001     0.0000 
     65 H          93.4635    0.6298   36.7477 H         1 NAD2001     0.0000 
     66 H          95.2349    0.0181   35.2087 H         1 NAD2001     0.0000 
     67 H          98.4704   -6.4743   25.3121 H         1 NAD2001     0.0000 
     68 H         100.4422   -7.0950   25.0702 H         1 NAD2001     0.0000 
     69 H          99.9019    0.8760   31.8049 H         1 NAD2001     0.0000 
     70 H          99.2450    1.1292   34.4847 H         1 NAD2001     0.0000 
@<TRIPOS>BOND
     1    2    1 ar   
     2    3    1 ar   
     3    4    1 1    
     4   23    1 1    
     5    5    4 1    
     6    6    5 1    
     7   45    5 1    
     8   46    5 1    
     9    7    6 1    
    10    8    6 1    
    11   47    6 1    
    12   12    7 1    
    13    9    8 1    
    14   10    8 1    
    15   48    8 1    
    16   67    9 1    
    17   11   10 1    
    18   12   10 1    
    19   49   10 1    
    20   68   11 1    
    21   13   12 1    
    22   50   12 1    
    23   14   13 1    
    24   22   13 1    
    25   15   14 2    
    26   51   14 1    
    27   16   15 1    
    28   17   16 ar   
    29   22   16 ar   
    30   18   17 1    
    31   19   17 ar   
    32   52   18 1    
    33   53   18 1    
    34   20   19 ar   
    35   21   20 ar   
    36   54   20 1    
    37   22   21 ar   
    38   24   23 1    
    39   25   24 ar   
    40   26   24 ar   
    41   27   24 1    
    42   28   27 1    
    43   29   28 1    
    44   55   28 1    
    45   56   28 1    
    46   30   29 1    
    47   31   29 1    
    48   57   29 1    
    49   35   30 1    
    50   32   31 1    
    51   33   31 1    
    52   58   31 1    
    53   69   32 1    
    54   34   33 1    
    55   35   33 1    
    56   59   33 1    
    57   70   34 1    
    58   36   35 1    
    59   60   35 1    
    60   37   36 ar   
    61   44   36 ar   
    62   38   37 ar   
    63   61   37 1    
    64   39   38 1    
    65   42   38 ar   
    66   40   39 2    
    67   41   39 am   
    68   62   41 1    
    69   63   41 1    
    70   43   42 ar   
    71   64   42 1    
    72   44   43 ar   
    73   65   43 1    
    74   66   44 1    
@<TRIPOS>SUBSTRUCTURE
     1 NAD2001     1 GROUP   
@<TRIPOS>SET

