#    Name: 1ovw_DP5_2_INTS_M
#    Modification time : Mon Mar 24 20:40:49 2014

@<TRIPOS>MOLECULE
1ovw_DP5_2_INTS_M
   96     0     9     0     0
SMALL
NO_CHARGES


@<TRIPOS>ATOM
      1 CA         38.9235   69.0100   96.1275 C.3       3 GLC5        0.0000 
      2 CA         40.3510   68.8840   97.3570 C.3       9 GLL5        0.0000 
      3 CA         37.4960   69.1360   94.8980 C.3       6 GLP5        0.0000 
      4 CA         42.4425   71.5665   97.9810 C.3       3 GLC5        0.0000 
      5 CA         41.0970   70.1780   97.2070 C.3       9 GLL5        0.0000 
      6 CA         43.7880   72.9550   98.7550 C.3       6 GLP5        0.0000 
      7 CA         39.4815   70.7445   95.8330 C.3       3 GLC5        0.0000 
      8 CA         37.8660   71.3110   94.4590 C.3       6 GLP5        0.0000 
      9 CA         40.7635   72.5180   96.1375 C.3       3 GLC5        0.0000 
     10 CA         41.3800   70.4560   95.7550 C.3       9 GLL5        0.0000 
     11 CA         40.1470   74.5800   96.5200 C.3       6 GLP5        0.0000 
     12 CA         39.9125   70.5410   94.6050 C.3       3 GLC5        0.0000 
     13 CA         38.4450   70.6260   93.4550 C.3       6 GLP5        0.0000 
     14 CA         40.1560   69.2520   94.4080 C.3       3 GLC5        0.0000 
     15 CA         42.0880   69.2670   95.1150 C.3       9 GLL5        0.0000 
     16 CA         38.2240   69.2370   93.7010 C.3       6 GLP5        0.0000 
     17 CA         39.9185   68.0370   94.1450 C.3       3 GLC5        0.0000 
     18 CA         41.2510   68.0130   95.2670 C.3       9 GLL5        0.0000 
     19 CA         38.5860   68.0610   93.0230 C.3       6 GLP5        0.0000 
     20 CA         40.0520   66.8025   94.1625 C.3       3 GLC5        0.0000 
     21 CA         41.9020   66.7660   94.7380 C.3       9 GLL5        0.0000 
     22 CA         38.2020   66.8390   93.5870 C.3       6 GLP5        0.0000 
     23 N          39.8005   72.3590   97.3065 N.am      2 SEC2        0.0000 
     24 N          40.2920   71.2150   97.7670 N.am      8 SEL2        0.0000 
     25 N          39.3090   73.5030   96.8460 N.am      5 SEP2        0.0000 
     26 O          40.8105   71.5195   99.1395 O.2       1 ALC1        0.0000 
     27 O          40.2920   71.2150   97.7670 O.2       7 ALL1        0.0000 
     28 O          41.3290   71.8240  100.5120 O.2       4 ALP1        0.0000 
     29 CA         40.8300   70.3285   92.8110 C.3       3 GLC5        0.0000 
     30 CA         42.4810   69.4450   93.3360 C.3       9 GLL5        0.0000 
     31 CA         39.1790   71.2120   92.2860 C.3       6 GLP5        0.0000 
     32 CA         40.9440   66.8665  102.2350 C.3       3 GLC5        0.0000 
     33 CA         39.4240   66.6340  100.6480 C.3       9 GLL5        0.0000 
     34 CA         42.4640   67.0990  103.8220 C.3       6 GLP5        0.0000 
     35 CA         39.1945   70.0310  101.4950 C.3       3 GLC5        0.0000 
     36 CA         38.2790   68.7810  100.4450 C.3       9 GLL5        0.0000 
     37 CA         40.1100   71.2810  102.5450 C.3       6 GLP5        0.0000 
     38 CA         36.8510   71.4955   99.0780 C.3       3 GLC5        0.0000 
     39 CA         37.8100   69.9500   99.6680 C.3       9 GLL5        0.0000 
     40 CA         35.8920   73.0410   98.4880 C.3       6 GLP5        0.0000 
     41 CA         38.5355   71.4030  100.3055 C.3       3 GLC5        0.0000 
     42 CA         39.2610   72.8560  100.9430 C.3       6 GLP5        0.0000 
     43 CA         35.6640   70.1360   99.6710 C.3       3 GLC5        0.0000 
     44 CA         33.5180   70.3220   99.6740 C.3       6 GLP5        0.0000 
     45 N          38.5240   63.8730  102.2935 N.am      2 SEC2        0.0000 
     46 N          38.4280   65.4780  102.4900 N.am      8 SEL2        0.0000 
     47 N          38.6200   62.2680  102.0970 N.am      5 SEP2        0.0000 
     48 O          38.8725   66.0350  103.5260 O.2       1 ALC1        0.0000 
     49 O          38.4280   65.4780  102.4900 O.2       7 ALL1        0.0000 
     50 O          39.3170   66.5920  104.5620 O.2       4 ALP1        0.0000 
     51 O          38.4415   66.9195  103.0460 O.2       1 ALC1        0.0000 
     52 O          38.4550   68.3610  103.6020 O.2       4 ALP1        0.0000 
     53 CA         40.3805   70.2405  100.2505 C.3       3 GLC5        0.0000 
     54 CA         40.5090   68.5220   99.1430 C.3       9 GLL5        0.0000 
     55 CA         40.2520   71.9590  101.3580 C.3       6 GLP5        0.0000 
     56 N          37.2775   70.0275   96.8855 N.am      2 SEC2        0.0000 
     57 N          37.2620   69.6450   98.4400 N.am      8 SEL2        0.0000 
     58 N          37.2930   70.4100   95.3310 N.am      5 SEP2        0.0000 
     59 O          36.1685   69.2090   98.6430 O.2       1 ALC1        0.0000 
     60 O          37.2620   69.6450   98.4400 O.2       7 ALL1        0.0000 
     61 O          35.0750   68.7730   98.8460 O.2       4 ALP1        0.0000 
     62 CA         32.1735   63.7505   98.6500 C.3       3 GLC5        0.0000 
     63 CA         33.6030   62.9380   99.9950 C.3       9 GLL5        0.0000 
     64 CA         30.7440   64.5630   97.3050 C.3       6 GLP5        0.0000 
     65 CA         33.2945   65.8095   98.9460 C.3       3 GLC5        0.0000 
     66 CA         34.3760   65.1440  100.6510 C.3       9 GLL5        0.0000 
     67 CA         32.2130   66.4750   97.2410 C.3       6 GLP5        0.0000 
     68 CA         36.8905   65.1680   96.2270 C.3       3 GLC5        0.0000 
     69 CA         36.3040   63.5810   97.6580 C.3       9 GLL5        0.0000 
     70 CA         37.4770   66.7550   94.7960 C.3       6 GLP5        0.0000 
     71 CA         34.5225   64.1025   96.7920 C.3       3 GLC5        0.0000 
     72 CA         32.7410   64.6240   95.9260 C.3       6 GLP5        0.0000 
     73 CA         33.3105   60.4675  101.9550 C.3       3 GLC5        0.0000 
     74 CA         32.6370   61.4560  100.2560 C.3       9 GLL5        0.0000 
     75 CA         33.9840   59.4790  103.6540 C.3       6 GLP5        0.0000 
     76 O          32.6025   62.7875  102.7730 O.2       1 ALC1        0.0000 
     77 O          32.5660   64.0620  101.8300 O.2       7 ALL1        0.0000 
     78 O          32.6390   61.5130  103.7160 O.2       4 ALP1        0.0000 
     79 O          31.4310   63.4455  102.7045 O.2       1 ALC1        0.0000 
     80 O          30.2960   62.8290  103.5790 O.2       4 ALP1        0.0000 
     81 N          34.7325   65.4230  103.0650 N.am      2 SEC2        0.0000 
     82 N          34.5910   65.9290  101.7780 N.am      8 SEL2        0.0000 
     83 N          34.8740   64.9170  104.3520 N.am      5 SEP2        0.0000 
     84 O          34.0935   66.9565  100.9805 O.2       1 ALC1        0.0000 
     85 O          34.5910   65.9290  101.7780 O.2       7 ALL1        0.0000 
     86 O          33.5960   67.9840  100.1830 O.2       4 ALP1        0.0000 
     87 CA         36.7715   67.1140   97.3765 C.3       3 GLC5        0.0000 
     88 CA         36.4480   66.3140   99.3450 C.3       9 GLL5        0.0000 
     89 CA         37.0950   67.9140   95.4080 C.3       6 GLP5        0.0000 
     90 CA         39.7263   64.4710  100.8423 C.3       3 GLC5        0.0000 
     91 CA         40.6390   62.6760  100.7690 C.3       6 GLP5        0.0000 
     92 CA         34.6135   64.0560  102.5390 C.3       3 GLC5        0.0000 
     93 CA         35.1480   63.6410  104.1650 C.3       6 GLP5        0.0000 
     94 CA         34.2585   65.1105   97.7970 C.3       3 GLC5        0.0000 
     95 CA         35.6220   64.7520   99.8250 C.3       9 GLL5        0.0000 
     96 CA         33.0820   65.8960   96.3560 C.3       6 GLP5        0.0000 
@<TRIPOS>BOND
@<TRIPOS>SUBSTRUCTURE
     1 ALC1       26 GROUP        1 X    ALC  0     ROOT ALC X 1
     2 SEC2       23 GROUP        1 X    SEC  0     **** SEC X 2
     3 GLC5        1 GROUP        1 X    GLC  0     **** GLC X 6
     4 ALP1       28 GROUP        1 Y    ALP  0     ROOT ALP Y 8
     5 SEP2       25 GROUP        1 Y    SEP  0     **** SEP Y 9
     6 GLP5        3 GROUP        1 Y    GLP  0     **** GLP Y 13
     7 ALL1       27 GROUP        1 Z    ALL  0     ROOT ALL Z 15
     8 SEL2       24 GROUP        1 Z    SEL  0     **** SEL Z 16
     9 GLL5        2 GROUP        1 Z    GLL  0     **** GLL Z 20
@<TRIPOS>SET

