#    Name: 1ovw_DP5_2_ligand
#    Modification time : Mon Mar 24 20:40:49 2014

@<TRIPOS>MOLECULE
1ovw_DP5_2_ligand
   64    66     1     0     0
SMALL
NO_CHARGES


@<TRIPOS>ATOM
      1 C1A        40.3510   68.8840   97.3570 C.3       1 DP5401      0.0000 
      2 C2A        41.0970   70.1780   97.2070 C.3       1 DP5401      0.0000 
      3 C3A        41.3800   70.4560   95.7550 C.3       1 DP5401      0.0000 
      4 C4A        42.0880   69.2670   95.1150 C.3       1 DP5401      0.0000 
      5 C5A        41.2510   68.0130   95.2670 C.3       1 DP5401      0.0000 
      6 C6A        41.9020   66.7660   94.7380 C.3       1 DP5401      0.0000 
      7 O2A        40.2920   71.2150   97.7670 O.3       1 DP5401      0.0000 
      8 O3A        42.0770   71.6660   95.7070 O.3       1 DP5401      0.0000 
      9 S4A        42.4810   69.4450   93.3360 S.3       1 DP5401      0.0000 
     10 O5A        40.9880   67.7830   96.6570 O.3       1 DP5401      0.0000 
     11 O6A        43.2990   66.7540   94.9690 O.3       1 DP5401      0.0000 
     12 C1B        36.9860   66.7900  101.0630 C.3       1 DP5401      0.0000 
     13 C2B        38.2030   65.8980  101.1830 C.3       1 DP5401      0.0000 
     14 C3B        39.4240   66.6340  100.6480 C.3       1 DP5401      0.0000 
     15 C4B        38.9590   67.6920   99.6390 C.3       1 DP5401      0.0000 
     16 C5B        38.2790   68.7810  100.4450 C.3       1 DP5401      0.0000 
     17 C6B        37.8100   69.9500   99.6680 C.3       1 DP5401      0.0000 
     18 O2B        38.4280   65.4780  102.4900 O.3       1 DP5401      0.0000 
     19 O3B        40.3780   65.7900  100.1160 O.3       1 DP5401      0.0000 
     20 S4B        40.5090   68.5220   99.1430 S.3       1 DP5401      0.0000 
     21 O5B        37.1120   68.2030  101.0770 O.3       1 DP5401      0.0000 
     22 O6B        37.2620   69.6450   98.4400 O.3       1 DP5401      0.0000 
     23 C1C        33.6030   62.9380   99.9950 C.3       1 DP5401      0.0000 
     24 C2C        33.7820   63.7980  101.1750 C.3       1 DP5401      0.0000 
     25 C3C        34.3760   65.1440  100.6510 C.3       1 DP5401      0.0000 
     26 C4C        35.6220   64.7520   99.8250 C.3       1 DP5401      0.0000 
     27 C5C        35.2480   63.8980   98.6510 C.3       1 DP5401      0.0000 
     28 C6C        36.3040   63.5810   97.6580 C.3       1 DP5401      0.0000 
     29 S1C        32.6370   61.4560  100.2560 S.3       1 DP5401      0.0000 
     30 O2C        32.5660   64.0620  101.8300 O.3       1 DP5401      0.0000 
     31 O3C        34.5910   65.9290  101.7780 O.3       1 DP5401      0.0000 
     32 S4C        36.4480   66.3140   99.3450 S.3       1 DP5401      0.0000 
     33 O5C        34.8080   62.6480   99.3070 O.3       1 DP5401      0.0000 
     34 O6C        37.5470   63.2270   98.1420 O.3       1 DP5401      0.0000 
     35 H          39.3363   68.9773   97.2534 H         1 DP5401      0.0000 
     36 H          42.0342   70.0934   97.7363 H         1 DP5401      0.0000 
     37 H          40.3939   70.5574   95.2675 H         1 DP5401      0.0000 
     38 H          43.0642   69.1004   95.5434 H         1 DP5401      0.0000 
     39 H          40.3081   68.1571   94.7429 H         1 DP5401      0.0000 
     40 H          41.6706   66.6938   93.6547 H         1 DP5401      0.0000 
     41 H          41.4060   65.8942   95.2137 H         1 DP5401      0.0000 
     42 H          36.1601   66.3697  101.5894 H         1 DP5401      0.0000 
     43 H          38.0418   65.0391  100.5114 H         1 DP5401      0.0000 
     44 H          39.8337   67.2106  101.5104 H         1 DP5401      0.0000 
     45 H          38.5503   67.4031   98.8344 H         1 DP5401      0.0000 
     46 H          38.9620   69.1138  101.2235 H         1 DP5401      0.0000 
     47 H          38.6804   70.6606   99.5667 H         1 DP5401      0.0000 
     48 H          37.0811   70.5171  100.3161 H         1 DP5401      0.0000 
     49 H          32.9005   63.4833   99.2652 H         1 DP5401      0.0000 
     50 H          34.5237   63.3759  101.8256 H         1 DP5401      0.0000 
     51 H          33.6330   65.5391   99.9798 H         1 DP5401      0.0000 
     52 H          36.3489   64.3038  100.4623 H         1 DP5401      0.0000 
     53 H          34.3779   64.3285   98.1729 H         1 DP5401      0.0000 
     54 H          36.3781   64.4738   96.9537 H         1 DP5401      0.0000 
     55 H          35.8856   62.7717   96.9734 H         1 DP5401      0.0000 
     56 H          40.6600   71.3607   98.6854 H         1 DP5401      0.0000 
     57 H          41.9071   72.0978   96.5928 H         1 DP5401      0.0000 
     58 H          43.7013   66.4483   94.1060 H         1 DP5401      0.0000 
     59 H          38.7892   66.2824  102.9617 H         1 DP5401      0.0000 
     60 H          40.1161   65.6748   99.1578 H         1 DP5401      0.0000 
     61 H          36.2783   69.7838   98.5541 H         1 DP5401      0.0000 
     62 H          32.4387   63.2945  102.4583 H         1 DP5401      0.0000 
     63 H          34.2962   66.8473  101.5137 H         1 DP5401      0.0000 
     64 H          38.1772   63.8987   97.7526 H         1 DP5401      0.0000 
@<TRIPOS>BOND
     1    2    1 1    
     2   10    1 1    
     3   20    1 1    
     4   35    1 1    
     5    3    2 1    
     6    7    2 1    
     7   36    2 1    
     8    4    3 1    
     9    8    3 1    
    10   37    3 1    
    11    5    4 1    
    12    9    4 1    
    13   38    4 1    
    14    6    5 1    
    15   10    5 1    
    16   39    5 1    
    17   11    6 1    
    18   40    6 1    
    19   41    6 1    
    20   56    7 1    
    21   57    8 1    
    22   58   11 1    
    23   13   12 1    
    24   21   12 1    
    25   32   12 1    
    26   42   12 1    
    27   14   13 1    
    28   18   13 1    
    29   43   13 1    
    30   15   14 1    
    31   19   14 1    
    32   44   14 1    
    33   16   15 1    
    34   20   15 1    
    35   45   15 1    
    36   17   16 1    
    37   21   16 1    
    38   46   16 1    
    39   22   17 1    
    40   47   17 1    
    41   48   17 1    
    42   59   18 1    
    43   60   19 1    
    44   61   22 1    
    45   24   23 1    
    46   29   23 1    
    47   33   23 1    
    48   49   23 1    
    49   25   24 1    
    50   30   24 1    
    51   50   24 1    
    52   26   25 1    
    53   31   25 1    
    54   51   25 1    
    55   27   26 1    
    56   32   26 1    
    57   52   26 1    
    58   28   27 1    
    59   33   27 1    
    60   53   27 1    
    61   34   28 1    
    62   54   28 1    
    63   55   28 1    
    64   62   30 1    
    65   63   31 1    
    66   64   34 1    
@<TRIPOS>SUBSTRUCTURE
     1 DP5401      1 GROUP   
@<TRIPOS>SET

