#    Name: 3s2u_UD1_1_INTS_M
#    Modification time : Tue Mar 25 12:07:36 2014

@<TRIPOS>MOLECULE
3s2u_UD1_1_INTS_M
   84     0     9     0     0
SMALL
NO_CHARGES


@<TRIPOS>ATOM
      1 CA         14.7390  -14.1310  -16.4095 C.3       3 GLC5        0.0000 
      2 CA         14.8680  -15.6840  -15.0080 C.3       9 GLL5        0.0000 
      3 CA         14.6100  -12.5780  -17.8110 C.3       6 GLP5        0.0000 
      4 CA         15.5095  -19.2485  -12.2265 C.3       3 GLC5        0.0000 
      5 CA         14.9280  -17.4130  -13.2720 C.3       9 GLL5        0.0000 
      6 CA         16.0910  -21.0840  -11.1810 C.3       6 GLP5        0.0000 
      7 CA         11.2600  -13.5300  -13.9940 C.3       3 GLC5        0.0000 
      8 CA         11.8730  -15.2360  -12.9980 C.3       9 GLL5        0.0000 
      9 CA         10.6470  -11.8240  -14.9900 C.3       6 GLP5        0.0000 
     10 N          16.2615  -19.0795  -12.7115 N.am      2 SEC2        0.0000 
     11 N          15.6320  -17.9640  -12.1580 N.am      8 SEL2        0.0000 
     12 N          16.8910  -20.1950  -13.2650 N.am      5 SEP2        0.0000 
     13 N          12.1600  -19.6765  -13.7895 N.am      2 SEC2        0.0000 
     14 N          12.7790  -18.5170  -13.1390 N.am      8 SEL2        0.0000 
     15 N          11.5410  -20.8360  -14.4400 N.am      5 SEP2        0.0000 
     16 O          11.7895  -18.6255  -12.1595 O.2       1 ALC1        0.0000 
     17 O          12.7790  -18.5170  -13.1390 O.2       7 ALL1        0.0000 
     18 O          10.8000  -18.7340  -11.1800 O.2       4 ALP1        0.0000 
     19 N          13.6105  -14.0895  -15.7275 N.am      2 SEC2        0.0000 
     20 N          13.4800  -15.3700  -14.7550 N.am      8 SEL2        0.0000 
     21 N          13.7410  -12.8090  -16.7000 N.am      5 SEP2        0.0000 
     22 N          10.0480  -16.1775  -11.8710 N.am      2 SEC2        0.0000 
     23 N          10.4590  -15.4530  -13.1000 N.am      8 SEL2        0.0000 
     24 N           9.6370  -16.9020  -10.6420 N.am      5 SEP2        0.0000 
     25 O          14.8830  -18.1585  -28.1495 O.2       1 ALC1        0.0000 
     26 O          14.8040  -17.9320  -26.7670 O.2       7 ALL1        0.0000 
     27 O          14.9620  -18.3850  -29.5320 O.2       4 ALP1        0.0000 
     28 CA         18.1785  -19.1440  -25.5545 C.3       3 GLC5        0.0000 
     29 CA         16.2500  -18.3020  -24.8820 C.3       9 GLL5        0.0000 
     30 CA         20.1070  -19.9860  -26.2270 C.3       6 GLP5        0.0000 
     31 CA         15.7580  -19.7510  -26.2485 C.3       3 GLC5        0.0000 
     32 CA         15.2660  -21.2000  -27.6150 C.3       6 GLP5        0.0000 
     33 N          11.0220  -18.4010  -26.2310 N.am      2 SEC2        0.0000 
     34 N          12.5550  -17.6800  -26.4320 N.am      8 SEL2        0.0000 
     35 N           9.4890  -19.1220  -26.0300 N.am      5 SEP2        0.0000 
     36 N          17.4120  -18.2580  -28.2880 N.am      2 SEC2        0.0000 
     37 N          16.9200  -18.5140  -27.0770 N.am      8 SEL2        0.0000 
     38 N          17.9040  -18.0020  -29.4990 N.am      5 SEP2        0.0000 
     39 CA         12.0350  -16.5255  -24.2795 C.3       3 GLC5        0.0000 
     40 CA         12.6980  -18.0360  -23.7390 C.3       9 GLL5        0.0000 
     41 CA         11.3720  -15.0150  -24.8200 C.3       6 GLP5        0.0000 
     42 O          10.9790  -21.1330  -24.0415 O.2       1 ALC1        0.0000 
     43 O          11.5720  -20.1050  -24.4720 O.2       7 ALL1        0.0000 
     44 O          10.3860  -22.1610  -23.6110 O.2       4 ALP1        0.0000 
     45 O          10.1290  -20.4330  -24.0210 O.2       1 ALC1        0.0000 
     46 O           8.6860  -20.7610  -23.5700 O.2       4 ALP1        0.0000 
     47 CA         10.2625  -19.3950  -20.7235 C.3       3 GLC5        0.0000 
     48 CA         11.2140  -19.0320  -22.2850 C.3       9 GLL5        0.0000 
     49 CA          9.3110  -19.7580  -19.1620 C.3       6 GLP5        0.0000 
     50 CA         11.9855  -15.9905  -21.3010 C.3       3 GLC5        0.0000 
     51 CA         11.9490  -17.9080  -21.5560 C.3       9 GLL5        0.0000 
     52 CA         12.0220  -14.0730  -21.0460 C.3       6 GLP5        0.0000 
     53 CA         10.0670  -17.8860  -20.8620 C.3       3 GLC5        0.0000 
     54 CA          8.1850  -17.8640  -20.1680 C.3       6 GLP5        0.0000 
     55 O           9.3455  -19.6510  -23.2280 O.2       1 ALC1        0.0000 
     56 O          10.0050  -18.5410  -22.8860 O.2       7 ALL1        0.0000 
     57 CA         11.0785  -19.1130  -19.8200 C.3       3 GLC5        0.0000 
     58 CA         12.8460  -18.4680  -20.4780 C.3       9 GLL5        0.0000 
     59 CA         13.5910  -20.4815  -20.3030 C.3       3 GLC5        0.0000 
     60 CA         14.3360  -22.4950  -20.1280 C.3       6 GLP5        0.0000 
     61 N          10.8845  -19.5775  -16.8670 N.am      2 SEC2        0.0000 
     62 N          11.9340  -18.3800  -16.7870 N.am      8 SEL2        0.0000 
     63 N           9.8350  -20.7750  -16.9470 N.am      5 SEP2        0.0000 
     64 N          12.2300  -21.3115  -18.4795 N.am      2 SEC2        0.0000 
     65 N          13.1240  -20.2950  -18.0660 N.am      8 SEL2        0.0000 
     66 N          11.3360  -22.3280  -18.8930 N.am      5 SEP2        0.0000 
     67 N          13.6455  -14.2710  -17.1645 N.am      2 SEC2        0.0000 
     68 N          13.5500  -15.7330  -17.6290 N.am      8 SEL2        0.0000 
     69 N          12.4435  -15.4580  -18.3025 N.am      2 SEC2        0.0000 
     70 N          11.3370  -15.1830  -18.9760 N.am      5 SEP2        0.0000 
     71 N          16.7105  -16.7685  -19.4695 N.am      2 SEC2        0.0000 
     72 N          16.0670  -16.2680  -18.0180 N.am      8 SEL2        0.0000 
     73 N          17.3540  -17.2690  -20.9210 N.am      5 SEP2        0.0000 
     74 CA         14.0605  -19.2065  -13.9630 C.3       3 GLC5        0.0000 
     75 CA         13.9430  -21.0860  -14.7900 C.3       6 GLP5        0.0000 
     76 CA         16.4285  -17.0975  -22.9808 C.3       3 GLC5        0.0000 
     77 CA         15.1380  -18.2100  -24.0270 C.3       9 GLL5        0.0000 
     78 CA         17.1630  -15.9390  -21.5070 C.3       6 GLP5        0.0000 
     79 CA         16.1150  -16.5895  -25.0332 C.3       3 GLC5        0.0000 
     80 CA         16.5360  -14.9230  -25.6120 C.3       6 GLP5        0.0000 
     81 CA         11.4262  -17.0180  -19.5160 C.3       3 GLC5        0.0000 
     82 CA         10.4550  -15.8480  -18.0150 C.3       6 GLP5        0.0000 
     83 CA         11.0941  -16.9696  -23.0544 C.3       3 GLC5        0.0000 
     84 CA         10.3650  -15.3750  -23.9170 C.3       6 GLP5        0.0000 
@<TRIPOS>BOND
@<TRIPOS>SUBSTRUCTURE
     1 ALC1       16 GROUP        1 X    ALC  0     ROOT ALC X 1
     2 SEC2       10 GROUP        1 X    SEC  0     **** SEC X 2
     3 GLC5        1 GROUP        1 X    GLC  0     **** GLC X 6
     4 ALP1       18 GROUP        1 Y    ALP  0     ROOT ALP Y 8
     5 SEP2       12 GROUP        1 Y    SEP  0     **** SEP Y 9
     6 GLP5        3 GROUP        1 Y    GLP  0     **** GLP Y 13
     7 ALL1       17 GROUP        1 Z    ALL  0     ROOT ALL Z 15
     8 SEL2       11 GROUP        1 Z    SEL  0     **** SEL Z 16
     9 GLL5        2 GROUP        1 Z    GLL  0     **** GLL Z 20
@<TRIPOS>SET

