#    Name: 3s2u_UD1_1_ligand
#    Modification time : Tue Mar 25 12:07:36 2014

@<TRIPOS>MOLECULE
3s2u_UD1_1_ligand
   64    66     1     0     0
SMALL
NO_CHARGES


@<TRIPOS>ATOM
      1 C1'        14.8680  -15.6840  -15.0080 C.3       1 UD1366      0.0000 
      2 C2'        15.5940  -16.1160  -13.7440 C.3       1 UD1366      0.0000 
      3 C3'        14.9280  -17.4130  -13.2720 C.3       1 UD1366      0.0000 
      4 C4'        13.4280  -17.2410  -13.0000 C.3       1 UD1366      0.0000 
      5 C5'        12.6760  -16.2050  -13.8860 C.3       1 UD1366      0.0000 
      6 C6'        11.8730  -15.2360  -12.9980 C.3       1 UD1366      0.0000 
      7 C7'        18.0330  -15.5990  -13.7000 C.2       1 UD1366      0.0000 
      8 C8'        19.3800  -16.1420  -14.0860 C.3       1 UD1366      0.0000 
      9 N2'        16.9950  -16.3500  -14.0960 N.am      1 UD1366      0.0000 
     10 O1'        14.9600  -16.7810  -15.9060 O.3       1 UD1366      0.0000 
     11 O3'        15.6320  -17.9640  -12.1580 O.3       1 UD1366      0.0000 
     12 O4'        12.7790  -18.5170  -13.1390 O.3       1 UD1366      0.0000 
     13 O5'        13.4800  -15.3700  -14.7550 O.3       1 UD1366      0.0000 
     14 O6'        10.4590  -15.4530  -13.1000 O.3       1 UD1366      0.0000 
     15 O7'        17.9100  -14.5520  -13.0770 O.2       1 UD1366      0.0000 
     16 N1         13.8970  -18.1400  -24.5690 N.am      1 UD1366      0.0000 
     17 C2         13.7160  -17.9240  -25.9630 C.2       1 UD1366      0.0000 
     18 N3         14.8040  -17.9320  -26.7670 N.am      1 UD1366      0.0000 
     19 C4         16.0310  -18.1880  -26.2750 C.2       1 UD1366      0.0000 
     20 C5         16.2500  -18.3020  -24.8820 C.2       1 UD1366      0.0000 
     21 C6         15.1380  -18.2100  -24.0270 C.2       1 UD1366      0.0000 
     22 O2         12.5550  -17.6800  -26.4320 O.2       1 UD1366      0.0000 
     23 O4         16.9200  -18.5140  -27.0770 O.2       1 UD1366      0.0000 
     24 C1B        12.6980  -18.0360  -23.7390 C.3       1 UD1366      0.0000 
     25 C2B        12.1810  -19.4090  -23.3700 C.3       1 UD1366      0.0000 
     26 O2'        11.5720  -20.1050  -24.4720 O.3       1 UD1366      0.0000 
     27 C3B        11.2140  -19.0320  -22.2850 C.3       1 UD1366      0.0000 
     28 C4B        11.9490  -17.9080  -21.5560 C.3       1 UD1366      0.0000 
     29 O4B        12.8610  -17.3440  -22.5000 O.3       1 UD1366      0.0000 
     30 O3B        10.0050  -18.5410  -22.8860 O.3       1 UD1366      0.0000 
     31 C5B        12.8460  -18.4680  -20.4780 C.3       1 UD1366      0.0000 
     32 O5B        12.1900  -18.3080  -19.2310 O.3       1 UD1366      0.0000 
     33 PA         12.8710  -18.8280  -17.8740 P.3       1 UD1366      0.0000 
     34 O1A        11.9340  -18.3800  -16.7870 O.co2     1 UD1366      0.0000 
     35 O2A        13.1240  -20.2950  -18.0660 O.co2     1 UD1366      0.0000 
     36 O3A        14.3550  -18.1670  -17.8710 O.3       1 UD1366      0.0000 
     37 PB         14.7290  -16.6360  -17.4720 P.3       1 UD1366      0.0000 
     38 O1B        13.5500  -15.7330  -17.6290 O.co2     1 UD1366      0.0000 
     39 O2B        16.0670  -16.2680  -18.0180 O.co2     1 UD1366      0.0000 
     40 H          15.3917  -14.8302  -15.4086 H         1 UD1366      0.0000 
     41 H          15.4845  -15.3722  -13.0091 H         1 UD1366      0.0000 
     42 H          15.0080  -18.1254  -14.1354 H         1 UD1366      0.0000 
     43 H          13.3148  -16.9070  -11.9524 H         1 UD1366      0.0000 
     44 H          11.9254  -16.7499  -14.4768 H         1 UD1366      0.0000 
     45 H          12.1483  -14.2097  -13.2992 H         1 UD1366      0.0000 
     46 H          12.2296  -15.3685  -11.9611 H         1 UD1366      0.0000 
     47 H          17.1539  -17.1984  -14.7199 H         1 UD1366      0.0000 
     48 H          14.6868  -17.7350  -27.7912 H         1 UD1366      0.0000 
     49 H          17.1790  -18.4451  -24.5169 H         1 UD1366      0.0000 
     50 H          15.2868  -18.1977  -23.0134 H         1 UD1366      0.0000 
     51 H          11.8873  -17.5607  -24.3170 H         1 UD1366      0.0000 
     52 H          12.9900  -19.9423  -22.9149 H         1 UD1366      0.0000 
     53 H          11.0800  -19.8351  -21.6366 H         1 UD1366      0.0000 
     54 H          11.2896  -17.2149  -21.1717 H         1 UD1366      0.0000 
     55 H          13.7960  -17.9295  -20.5111 H         1 UD1366      0.0000 
     56 H          13.0378  -19.5191  -20.7061 H         1 UD1366      0.0000 
     57 H          20.1228  -15.5519  -13.7698 H         1 UD1366      0.0000 
     58 H          19.5403  -17.0490  -13.6967 H         1 UD1366      0.0000 
     59 H          19.4756  -16.2277  -15.0777 H         1 UD1366      0.0000 
     60 H          16.5337  -17.5322  -12.1826 H         1 UD1366      0.0000 
     61 H          12.0068  -18.4849  -12.5045 H         1 UD1366      0.0000 
     62 H          10.0426  -14.6481  -12.6773 H         1 UD1366      0.0000 
     63 H          10.7868  -20.5807  -24.0754 H         1 UD1366      0.0000 
     64 H           9.5108  -19.3595  -23.1790 H         1 UD1366      0.0000 
@<TRIPOS>BOND
     1    2    1 1    
     2   10    1 1    
     3   13    1 1    
     4   40    1 1    
     5    3    2 1    
     6    9    2 1    
     7   41    2 1    
     8    4    3 1    
     9   11    3 1    
    10   42    3 1    
    11    5    4 1    
    12   12    4 1    
    13   43    4 1    
    14    6    5 1    
    15   13    5 1    
    16   44    5 1    
    17   14    6 1    
    18   45    6 1    
    19   46    6 1    
    20    8    7 1    
    21    9    7 am   
    22   15    7 2    
    23   57    8 1    
    24   58    8 1    
    25   59    8 1    
    26   47    9 1    
    27   37   10 1    
    28   60   11 1    
    29   61   12 1    
    30   62   14 1    
    31   17   16 1    
    32   21   16 1    
    33   24   16 1    
    34   18   17 1    
    35   22   17 2    
    36   19   18 1    
    37   48   18 1    
    38   20   19 1    
    39   23   19 2    
    40   21   20 2    
    41   49   20 1    
    42   50   21 1    
    43   25   24 1    
    44   29   24 1    
    45   51   24 1    
    46   26   25 1    
    47   27   25 1    
    48   52   25 1    
    49   63   26 1    
    50   28   27 1    
    51   30   27 1    
    52   53   27 1    
    53   29   28 1    
    54   31   28 1    
    55   54   28 1    
    56   64   30 1    
    57   32   31 1    
    58   55   31 1    
    59   56   31 1    
    60   33   32 1    
    61   34   33 ar   
    62   35   33 ar   
    63   36   33 1    
    64   37   36 1    
    65   38   37 ar   
    66   39   37 ar   
@<TRIPOS>SUBSTRUCTURE
     1 UD1366      1 GROUP   
@<TRIPOS>SET

