#    Name: 3e7g_AT2_1_INTS_M
#    Modification time : Tue Mar 25 01:02:49 2014

@<TRIPOS>MOLECULE
3e7g_AT2_1_INTS_M
   36     0     9     0     0
SMALL
NO_CHARGES


@<TRIPOS>ATOM
      1 CA         54.0210   19.3650   83.3285 C.3       3 GLC5        0.0000 
      2 CA         54.0980   21.0140   84.5840 C.3       9 GLL5        0.0000 
      3 CA         53.9440   17.7160   82.0730 C.3       6 GLP5        0.0000 
      4 CA         53.7605   19.3075   85.2075 C.3       3 GLC5        0.0000 
      5 CA         53.4230   17.6010   85.8310 C.3       6 GLP5        0.0000 
      6 CA         52.1765   21.5515   84.9880 C.3       3 GLC5        0.0000 
      7 CA         50.2550   22.0890   85.3920 C.3       6 GLP5        0.0000 
      8 CA         53.3935   22.9030   85.4855 C.3       3 GLC5        0.0000 
      9 CA         52.6890   24.7920   86.3870 C.3       6 GLP5        0.0000 
     10 CA         54.0685   23.9290   85.2270 C.3       3 GLC5        0.0000 
     11 CA         55.4480   23.0660   84.0670 C.3       9 GLL5        0.0000 
     12 CA         54.6220   19.5120   82.2430 C.3       3 GLC5        0.0000 
     13 CA         55.3000   21.3080   82.4130 C.3       9 GLL5        0.0000 
     14 CA         54.3180   23.6070   77.7195 C.3       3 GLC5        0.0000 
     15 CA         54.2620   21.5690   78.1920 C.3       9 GLL5        0.0000 
     16 CA         54.3740   25.6450   77.2470 C.3       6 GLP5        0.0000 
     17 N          57.5190   24.0580   81.3225 N.am      2 SEC2        0.0000 
     18 N          56.6300   23.3240   81.9380 N.am      8 SEL2        0.0000 
     19 N          58.4080   24.7920   80.7070 N.am      5 SEP2        0.0000 
     20 O          57.5030   22.3855   79.7670 O.2       1 ALC1        0.0000 
     21 O          56.4770   21.6150   80.2640 O.2       7 ALL1        0.0000 
     22 O          58.5290   23.1560   79.2700 O.2       4 ALP1        0.0000 
     23 CA         54.4885   24.1551   82.5874 C.3       3 GLC5        0.0000 
     24 CA         56.2850   23.8240   83.1930 C.3       9 GLL5        0.0000 
     25 CA         53.2290   25.1780   81.6460 C.3       6 GLP5        0.0000 
     26 CA         54.5427   22.9632   81.2237 C.3       3 GLC5        0.0000 
     27 CA         56.1410   22.0670   81.5240 C.3       9 GLL5        0.0000 
     28 CA         53.3650   24.2390   80.4790 C.3       6 GLP5        0.0000 
     29 CA         54.6085   19.0780   80.7788 C.3       3 GLC5        0.0000 
     30 CA         54.5160   20.5060   79.3000 C.3       9 GLL5        0.0000 
     31 CA         53.1750   19.6923   77.8285 C.3       3 GLC5        0.0000 
     32 CA         51.9610   18.3470   76.9110 C.3       6 GLP5        0.0000 
     33 CA         53.8770   22.6382   79.6125 C.3       3 GLC5        0.0000 
     34 CA         53.5870   19.8000   72.5487 C.3       3 GLC5        0.0000 
     35 CA         54.8280   20.2480   73.5740 C.3       9 GLL5        0.0000 
     36 CA         51.7370   19.5710   71.9260 C.3       6 GLP5        0.0000 
@<TRIPOS>BOND
@<TRIPOS>SUBSTRUCTURE
     1 ALC1       20 GROUP        1 X    ALC  0     ROOT ALC X 1
     2 SEC2       17 GROUP        1 X    SEC  0     **** SEC X 2
     3 GLC5        1 GROUP        1 X    GLC  0     **** GLC X 6
     4 ALP1       22 GROUP        1 Y    ALP  0     ROOT ALP Y 8
     5 SEP2       19 GROUP        1 Y    SEP  0     **** SEP Y 9
     6 GLP5        3 GROUP        1 Y    GLP  0     **** GLP Y 13
     7 ALL1       21 GROUP        1 Z    ALL  0     ROOT ALL Z 15
     8 SEL2       18 GROUP        1 Z    SEL  0     **** SEL Z 16
     9 GLL5        2 GROUP        1 Z    GLL  0     **** GLL Z 20
@<TRIPOS>SET

