#    Name: 3e7g_AT2_1_ligand
#    Modification time : Tue Mar 25 01:02:49 2014

@<TRIPOS>MOLECULE
3e7g_AT2_1_ligand
   40    41     1     0     0
SMALL
NO_CHARGES


@<TRIPOS>ATOM
      1 C1         54.0980   21.0140   84.5840 C.3       1 AT2906      0.0000 
      2 C2         54.9740   21.8150   83.6620 C.ar      1 AT2906      0.0000 
      3 C3         55.4480   23.0660   84.0670 C.ar      1 AT2906      0.0000 
      4 C4         56.2850   23.8240   83.1930 C.ar      1 AT2906      0.0000 
      5 C6         56.1410   22.0670   81.5240 C.ar      1 AT2906      0.0000 
      6 C7         55.3000   21.3080   82.4130 C.ar      1 AT2906      0.0000 
      7 C9         56.0300   20.3740   79.6690 C.3       1 AT2906      0.0000 
      8 C10        54.5160   20.5060   79.3000 C.3       1 AT2906      0.0000 
      9 C11        54.2620   21.5690   78.1920 C.3       1 AT2906      0.0000 
     10 N5         56.6300   23.3240   81.9380 N.ar      1 AT2906      0.0000 
     11 N8         56.4770   21.6150   80.2640 N.pl3     1 AT2906      0.0000 
     12 N12        55.0410   21.1960   76.9950 N.am      1 AT2906      0.0000 
     13 C13        56.4980   21.1340   77.2630 C.3       1 AT2906      0.0000 
     14 C14        56.8140   20.1260   78.3780 C.3       1 AT2906      0.0000 
     15 C15        54.4920   20.9300   75.8080 C.2       1 AT2906      0.0000 
     16 O16        53.2290   21.0040   75.6620 O.2       1 AT2906      0.0000 
     17 O17        55.3490   20.5750   74.8560 O.3       1 AT2906      0.0000 
     18 C18        54.8280   20.2480   73.5740 C.3       1 AT2906      0.0000 
     19 C19        56.0460   19.8100   72.7690 C.3       1 AT2906      0.0000 
     20 H          55.2047   23.4477   84.9803 H         1 AT2906      0.0000 
     21 H          56.6262   24.7384   83.5034 H         1 AT2906      0.0000 
     22 H          54.9554   20.3985   82.1017 H         1 AT2906      0.0000 
     23 H          56.1447   19.5490   80.3159 H         1 AT2906      0.0000 
     24 H          53.9620   20.7872   80.1946 H         1 AT2906      0.0000 
     25 H          54.1559   19.5387   78.9523 H         1 AT2906      0.0000 
     26 H          54.5725   22.5321   78.5763 H         1 AT2906      0.0000 
     27 H          53.2007   21.5823   77.9795 H         1 AT2906      0.0000 
     28 H          57.1158   22.2090   79.6602 H         1 AT2906      0.0000 
     29 H          56.8721   22.1154   77.5707 H         1 AT2906      0.0000 
     30 H          57.0398   20.8307   76.3617 H         1 AT2906      0.0000 
     31 H          56.5925   19.1126   78.0131 H         1 AT2906      0.0000 
     32 H          57.8905   20.1673   78.5988 H         1 AT2906      0.0000 
     33 H          54.3873   21.0974   73.0815 H         1 AT2906      0.0000 
     34 H          54.1355   19.4250   73.6104 H         1 AT2906      0.0000 
     35 H          54.5612   20.8008   85.4442 H         1 AT2906      0.0000 
     36 H          53.2580   21.5040   84.8170 H         1 AT2906      0.0000 
     37 H          53.8255   20.1435   84.1742 H         1 AT2906      0.0000 
     38 H          56.7273   20.5387   72.7002 H         1 AT2906      0.0000 
     39 H          56.5009   19.0216   73.1830 H         1 AT2906      0.0000 
     40 H          55.8001   19.5496   71.8354 H         1 AT2906      0.0000 
@<TRIPOS>BOND
     1    2    1 1    
     2   35    1 1    
     3   36    1 1    
     4   37    1 1    
     5    3    2 ar   
     6    6    2 ar   
     7    4    3 ar   
     8   20    3 1    
     9   10    4 ar   
    10   21    4 1    
    11    6    5 ar   
    12   10    5 ar   
    13   11    5 1    
    14   22    6 1    
    15    8    7 1    
    16   11    7 1    
    17   14    7 1    
    18   23    7 1    
    19    9    8 1    
    20   24    8 1    
    21   25    8 1    
    22   12    9 1    
    23   26    9 1    
    24   27    9 1    
    25   28   11 1    
    26   13   12 1    
    27   15   12 am   
    28   14   13 1    
    29   29   13 1    
    30   30   13 1    
    31   31   14 1    
    32   32   14 1    
    33   16   15 2    
    34   17   15 1    
    35   18   17 1    
    36   19   18 1    
    37   33   18 1    
    38   34   18 1    
    39   38   19 1    
    40   39   19 1    
    41   40   19 1    
@<TRIPOS>SUBSTRUCTURE
     1 AT2906      1 GROUP   
@<TRIPOS>SET

