#    Name: 3d5f_L41_1_INTS_M
#    Modification time : Mon Mar 24 22:42:57 2014

@<TRIPOS>MOLECULE
3d5f_L41_1_INTS_M
   90     0     6     0     0
SMALL
NO_CHARGES


@<TRIPOS>ATOM
      1 CA         31.5660    7.2105   56.0000 C.3       2 GLC5        0.0000 
      2 CA         30.1480    5.6340   55.6620 C.3       6 GLL5        0.0000 
      3 CA         32.9840    8.7870   56.3380 C.3       4 GLP5        0.0000 
      4 CA         29.4245    7.6090   56.3675 C.3       2 GLC5        0.0000 
      5 CA         28.7010    9.5840   57.0730 C.3       4 GLP5        0.0000 
      6 CA         29.0340    4.2745   59.8145 C.3       2 GLC5        0.0000 
      7 CA         29.9190    5.6740   58.2950 C.3       6 GLL5        0.0000 
      8 CA         28.1490    2.8750   61.3340 C.3       4 GLP5        0.0000 
      9 CA         29.4840    3.6915   58.3175 C.3       2 GLC5        0.0000 
     10 CA         29.0490    1.7090   58.3400 C.3       4 GLP5        0.0000 
     11 CA         30.9165    1.9185   56.1510 C.3       2 GLC5        0.0000 
     12 CA         32.1970    3.6040   55.8690 C.3       6 GLL5        0.0000 
     13 CA         29.6360    0.2330   56.4330 C.3       4 GLP5        0.0000 
     14 CA         31.3950    6.8035   53.1960 C.3       2 GLC5        0.0000 
     15 CA         30.7790    5.0870   54.4920 C.3       6 GLL5        0.0000 
     16 CA         32.0110    8.5200   51.9000 C.3       4 GLP5        0.0000 
     17 CA         31.8875    7.7740   57.6405 C.3       2 GLC5        0.0000 
     18 CA         30.7910    6.7610   58.9430 C.3       6 GLL5        0.0000 
     19 CA         33.4855    4.2145   53.4580 C.3       2 GLC5        0.0000 
     20 CA         31.8070    4.0730   54.6060 C.3       6 GLL5        0.0000 
     21 CA         35.1640    4.3560   52.3100 C.3       4 GLP5        0.0000 
     22 CA         33.7270    4.6590   57.4505 C.3       2 GLC5        0.0000 
     23 CA         33.0360    2.9440   58.6300 C.3       6 GLL5        0.0000 
     24 CA         34.4180    6.3740   56.2710 C.3       4 GLP5        0.0000 
     25 CA         31.0425    2.3265   58.4850 C.3       2 GLC5        0.0000 
     26 CA         29.9110    7.7855   62.2920 C.3       2 GLC5        0.0000 
     27 CA         30.3930    7.1200   60.3590 C.3       6 GLL5        0.0000 
     28 CA         29.4290    8.4510   64.2250 C.3       4 GLP5        0.0000 
     29 CA         30.3820    5.2335   61.3240 C.3       2 GLC5        0.0000 
     30 CA         30.3710    3.3470   62.2890 C.3       4 GLP5        0.0000 
     31 CA         33.3740    2.0230   61.9100 C.3       2 GLC5        0.0000 
     32 CA         33.1390    2.8290   60.1450 C.3       6 GLL5        0.0000 
     33 CA         33.6090    1.2170   63.6750 C.3       4 GLP5        0.0000 
     34 CA         29.4260    5.7790   50.8515 C.3       2 GLC5        0.0000 
     35 CA         30.8980    4.8510   51.9100 C.3       6 GLL5        0.0000 
     36 CA         27.9540    6.7070   49.7930 C.3       4 GLP5        0.0000 
     37 CA         33.0310    4.6035   52.1100 C.3       2 GLC5        0.0000 
     38 CA         31.4545    6.6855   51.9050 C.3       2 GLC5        0.0000 
     39 CA         29.2150    4.1570   52.7935 C.3       2 GLC5        0.0000 
     40 CA         27.5320    3.4630   53.6770 C.3       4 GLP5        0.0000 
     41 CA         30.0555    3.0535   51.6890 C.3       2 GLC5        0.0000 
     42 CA         29.2130    1.2560   51.4680 C.3       4 GLP5        0.0000 
     43 CA         33.9060    3.3730   62.3015 C.3       2 GLC5        0.0000 
     44 CA         33.5180    4.1900   60.6660 C.3       6 GLL5        0.0000 
     45 CA         34.2940    2.5560   63.9370 C.3       4 GLP5        0.0000 
     46 CA         35.9840   12.0040   58.4800 C.3       2 GLC5        0.0000 
     47 CA         35.8530   11.0720   60.2700 C.3       6 GLL5        0.0000 
     48 CA         36.1150   12.9360   56.6900 C.3       4 GLP5        0.0000 
     49 CA         33.9255   10.7240   60.3745 C.3       2 GLC5        0.0000 
     50 CA         31.9980   10.3760   60.4790 C.3       4 GLP5        0.0000 
     51 CA         38.0065   10.9440   60.8485 C.3       2 GLC5        0.0000 
     52 CA         40.1600   10.8160   61.4270 C.3       4 GLP5        0.0000 
     53 CA         35.5440   13.0450   60.1095 C.3       2 GLC5        0.0000 
     54 CA         35.2350   15.0180   59.9490 C.3       4 GLP5        0.0000 
     55 N          34.9285   12.2835   63.5225 N.am      1 SEC2        0.0000 
     56 N          35.1230   12.3600   62.2070 N.am      5 SEL2        0.0000 
     57 N          34.7340   12.2070   64.8380 N.am      3 SEP2        0.0000 
     58 N          35.6460   11.4465   63.6785 N.am      1 SEC2        0.0000 
     59 N          36.5580   10.6860   62.5190 N.am      5 SEL2        0.0000 
     60 N          36.9475    9.4890   63.0750 N.am      1 SEC2        0.0000 
     61 N          37.3370    8.2920   63.6310 N.am      3 SEP2        0.0000 
     62 N          37.0275   11.0615   63.8430 N.am      1 SEC2        0.0000 
     63 N          37.4970   11.4370   65.1670 N.am      3 SEP2        0.0000 
     64 CA         32.7392    5.5110   56.6358 C.3       2 GLC5        0.0000 
     65 CA         31.5710    4.1480   57.0340 C.3       6 GLL5        0.0000 
     66 CA         30.0548    3.1785   57.6702 C.3       2 GLC5        0.0000 
     67 CA         32.9043    5.4184   55.5679 C.3       2 GLC5        0.0000 
     68 CA         31.2950    8.6582   60.0650 C.3       2 GLC5        0.0000 
     69 CA         29.3336    4.0899   54.2592 C.3       2 GLC5        0.0000 
     70 CA         34.4802    1.7277   58.7618 C.3       2 GLC5        0.0000 
     71 CA         35.8730    0.5690   58.1360 C.3       4 GLP5        0.0000 
     72 CA         29.0470    7.7599   58.7320 C.3       2 GLC5        0.0000 
     73 CA         27.7200    8.8510   57.9750 C.3       4 GLP5        0.0000 
     74 CA         31.8498    3.4283   61.3473 C.3       2 GLC5        0.0000 
     75 CA         35.1800    6.2248   58.0385 C.3       2 GLC5        0.0000 
     76 CA         35.3020    5.9410   60.1440 C.3       6 GLL5        0.0000 
     77 CA         36.5885    4.3857   58.7750 C.3       2 GLC5        0.0000 
     78 CA         36.5820    6.2100   59.4680 C.3       6 GLL5        0.0000 
     79 CA         37.2350    2.6960   57.7440 C.3       4 GLP5        0.0000 
     80 CA         38.5072    5.7465   59.4650 C.3       2 GLC5        0.0000 
     81 CA         40.2010    4.5970   59.4700 C.3       4 GLP5        0.0000 
     82 CA         34.4815    7.8472   58.8560 C.3       2 GLC5        0.0000 
     83 CA         34.5190    6.9510   60.8180 C.3       6 GLL5        0.0000 
     84 CA         34.2190    8.0830   56.9230 C.3       4 GLP5        0.0000 
     85 CA         33.3710    8.9937   60.6340 C.3       2 GLC5        0.0000 
     86 CA         34.9690    8.2720   60.7600 C.3       6 GLL5        0.0000 
     87 CA         35.4178    8.0813   58.3410 C.3       2 GLC5        0.0000 
     88 CA         36.1880    8.5770   60.0660 C.3       6 GLL5        0.0000 
     89 CA         38.5213    8.7067   60.2470 C.3       2 GLC5        0.0000 
     90 CA         40.4260    9.3340   60.7350 C.3       4 GLP5        0.0000 
@<TRIPOS>BOND
@<TRIPOS>SUBSTRUCTURE
     1 SEC2       55 GROUP        1 X    SEC  0     ROOT SEC X 2
     2 GLC5        1 GROUP        1 X    GLC  0     **** GLC X 6
     3 SEP2       57 GROUP        1 Y    SEP  0     ROOT SEP Y 9
     4 GLP5        3 GROUP        1 Y    GLP  0     **** GLP Y 13
     5 SEL2       56 GROUP        1 Z    SEL  0     ROOT SEL Z 16
     6 GLL5        2 GROUP        1 Z    GLL  0     **** GLL Z 20
@<TRIPOS>SET

