#    Name: 3d5f_L41_1_ligand
#    Modification time : Mon Mar 24 22:42:57 2014

@<TRIPOS>MOLECULE
3d5f_L41_1_ligand
   54    55     1     0     0
SMALL
NO_CHARGES


@<TRIPOS>ATOM
      1 C1         30.5500    5.1480   56.9670 C.ar      1 L41501      0.0000 
      2 C2         31.5710    4.1480   57.0340 C.ar      1 L41501      0.0000 
      3 C3         30.1480    5.6340   55.6620 C.ar      1 L41501      0.0000 
      4 C4         29.9190    5.6740   58.2950 C.3       1 L41501      0.0000 
      5 C5         32.1970    3.6040   55.8690 C.ar      1 L41501      0.0000 
      6 O6         31.8880    3.7510   58.3320 O.3       1 L41501      0.0000 
      7 C7         30.7790    5.0870   54.4920 C.ar      1 L41501      0.0000 
      8 O8         29.2790    6.4950   55.5430 O.3       1 L41501      0.0000 
      9 C9         30.7910    6.7610   58.9430 C.3       1 L41501      0.0000 
     10 C10        31.8070    4.0730   54.6060 C.ar      1 L41501      0.0000 
     11 C11        33.0360    2.9440   58.6300 C.3       1 L41501      0.0000 
     12 C12        30.3610    5.5740   53.1510 C.2       1 L41501      0.0000 
     13 C13        30.3930    7.1200   60.3590 C.3       1 L41501      0.0000 
     14 C14        33.1390    2.8290   60.1450 C.3       1 L41501      0.0000 
     15 C15        30.8980    4.8510   51.9100 C.3       1 L41501      0.0000 
     16 O16        29.6000    6.5180   52.9420 O.2       1 L41501      0.0000 
     17 C17        33.5180    4.1900   60.6660 C.3       1 L41501      0.0000 
     18 O18        34.8230    4.5670   60.1440 O.3       1 L41501      0.0000 
     19 C19        35.3020    5.9410   60.1440 C.ar      1 L41501      0.0000 
     20 C20        36.5820    6.2100   59.4680 C.ar      1 L41501      0.0000 
     21 C21        34.5190    6.9510   60.8180 C.ar      1 L41501      0.0000 
     22 C22        37.0450    7.5820   59.4520 C.ar      1 L41501      0.0000 
     23 C23        34.9690    8.2720   60.7600 C.ar      1 L41501      0.0000 
     24 C24        36.1880    8.5770   60.0660 C.ar      1 L41501      0.0000 
     25 O25        36.6450    9.8860   59.9900 O.3       1 L41501      0.0000 
     26 C26        35.8530   11.0720   60.2700 C.3       1 L41501      0.0000 
     27 C27        35.8450   11.4040   61.7920 C.2       1 L41501      0.0000 
     28 O28        35.1230   12.3600   62.2070 O.co2     1 L41501      0.0000 
     29 O29        36.5580   10.6860   62.5190 O.co2     1 L41501      0.0000 
     30 H          29.8114    4.8377   58.9814 H         1 L41501      0.0000 
     31 H          28.9359    6.0818   58.0727 H         1 L41501      0.0000 
     32 H          32.9097    2.8915   55.9676 H         1 L41501      0.0000 
     33 H          30.7486    7.6659   58.3106 H         1 L41501      0.0000 
     34 H          31.8411    6.4178   58.9341 H         1 L41501      0.0000 
     35 H          32.2351    3.7128   53.7556 H         1 L41501      0.0000 
     36 H          33.9534    3.3960   58.2610 H         1 L41501      0.0000 
     37 H          32.9419    1.9417   58.2193 H         1 L41501      0.0000 
     38 H          33.9004    2.1118   60.3976 H         1 L41501      0.0000 
     39 H          32.1855    2.5325   60.5461 H         1 L41501      0.0000 
     40 H          33.5322    4.1565   61.7598 H         1 L41501      0.0000 
     41 H          32.7536    4.9100   60.3577 H         1 L41501      0.0000 
     42 H          37.0927    5.4807   59.0483 H         1 L41501      0.0000 
     43 H          33.6825    6.6893   61.3058 H         1 L41501      0.0000 
     44 H          37.9085    7.8302   59.0402 H         1 L41501      0.0000 
     45 H          34.4482    9.0262   61.2016 H         1 L41501      0.0000 
     46 H          34.8091   10.9399   59.9598 H         1 L41501      0.0000 
     47 H          36.2484   11.9513   59.7467 H         1 L41501      0.0000 
     48 H          30.4469    6.3312   60.9713 H         1 L41501      0.0000 
     49 H          30.9842    7.8296   60.7424 H         1 L41501      0.0000 
     50 H          29.4550    7.4634   60.4054 H         1 L41501      0.0000 
     51 H          31.8966    4.8801   51.8663 H         1 L41501      0.0000 
     52 H          30.6320    3.8871   51.8976 H         1 L41501      0.0000 
     53 H          30.5555    5.2605   51.0644 H         1 L41501      0.0000 
     54 H          29.1925    6.6408   54.5575 H         1 L41501      0.0000 
@<TRIPOS>BOND
     1    2    1 ar   
     2    3    1 ar   
     3    4    1 1    
     4    5    2 ar   
     5    6    2 1    
     6    7    3 ar   
     7    8    3 1    
     8    9    4 1    
     9   30    4 1    
    10   31    4 1    
    11   10    5 ar   
    12   32    5 1    
    13   11    6 1    
    14   10    7 ar   
    15   12    7 1    
    16   54    8 1    
    17   13    9 1    
    18   33    9 1    
    19   34    9 1    
    20   35   10 1    
    21   14   11 1    
    22   36   11 1    
    23   37   11 1    
    24   15   12 1    
    25   16   12 2    
    26   48   13 1    
    27   49   13 1    
    28   50   13 1    
    29   17   14 1    
    30   38   14 1    
    31   39   14 1    
    32   51   15 1    
    33   52   15 1    
    34   53   15 1    
    35   18   17 1    
    36   40   17 1    
    37   41   17 1    
    38   19   18 1    
    39   20   19 ar   
    40   21   19 ar   
    41   22   20 ar   
    42   42   20 1    
    43   23   21 ar   
    44   43   21 1    
    45   24   22 ar   
    46   44   22 1    
    47   24   23 ar   
    48   45   23 1    
    49   25   24 1    
    50   26   25 1    
    51   27   26 1    
    52   46   26 1    
    53   47   26 1    
    54   28   27 ar   
    55   29   27 ar   
@<TRIPOS>SUBSTRUCTURE
     1 L41501      1 GROUP   
@<TRIPOS>SET

