#    Name: 1KI2_2_CAVITY_N1_6.mol2
#    Modification time : Tue Mar 11 13:34:38 2014

@<TRIPOS>MOLECULE
1KI2_2_CAVITY_N1_6.mol2
   58     0     6     0     0
SMALL
NO_CHARGES


@<TRIPOS>ATOM
      1 O          20.2642   94.0625   44.3426 O.2       2 ALA2        0.0000 
      2 CA         20.6853   93.0625   45.3783 C.3       5 GLY6        0.0000 
      3 O          18.8276   93.7008   44.5774 O.2       2 ALA2        0.0000 
      4 CZ         21.7941   93.3665   43.0484 C.ar      4 PHE5        0.0000 
      5 CA         22.2152   92.3664   44.0841 C.3       5 GLY6        0.0000 
      6 CA         20.3575   93.0047   43.2832 C.3       5 GLY6        0.0000 
      7 CZ         20.7786   92.0047   44.3189 C.ar      4 PHE5        0.0000 
      8 CA         23.8734   99.3215   45.7806 C.3       5 GLY6        0.0000 
      9 OG         22.0157   99.9597   44.9797 O.2       1 SER1        0.0000 
     10 CA         22.4368   98.9597   46.0154 C.3       5 GLY6        0.0000 
     11 CZ         21.0001   98.5979   46.2502 C.ar      4 PHE5        0.0000 
     12 OG         19.1423   99.2362   45.4493 O.2       1 SER1        0.0000 
     13 CA         19.5634   98.2361   46.4850 C.3       5 GLY6        0.0000 
     14 O          17.2846   99.8744   44.6485 O.2       2 ALA2        0.0000 
     15 OG         17.7057   98.8744   45.6842 O.2       1 SER1        0.0000 
     16 CA         18.1268   97.8744   46.7198 C.3       5 GLY6        0.0000 
     17 NZ         15.8479   99.5127   44.8833 N.2       3 LYS4        0.0000 
     18 CA         16.2690   98.5126   45.9190 C.3       5 GLY6        0.0000 
     19 O          16.6901   97.5126   46.9546 O.2       2 ALA2        0.0000 
     20 CZ         23.5455   99.2636   43.6855 C.ar      4 PHE5        0.0000 
     21 CZ         23.9666   98.2636   44.7212 C.ar      4 PHE5        0.0000 
     22 CA         24.3877   97.2636   45.7569 C.3       5 GLY6        0.0000 
     23 CZ         22.1089   98.9019   43.9203 C.ar      4 PHE5        0.0000 
     24 CZ         22.5300   97.9018   44.9560 C.ar      4 PHE5        0.0000 
     25 CA         22.9511   96.9018   45.9917 C.3       5 GLY6        0.0000 
     26 CZ         20.6722   98.5401   44.1552 C.ar      4 PHE5        0.0000 
     27 DU         21.0933   97.5401   45.1908 H         6 CUB7        0.0000 
     28 CA         21.5144   96.5400   46.2265 C.3       5 GLY6        0.0000 
     29 O          19.2356   98.1783   44.3900 O.2       2 ALA2        0.0000 
     30 DU         19.6567   97.1783   45.4256 H         6 CUB7        0.0000 
     31 CA         20.0778   96.1783   46.4613 C.3       5 GLY6        0.0000 
     32 CA         17.7989   97.8165   44.6248 C.3       5 GLY6        0.0000 
     33 DU         18.2200   96.8165   45.6605 H         6 CUB7        0.0000 
     34 CZ         18.6411   95.8165   46.6961 C.ar      4 PHE5        0.0000 
     35 CA         15.9412   98.4548   43.8239 C.3       5 GLY6        0.0000 
     36 O          16.3623   97.4548   44.8596 O.2       2 ALA2        0.0000 
     37 O          16.7834   96.4547   45.8953 O.2       2 ALA2        0.0000 
     38 N          24.4810   96.2057   44.6975 N.2       2 ALA2        0.0000 
     39 CZ         22.6232   96.8440   43.8967 C.ar      4 PHE5        0.0000 
     40 CZ         23.0443   95.8439   44.9323 C.ar      4 PHE5        0.0000 
     41 CA         23.4654   94.8439   45.9680 C.3       5 GLY6        0.0000 
     42 CZ         21.1866   96.4822   44.1315 C.ar      4 PHE5        0.0000 
     43 CA         21.6077   95.4822   45.1671 C.3       5 GLY6        0.0000 
     44 CZ         19.3288   97.1205   43.3306 C.ar      4 PHE5        0.0000 
     45 O          19.7499   96.1204   44.3663 O.2       2 ALA2        0.0000 
     46 CA         20.1710   95.1204   45.4020 C.3       5 GLY6        0.0000 
     47 O          17.8922   96.7587   43.5654 O.2       2 ALA2        0.0000 
     48 O          18.3133   95.7587   44.6011 O.2       2 ALA2        0.0000 
     49 CZ         18.7344   94.7586   45.6368 C.ar      4 PHE5        0.0000 
     50 NZ         16.8766   95.3969   44.8359 N.2       3 LYS4        0.0000 
     51 O          14.5977   97.0352   42.9994 O.2       2 ALA2        0.0000 
     52 CZ         23.1376   94.7861   43.8730 C.ar      4 PHE5        0.0000 
     53 N          23.5587   93.7861   44.9086 N.2       2 ALA2        0.0000 
     54 CZ         21.2798   95.4243   43.0721 C.ar      4 PHE5        0.0000 
     55 CZ         21.7009   94.4243   44.1078 C.ar      4 PHE5        0.0000 
     56 CA         22.1220   93.4243   45.1435 C.3       5 GLY6        0.0000 
     57 CA         17.6124   99.9323   46.7435 C.3       5 GLY6        0.0000 
     58 CA         18.0335   98.9322   47.7792 C.3       5 GLY6        0.0000 
@<TRIPOS>BOND
@<TRIPOS>SUBSTRUCTURE
     1 SER1        9 GROUP   
     2 ALA2        1 GROUP   
     3 LYS4       17 GROUP   
     4 PHE5        4 GROUP   
     5 GLY6        2 GROUP   
     6 CUB7       27 GROUP   
@<TRIPOS>SET

