#    Name: 1ki2_GA2_2_INTS_M
#    Modification time : Tue Mar 25 10:02:11 2014

@<TRIPOS>MOLECULE
1ki2_GA2_2_INTS_M
   49     0     9     0     0
SMALL
NO_CHARGES


@<TRIPOS>ATOM
      1 O          25.7520   95.7275   45.3390 O.2       1 ALC1        0.0000 
      2 O          24.6380   96.7010   45.2310 O.2       7 ALL1        0.0000 
      3 O          26.8660   94.7540   45.4470 O.2       4 ALP1        0.0000 
      4 CA         21.7400   95.8910   46.4530 C.3       3 GLC5        0.0000 
      5 CA         22.0880   97.2730   44.9740 C.3       9 GLL5        0.0000 
      6 CA         21.3920   94.5090   47.9320 C.3       6 GLP5        0.0000 
      7 CA         15.8380   96.0235   47.7655 C.3       3 GLC5        0.0000 
      8 CA         17.0170   96.5820   46.0130 C.3       9 GLL5        0.0000 
      9 CA         14.6590   95.4650   49.5180 C.3       6 GLP5        0.0000 
     10 CA         17.2400   95.0415   46.9635 C.3       3 GLC5        0.0000 
     11 CA         17.4630   93.5010   47.9140 C.3       6 GLP5        0.0000 
     12 O          16.4150   94.3440   45.1390 O.2       1 ALC1        0.0000 
     13 O          17.6660   95.4480   45.3820 O.2       7 ALL1        0.0000 
     14 O          15.1640   93.2400   44.8960 O.2       4 ALP1        0.0000 
     15 CA         18.4265   99.7590   47.8915 C.3       3 GLC5        0.0000 
     16 CA         17.4010   99.2220   46.0760 C.3       9 GLL5        0.0000 
     17 CA         19.4520  100.2960   49.7070 C.3       6 GLP5        0.0000 
     18 CA         19.0100  100.5420   46.5080 C.3       3 GLC5        0.0000 
     19 CA         20.6190  101.8620   46.9400 C.3       6 GLP5        0.0000 
     20 CA         16.0770   99.5320   47.0365 C.3       3 GLC5        0.0000 
     21 CA         14.7530   99.8420   47.9970 C.3       6 GLP5        0.0000 
     22 N          17.9015  100.5595   43.7765 N.am      2 SEC2        0.0000 
     23 N          18.0210  100.2480   45.2350 N.am      8 SEL2        0.0000 
     24 N          17.7820  100.8710   42.3180 N.am      5 SEP2        0.0000 
     25 N          18.9670  101.0305   44.9240 N.am      2 SEC2        0.0000 
     26 N          19.9130  101.8130   44.6130 N.am      5 SEP2        0.0000 
     27 O          16.9630  101.3610   45.3290 O.2       1 ALC1        0.0000 
     28 O          18.0210  100.2480   45.2350 O.2       7 ALL1        0.0000 
     29 O          15.9050  102.4740   45.4230 O.2       4 ALP1        0.0000 
     30 CA         19.0950   97.5835   47.6710 C.3       3 GLC5        0.0000 
     31 CA         17.9830   97.7380   45.9320 C.3       9 GLL5        0.0000 
     32 CA         20.2070   97.4290   49.4100 C.3       6 GLP5        0.0000 
     33 CA         20.5445   95.6635   46.3740 C.3       3 GLC5        0.0000 
     34 CA         19.6970   96.8180   44.8160 C.3       9 GLL5        0.0000 
     35 CA         20.3225   96.9685   42.7010 C.3       3 GLC5        0.0000 
     36 CA         20.9480   97.1190   40.5860 C.3       6 GLP5        0.0000 
     37 O          25.3730   94.5815   45.4055 O.2       1 ALC1        0.0000 
     38 O          23.8800   94.4090   45.3640 O.2       7 ALL1        0.0000 
     39 N          26.4235   97.9140   45.6060 N.am      2 SEC2        0.0000 
     40 N          25.3030   99.0200   45.0990 N.am      8 SEL2        0.0000 
     41 N          27.5440   96.8080   46.1130 N.am      5 SEP2        0.0000 
     42 N          25.8810  100.2170   44.6110 N.am      2 SEC2        0.0000 
     43 N          26.4590  101.4140   44.1230 N.am      5 SEP2        0.0000 
     44 N          24.9715  100.7105   45.1060 N.am      2 SEC2        0.0000 
     45 N          24.6400  102.4010   45.1130 N.am      5 SEP2        0.0000 
     46 CA         23.9410   99.5415   46.2740 C.3       3 GLC5        0.0000 
     47 CA         22.9480   98.3520   44.9460 C.3       9 GLL5        0.0000 
     48 CA         24.9340  100.7310   47.6020 C.3       6 GLP5        0.0000 
     49 CA         16.1265   98.5010   46.9847 C.3       3 GLC5        0.0000 
@<TRIPOS>BOND
@<TRIPOS>SUBSTRUCTURE
     1 ALC1        1 GROUP        1 X    ALC  0     ROOT ALC X 1
     2 SEC2       22 GROUP        1 X    SEC  0     **** SEC X 2
     3 GLC5        4 GROUP        1 X    GLC  0     **** GLC X 6
     4 ALP1        3 GROUP        1 Y    ALP  0     ROOT ALP Y 8
     5 SEP2       24 GROUP        1 Y    SEP  0     **** SEP Y 9
     6 GLP5        6 GROUP        1 Y    GLP  0     **** GLP Y 13
     7 ALL1        2 GROUP        1 Z    ALL  0     ROOT ALL Z 15
     8 SEL2       23 GROUP        1 Z    SEL  0     **** SEL Z 16
     9 GLL5        5 GROUP        1 Z    GLL  0     **** GLL Z 20
@<TRIPOS>SET

