#    Name: 1ki2_GA2_2_ligand
#    Modification time : Tue Mar 25 10:02:11 2014

@<TRIPOS>MOLECULE
1ki2_GA2_2_ligand
   31    32     1     0     0
SMALL
NO_CHARGES


@<TRIPOS>ATOM
      1 N1         24.6380   96.7010   45.2310 N.am      1 GA22        0.0000 
      2 C2         23.6290   95.7040   45.2200 C.2       1 GA22        0.0000 
      3 C4         22.0880   97.2730   44.9740 C.2       1 GA22        0.0000 
      4 C8         20.9760   99.0980   44.7070 C.2       1 GA22        0.0000 
      5 C4'        17.0170   96.5820   46.0130 C.3       1 GA22        0.0000 
      6 O4'        17.6660   95.4480   45.3820 O.3       1 GA22        0.0000 
      7 C3'        17.4010   99.2220   46.0760 C.3       1 GA22        0.0000 
      8 O3'        18.0210  100.2480   45.2350 O.3       1 GA22        0.0000 
      9 C2'        17.9830   97.7380   45.9320 C.3       1 GA22        0.0000 
     10 O1'        18.6490   97.7370   44.6890 O.3       1 GA22        0.0000 
     11 C1'        19.6970   96.8180   44.8160 C.3       1 GA22        0.0000 
     12 N9         20.8420   97.7210   44.8270 N.pl3     1 GA22        0.0000 
     13 N3         22.3420   95.9540   45.0740 N.2       1 GA22        0.0000 
     14 N2         23.8800   94.4090   45.3640 N.pl3     1 GA22        0.0000 
     15 C6         24.3920   98.1370   45.0880 C.2       1 GA22        0.0000 
     16 O6         25.3030   99.0200   45.0990 O.2       1 GA22        0.0000 
     17 C5         22.9480   98.3520   44.9460 C.2       1 GA22        0.0000 
     18 N7         22.2080   99.5590   44.7620 N.2       1 GA22        0.0000 
     19 H          25.6350   96.4072   45.3487 H         1 GA22        0.0000 
     20 H          20.1560   99.6797   44.5860 H         1 GA22        0.0000 
     21 H          16.7994   96.3796   47.0547 H         1 GA22        0.0000 
     22 H          16.1049   96.8506   45.4940 H         1 GA22        0.0000 
     23 H          16.3085   99.1425   45.8757 H         1 GA22        0.0000 
     24 H          17.4862   99.4802   47.1559 H         1 GA22        0.0000 
     25 H          18.7348   97.6449   46.7339 H         1 GA22        0.0000 
     26 H          19.7628   96.1581   43.9746 H         1 GA22        0.0000 
     27 H          19.6526   96.2763   45.7392 H         1 GA22        0.0000 
     28 H          23.0821   93.8071   45.3970 H         1 GA22        0.0000 
     29 H          24.8444   94.1520   45.4266 H         1 GA22        0.0000 
     30 H          16.9372   94.7778   45.2421 H         1 GA22        0.0000 
     31 H          17.4022  101.0320   45.2848 H         1 GA22        0.0000 
@<TRIPOS>BOND
     1    2    1 1    
     2   15    1 am   
     3   19    1 1    
     4   13    2 2    
     5   14    2 1    
     6   12    3 1    
     7   13    3 1    
     8   17    3 2    
     9   12    4 1    
    10   18    4 2    
    11   20    4 1    
    12    6    5 1    
    13    9    5 1    
    14   21    5 1    
    15   22    5 1    
    16   30    6 1    
    17    8    7 1    
    18    9    7 1    
    19   23    7 1    
    20   24    7 1    
    21   31    8 1    
    22   10    9 1    
    23   25    9 1    
    24   11   10 1    
    25   12   11 1    
    26   26   11 1    
    27   27   11 1    
    28   28   14 1    
    29   29   14 1    
    30   16   15 2    
    31   17   15 1    
    32   18   17 1    
@<TRIPOS>SUBSTRUCTURE
     1 GA22        1 GROUP   
@<TRIPOS>SET

