#    Name: 3cr0_809_1_INTS_M
#    Modification time : Mon Mar 24 22:12:44 2014

@<TRIPOS>MOLECULE
3cr0_809_1_INTS_M
   58     0     9     0     0
SMALL
NO_CHARGES


@<TRIPOS>ATOM
      1 N           8.5635   55.8300   26.7165 N.am      2 SEC2        0.0000 
      2 N           7.1540   55.2960   26.6580 N.am      8 SEL2        0.0000 
      3 N           9.9730   56.3640   26.7750 N.am      5 SEP2        0.0000 
      4 O           7.1285   55.8730   29.3020 O.2       1 ALC1        0.0000 
      5 O           6.2190   55.0460   28.7070 O.2       7 ALL1        0.0000 
      6 O           8.0380   56.7000   29.8970 O.2       4 ALP1        0.0000 
      7 N           3.9905   54.8530   31.7435 N.am      2 SEC2        0.0000 
      8 N           4.6580   54.5820   30.3310 N.am      8 SEL2        0.0000 
      9 N           3.3230   55.1240   33.1560 N.am      5 SEP2        0.0000 
     10 CA          7.1435   56.9885   23.8735 C.3       3 GLC5        0.0000 
     11 CA          6.1790   55.0230   24.1070 C.3       9 GLL5        0.0000 
     12 CA          8.1080   58.9540   23.6400 C.3       6 GLP5        0.0000 
     13 CA          8.0715   53.1915   22.1440 C.3       3 GLC5        0.0000 
     14 CA          6.9190   53.9470   23.3860 C.3       9 GLL5        0.0000 
     15 CA          9.2240   52.4360   20.9020 C.3       6 GLP5        0.0000 
     16 O           9.0020   55.1970   23.4270 O.2       1 ALC1        0.0000 
     17 O           7.8820   54.8530   22.8020 O.2       7 ALL1        0.0000 
     18 O          10.1220   55.5410   24.0520 O.2       4 ALP1        0.0000 
     19 CA          0.0425   54.6720   22.6150 C.3       3 GLC5        0.0000 
     20 CA          1.3110   53.6860   23.4960 C.3       9 GLL5        0.0000 
     21 CA         -1.2260   55.6580   21.7340 C.3       6 GLP5        0.0000 
     22 CA          0.0960   54.9695   24.7860 C.3       3 GLC5        0.0000 
     23 CA         -1.1190   56.2530   26.0760 C.3       6 GLP5        0.0000 
     24 CA          3.4110   56.1005   24.6615 C.3       3 GLC5        0.0000 
     25 CA          2.8970   54.1170   25.4550 C.3       9 GLL5        0.0000 
     26 CA          3.9250   58.0840   23.8680 C.3       6 GLP5        0.0000 
     27 CA          0.9520   50.6310   29.5930 C.3       3 GLC5        0.0000 
     28 CA          1.1460   52.6170   29.0930 C.3       9 GLL5        0.0000 
     29 CA          0.7580   48.6450   30.0930 C.3       6 GLP5        0.0000 
     30 CA          1.5830   56.9125   28.1140 C.3       3 GLC5        0.0000 
     31 CA          2.1130   56.5390   29.7970 C.3       9 GLL5        0.0000 
     32 CA          1.0530   57.2860   26.4310 C.3       6 GLP5        0.0000 
     33 CA          3.5365   57.4200   28.8450 C.3       3 GLC5        0.0000 
     34 CA          4.9600   58.3010   27.8930 C.3       6 GLP5        0.0000 
     35 CA          1.7360   58.7395   29.6475 C.3       3 GLC5        0.0000 
     36 CA          1.3590   60.9400   29.4980 C.3       6 GLP5        0.0000 
     37 CA          3.5755   56.6795   31.2205 C.3       3 GLC5        0.0000 
     38 CA          5.0380   56.8200   32.6440 C.3       6 GLP5        0.0000 
     39 CA         -0.4165   55.8365   32.5460 C.3       3 GLC5        0.0000 
     40 CA          0.6140   54.6780   30.9740 C.3       9 GLL5        0.0000 
     41 CA         -1.4470   56.9950   34.1180 C.3       6 GLP5        0.0000 
     42 CA          4.6402   56.4111   27.2220 C.3       3 GLC5        0.0000 
     43 CA          4.2120   54.4950   25.6290 C.3       9 GLL5        0.0000 
     44 CA          6.4800   52.7035   24.6212 C.3       3 GLC5        0.0000 
     45 CA          6.4110   50.9220   25.4960 C.3       6 GLP5        0.0000 
     46 CA          4.2387   56.3185   23.9497 C.3       3 GLC5        0.0000 
     47 CA          1.3348   55.8325   27.9323 C.3       3 GLC5        0.0000 
     48 CA          1.7660   53.8610   28.9810 C.3       9 GLL5        0.0000 
     49 CA          0.0855   56.4980   29.7997 C.3       3 GLC5        0.0000 
     50 CA          1.4670   54.8970   29.8860 C.3       9 GLL5        0.0000 
     51 CA         -1.6190   57.2780   29.7580 C.3       6 GLP5        0.0000 
     52 CA          0.7558   51.0765   31.0265 C.3       3 GLC5        0.0000 
     53 CA          0.0290   53.4320   31.1150 C.3       9 GLL5        0.0000 
     54 CA          1.3500   49.2110   31.3990 C.3       6 GLP5        0.0000 
     55 CA          2.1019   55.7413   26.4191 C.3       3 GLC5        0.0000 
     56 CA          2.1360   53.9060   26.6010 C.3       9 GLL5        0.0000 
     57 CA         -0.9449   54.2456   29.8219 C.3       3 GLC5        0.0000 
     58 CA         -2.4880   55.0410   29.3140 C.3       6 GLP5        0.0000 
@<TRIPOS>BOND
@<TRIPOS>SUBSTRUCTURE
     1 ALC1        4 GROUP        1 X    ALC  0     ROOT ALC X 1
     2 SEC2        1 GROUP        1 X    SEC  0     **** SEC X 2
     3 GLC5       10 GROUP        1 X    GLC  0     **** GLC X 6
     4 ALP1        6 GROUP        1 Y    ALP  0     ROOT ALP Y 8
     5 SEP2        3 GROUP        1 Y    SEP  0     **** SEP Y 9
     6 GLP5       12 GROUP        1 Y    GLP  0     **** GLP Y 13
     7 ALL1        5 GROUP        1 Z    ALL  0     ROOT ALL Z 15
     8 SEL2        2 GROUP        1 Z    SEL  0     **** SEL Z 16
     9 GLL5       11 GROUP        1 Z    GLL  0     **** GLL Z 20
@<TRIPOS>SET

