#    Name: 3cr0_809_1_ligand
#    Modification time : Mon Mar 24 22:12:44 2014

@<TRIPOS>MOLECULE
3cr0_809_1_ligand
   40    43     1     0     0
SMALL
NO_CHARGES


@<TRIPOS>ATOM
      1 O1          7.1540   55.2960   26.6580 O.2       1 809901      0.0000 
      2 C5          6.1300   54.9900   27.3560 C.2       1 809901      0.0000 
      3 N1          6.2190   55.0460   28.7070 N.am      1 809901      0.0000 
      4 C6          4.9760   54.6630   29.0970 C.2       1 809901      0.0000 
      5 O2          4.6580   54.5820   30.3310 O.2       1 809901      0.0000 
      6 C3          4.0370   54.4420   28.0390 C.ar      1 809901      0.0000 
      7 C4          4.8210   54.6530   26.9070 C.ar      1 809901      0.0000 
      8 C13         4.2120   54.4950   25.6290 C.ar      1 809901      0.0000 
      9 C15         4.7740   54.6270   24.4120 C.2       1 809901      0.0000 
     10 C17         6.1790   55.0230   24.1070 C.3       1 809901      0.0000 
     11 C19         6.9190   53.9470   23.3860 C.3       1 809901      0.0000 
     12 O3          7.8820   54.8530   22.8020 O.3       1 809901      0.0000 
     13 C16         3.7690   54.3140   23.4990 C.2       1 809901      0.0000 
     14 N2          2.6320   54.0330   24.1330 N.pl3     1 809901      0.0000 
     15 C18         1.3110   53.6860   23.4960 C.3       1 809901      0.0000 
     16 C14         2.8970   54.1170   25.4550 C.ar      1 809901      0.0000 
     17 C1          2.1360   53.9060   26.6010 C.ar      1 809901      0.0000 
     18 C2          2.6790   54.0950   27.8490 C.ar      1 809901      0.0000 
     19 C7          1.7660   53.8610   28.9810 C.ar      1 809901      0.0000 
     20 C12         1.1460   52.6170   29.0930 C.ar      1 809901      0.0000 
     21 C8          1.4670   54.8970   29.8860 C.ar      1 809901      0.0000 
     22 CL1         2.1130   56.5390   29.7970 Cl        1 809901      0.0000 
     23 C9          0.6140   54.6780   30.9740 C.ar      1 809901      0.0000 
     24 C10         0.0290   53.4320   31.1150 C.ar      1 809901      0.0000 
     25 C11         0.2940   52.4520   30.1930 C.ar      1 809901      0.0000 
     26 H           6.9423   55.2844   29.2322 H         1 809901      0.0000 
     27 H           6.7041   55.2627   25.0455 H         1 809901      0.0000 
     28 H           6.1768   55.9391   23.4949 H         1 809901      0.0000 
     29 H           6.3050   53.5171   22.6647 H         1 809901      0.0000 
     30 H           7.3611   53.3011   24.0711 H         1 809901      0.0000 
     31 H           3.9127   54.3107   22.5348 H         1 809901      0.0000 
     32 H           1.1501   53.6032   26.5039 H         1 809901      0.0000 
     33 H           1.2979   51.8858   28.4309 H         1 809901      0.0000 
     34 H           0.4328   55.4236   31.6426 H         1 809901      0.0000 
     35 H          -0.6002   53.2474   31.9087 H         1 809901      0.0000 
     36 H          -0.1687   51.5066   30.3092 H         1 809901      0.0000 
     37 H           1.3757   52.8631   22.9315 H         1 809901      0.0000 
     38 H           0.6017   53.5170   24.1803 H         1 809901      0.0000 
     39 H           0.9790   54.4214   22.9052 H         1 809901      0.0000 
     40 H           8.6186   54.9167   23.4753 H         1 809901      0.0000 
@<TRIPOS>BOND
     1    2    1 2    
     2    3    2 am   
     3    7    2 1    
     4    4    3 am   
     5   26    3 1    
     6    5    4 2    
     7    6    4 1    
     8    7    6 ar   
     9   18    6 ar   
    10    8    7 ar   
    11    9    8 1    
    12   16    8 ar   
    13   10    9 1    
    14   13    9 2    
    15   11   10 1    
    16   27   10 1    
    17   28   10 1    
    18   12   11 1    
    19   29   11 1    
    20   30   11 1    
    21   40   12 1    
    22   14   13 1    
    23   31   13 1    
    24   15   14 1    
    25   16   14 1    
    26   37   15 1    
    27   38   15 1    
    28   39   15 1    
    29   17   16 ar   
    30   18   17 ar   
    31   32   17 1    
    32   19   18 1    
    33   20   19 ar   
    34   21   19 ar   
    35   25   20 ar   
    36   33   20 1    
    37   22   21 1    
    38   23   21 ar   
    39   24   23 ar   
    40   34   23 1    
    41   25   24 ar   
    42   35   24 1    
    43   36   25 1    
@<TRIPOS>SUBSTRUCTURE
     1 809901      1 GROUP   
@<TRIPOS>SET

