#    Name: 3C10_2_CAVITY_N1_ALL.mol2
#    Modification time : Tue Mar 11 12:37:27 2014

@<TRIPOS>MOLECULE
3C10_2_CAVITY_N1_ALL.mol2
   74     0     6     0     0
SMALL
NO_CHARGES


@<TRIPOS>ATOM
      1 NZ        -48.8468   20.9860    8.7488 N.2       3 LYS4        0.0000 
      2 CA        -47.6950   20.0437    8.9372 C.3       5 GLY6        0.0000 
      3 NZ        -51.7386   21.9467    7.3473 N.2       3 LYS4        0.0000 
      4 NZ        -50.5868   21.0044    7.5357 N.2       3 LYS4        0.0000 
      5 CA        -49.4351   20.0621    7.7240 C.3       5 GLY6        0.0000 
      6 CA        -48.2833   19.1198    7.9124 C.3       5 GLY6        0.0000 
      7 DU        -52.3269   21.0228    6.3225 H         6 CUB7        0.0000 
      8 DU        -51.1752   20.0805    6.5109 H         6 CUB7        0.0000 
      9 CA        -50.0234   19.1382    6.6992 C.3       5 GLY6        0.0000 
     10 N         -52.9153   20.0989    5.2977 N.2       1 ALA2        0.0000 
     11 N         -51.7635   19.1566    5.4861 N.2       1 ALA2        0.0000 
     12 N         -53.5036   19.1749    4.2729 N.2       1 ALA2        0.0000 
     13 NZ        -49.6307   24.2967    6.2141 N.2       3 LYS4        0.0000 
     14 CZ        -48.4789   23.3544    6.4024 C.ar      4 PHE5        0.0000 
     15 CZ        -50.2190   23.3728    5.1893 C.ar      4 PHE5        0.0000 
     16 CZ        -49.0672   22.4305    5.3776 C.ar      4 PHE5        0.0000 
     17 CZ        -47.9155   21.4882    5.5660 C.ar      4 PHE5        0.0000 
     18 CA        -46.7637   20.5458    5.7543 C.3       5 GLY6        0.0000 
     19 CA        -45.6119   19.6035    5.9427 C.3       5 GLY6        0.0000 
     20 CZ        -50.8073   22.4489    4.1645 C.ar      4 PHE5        0.0000 
     21 N         -49.6556   21.5065    4.3528 N.2       1 ALA2        0.0000 
     22 CA        -51.3957   21.5249    3.1397 C.3       5 GLY6        0.0000 
     23 N         -50.2439   20.5826    3.3280 N.2       1 ALA2        0.0000 
     24 CZ        -47.7191   24.0674    5.3234 C.ar      4 PHE5        0.0000 
     25 CZ        -44.2638   21.2405    5.8884 C.ar      4 PHE5        0.0000 
     26 CA        -43.1120   20.2982    6.0768 C.3       5 GLY6        0.0000 
     27 CZ        -49.4592   24.0858    4.1103 C.ar      4 PHE5        0.0000 
     28 CZ        -48.3074   23.1435    4.2986 C.ar      4 PHE5        0.0000 
     29 CZ        -47.1557   22.2012    4.4869 C.ar      4 PHE5        0.0000 
     30 CZ        -46.0039   21.2589    4.6753 C.ar      4 PHE5        0.0000 
     31 CZ        -44.8521   20.3166    4.8636 C.ar      4 PHE5        0.0000 
     32 NZ        -49.2387   22.6414    7.4815 N.2       3 LYS4        0.0000 
     33 CZ        -52.1306   23.6021    6.0800 C.ar      4 PHE5        0.0000 
     34 NZ        -50.9788   22.6598    6.2683 N.2       3 LYS4        0.0000 
     35 DU        -49.8270   21.7174    6.4567 H         6 CUB7        0.0000 
     36 CA        -48.6753   20.7751    6.6450 C.3       5 GLY6        0.0000 
     37 CA        -47.5235   19.8328    6.8333 C.3       5 GLY6        0.0000 
     38 CA        -52.7189   22.6781    5.0552 C.3       5 GLY6        0.0000 
     39 CA        -51.5671   21.7358    5.2435 C.3       5 GLY6        0.0000 
     40 CA        -50.4154   20.7935    5.4318 C.3       5 GLY6        0.0000 
     41 CA        -52.1555   20.8119    4.2187 C.3       5 GLY6        0.0000 
     42 N         -51.0037   19.8696    4.4070 N.2       1 ALA2        0.0000 
     43 CA        -43.7004   19.3742    5.0520 C.3       5 GLY6        0.0000 
     44 CZ        -50.0475   23.1619    3.0855 C.ar      4 PHE5        0.0000 
     45 N         -47.7440   21.2773    3.4621 N.2       1 ALA2        0.0000 
     46 CA        -46.5922   20.3349    3.6505 C.3       5 GLY6        0.0000 
     47 CA        -45.4405   19.3926    3.8388 C.3       5 GLY6        0.0000 
     48 CZ        -42.9157   22.8774    5.8342 C.ar      4 PHE5        0.0000 
     49 N         -46.9593   24.7804    4.2444 N.2       1 ALA2        0.0000 
     50 CZ        -45.8075   23.8381    4.4327 C.ar      4 PHE5        0.0000 
     51 CZ        -44.6558   22.8958    4.6211 C.ar      4 PHE5        0.0000 
     52 CZ        -43.5040   21.9535    4.8094 C.ar      4 PHE5        0.0000 
     53 O         -42.3522   21.0112    4.9978 O.2       1 ALA2        0.0000 
     54 CZ        -48.6994   24.7988    3.0312 C.ar      4 PHE5        0.0000 
     55 O         -47.5476   23.8565    3.2196 O.2       1 ALA2        0.0000 
     56 OD1       -46.3959   22.9142    3.4079 O.3       2 ASP3        0.0000 
     57 CZ        -45.2441   21.9719    3.5963 C.ar      4 PHE5        0.0000 
     58 O         -44.0923   21.0296    3.7846 O.2       1 ALA2        0.0000 
     59 O         -42.9406   20.0873    3.9730 O.2       1 ALA2        0.0000 
     60 NZ        -45.8324   21.0480    2.5715 N.2       3 LYS4        0.0000 
     61 O         -44.6806   20.1057    2.7598 O.2       1 ALA2        0.0000 
     62 NZ        -49.6066   20.2730    9.8279 N.2       3 LYS4        0.0000 
     63 CA        -48.4548   19.3307   10.0162 C.3       5 GLY6        0.0000 
     64 CA        -52.5233   18.4435    6.5651 C.3       5 GLY6        0.0000 
     65 CA        -44.2879   25.2642    2.2747 C.3       5 GLY6        0.0000 
     66 N         -44.4594   25.4751    4.3785 N.2       1 ALA2        0.0000 
     67 CZ        -43.3076   24.5328    4.5668 C.ar      4 PHE5        0.0000 
     68 CA        -42.1559   23.5905    4.7552 C.3       5 GLY6        0.0000 
     69 CA        -46.1995   25.4935    3.1654 C.3       5 GLY6        0.0000 
     70 CZ        -45.0477   24.5512    3.3537 C.ar      4 PHE5        0.0000 
     71 CA        -43.8960   23.6088    3.5420 C.3       5 GLY6        0.0000 
     72 CA        -42.7442   22.6665    3.7304 C.3       5 GLY6        0.0000 
     73 OD1       -46.7878   24.5695    2.1405 O.3       2 ASP3        0.0000 
     74 CA        -44.4843   22.6849    2.5172 C.3       5 GLY6        0.0000 
@<TRIPOS>BOND
@<TRIPOS>SUBSTRUCTURE
     1 ALA2       10 GROUP   
     2 ASP3       56 GROUP   
     3 LYS4        1 GROUP   
     4 PHE5       14 GROUP   
     5 GLY6        2 GROUP   
     6 CUB7        7 GROUP   
@<TRIPOS>SET

