#    Name: 3c10_TSN_2_INTS_M
#    Modification time : Mon Mar 24 20:18:54 2014

@<TRIPOS>MOLECULE
3c10_TSN_2_INTS_M
   55     0    12     0     0
SMALL
NO_CHARGES


@<TRIPOS>ATOM
      1 Zn        -45.6790   24.1335    0.3055 Zn        3 ZIC7        0.0000 
      2 Zn        -45.4600   25.0660    0.6370 Zn       11 ZIL7        0.0000 
      3 Zn        -45.8980   23.2010   -0.0260 Zn        7 ZIP7        0.0000 
      4 N         -45.5035   26.2235   -0.0875 N.am      2 SEC2        0.0000 
      5 N         -45.4600   25.0660    0.6370 N.am     10 SEL2        0.0000 
      6 N         -45.5470   27.3810   -0.8120 N.am      6 SEP2        0.0000 
      7 Zn        -45.6190   23.1930    1.3010 Zn        3 ZIC7        0.0000 
      8 Zn        -45.3400   23.1850    2.6280 Zn       11 ZIL7        0.0000 
      9 N         -51.2830   19.7640    4.3320 N.am      2 SEC2        0.0000 
     10 N         -51.3640   19.3880    5.9810 N.am     10 SEL2        0.0000 
     11 N         -51.2020   20.1400    2.6830 N.am      6 SEP2        0.0000 
     12 O         -47.0900   26.0655    1.6085 O.2       1 ALC1        0.0000 
     13 O         -46.1990   25.1030    1.8280 O.2       9 ALL1        0.0000 
     14 O         -47.9810   27.0280    1.3890 O.2       5 ALP1        0.0000 
     15 CA        -49.0385   18.7810    6.3015 C.3       4 GLC5        0.0000 
     16 CA        -50.0540   19.2180    7.9100 C.3      12 GLL5        0.0000 
     17 CA        -48.0230   18.3440    4.6930 C.3       8 GLP5        0.0000 
     18 CA        -50.0560   24.1040    4.1195 C.3       4 GLC5        0.0000 
     19 CA        -48.7360   22.9040    5.2860 C.3      12 GLL5        0.0000 
     20 CA        -51.3760   25.3040    2.9530 C.3       8 GLP5        0.0000 
     21 CA        -47.3310   26.0100    3.0470 C.3       4 GLC5        0.0000 
     22 CA        -47.1850   24.1070    3.7850 C.3      12 GLL5        0.0000 
     23 CA        -47.4770   27.9130    2.3090 C.3       8 GLP5        0.0000 
     24 CA        -46.1880   24.0890    5.3200 C.3       4 GLC5        0.0000 
     25 CA        -45.1910   24.0710    6.8550 C.3       8 GLP5        0.0000 
     26 CA        -49.0220   25.2705    3.7090 C.3       4 GLC5        0.0000 
     27 CA        -50.8590   26.4340    3.6330 C.3       8 GLP5        0.0000 
     28 CA        -52.1945   23.4760    4.6850 C.3       4 GLC5        0.0000 
     29 CA        -51.7660   22.1860    6.0720 C.3      12 GLL5        0.0000 
     30 CA        -52.6230   24.7660    3.2980 C.3       8 GLP5        0.0000 
     31 CA        -48.9915   24.4650    8.3660 C.3       4 GLC5        0.0000 
     32 CA        -48.9470   24.0990    6.1840 C.3      12 GLL5        0.0000 
     33 CA        -49.0360   24.8310   10.5480 C.3       8 GLP5        0.0000 
     34 CA        -48.6770   25.9130    6.2735 C.3       4 GLC5        0.0000 
     35 CA        -48.4070   27.7270    6.3630 C.3       8 GLP5        0.0000 
     36 CA        -47.3540   23.4655    6.6890 C.3       4 GLC5        0.0000 
     37 CA        -45.7610   22.8320    7.1940 C.3       8 GLP5        0.0000 
     38 CA        -49.9030   25.2665    4.9085 C.3       4 GLC5        0.0000 
     39 CA        -46.2125   17.5075   10.8425 C.3       4 GLC5        0.0000 
     40 CA        -47.4840   15.8120   10.7750 C.3      12 GLL5        0.0000 
     41 CA        -44.9410   19.2030   10.9100 C.3       8 GLP5        0.0000 
     42 CA        -47.0335   17.2460   13.9505 C.3       4 GLC5        0.0000 
     43 CA        -48.5790   17.2770   12.4800 C.3      12 GLL5        0.0000 
     44 CA        -45.4880   17.2150   15.4210 C.3       8 GLP5        0.0000 
     45 CA        -46.7600   18.2400   11.6950 C.3       4 GLC5        0.0000 
     46 CA        -49.0847   16.7648    7.1532 C.3       4 GLC5        0.0000 
     47 CA        -49.6270   17.0440    8.9770 C.3      12 GLL5        0.0000 
     48 CA        -48.2660   16.1000    5.8480 C.3       8 GLP5        0.0000 
     49 CA        -47.1304   19.1490    9.4678 C.3       4 GLC5        0.0000 
     50 CA        -48.9410   17.6770   10.0230 C.3      12 GLL5        0.0000 
     51 CA        -45.1360   19.1910    9.4510 C.3       8 GLP5        0.0000 
     52 CA        -48.9813   19.9860    5.3415 C.3       4 GLC5        0.0000 
     53 CA        -50.4660   21.5060    6.5220 C.3      12 GLL5        0.0000 
     54 CA        -47.0819   22.7393    5.9905 C.3       4 GLC5        0.0000 
     55 CA        -47.7310   22.9660    4.2020 C.3      12 GLL5        0.0000 
@<TRIPOS>BOND
@<TRIPOS>SUBSTRUCTURE
     1 ALC1       12 GROUP        1 X    ALC  0     ROOT ALC X 1
     2 SEC2        4 GROUP        1 X    SEC  0     **** SEC X 2
     3 ZIC7        1 GROUP        1 X    ZIC  0     **** ZIC X 5
     4 GLC5       15 GROUP        1 X    GLC  0     **** GLC X 6
     5 ALP1       14 GROUP        1 Y    ALP  0     ROOT ALP Y 8
     6 SEP2        6 GROUP        1 Y    SEP  0     **** SEP Y 9
     7 ZIP7        3 GROUP        1 Y    ZIP  0     **** ZIP Y 12
     8 GLP5       17 GROUP        1 Y    GLP  0     **** GLP Y 13
     9 ALL1       13 GROUP        1 Z    ALL  0     ROOT ALL Z 15
    10 SEL2        5 GROUP        1 Z    SEL  0     **** SEL Z 16
    11 ZIL7        2 GROUP        1 Z    ZIL  0     **** ZIL Z 19
    12 GLL5       16 GROUP        1 Z    GLL  0     **** GLL Z 20
@<TRIPOS>SET

