#    Name: 3c10_TSN_2_ligand
#    Modification time : Mon Mar 24 20:18:54 2014

@<TRIPOS>MOLECULE
3c10_TSN_2_ligand
   43    43     1     0     0
SMALL
NO_CHARGES


@<TRIPOS>ATOM
      1 O1        -45.4600   25.0660    0.6370 O.3       1 TSN301      0.0000 
      2 O2        -45.3400   23.1850    2.6280 O.2       1 TSN301      0.0000 
      3 O3        -51.3640   19.3880    5.9810 O.2       1 TSN301      0.0000 
      4 N1        -46.1990   25.1030    1.8280 N.am      1 TSN301      0.0000 
      5 N2        -48.3600   16.9380   11.0790 N.pl3     1 TSN301      0.0000 
      6 C1        -50.0540   19.2180    7.9100 C.ar      1 TSN301      0.0000 
      7 C2        -50.1800   17.8150    7.9400 C.ar      1 TSN301      0.0000 
      8 C3        -49.6270   17.0440    8.9770 C.ar      1 TSN301      0.0000 
      9 C4        -48.9410   17.6770   10.0230 C.ar      1 TSN301      0.0000 
     10 C5        -48.8160   19.0750    9.9950 C.ar      1 TSN301      0.0000 
     11 C6        -49.3710   19.8380    8.9600 C.ar      1 TSN301      0.0000 
     12 C7        -50.6660   20.0100    6.7630 C.2       1 TSN301      0.0000 
     13 C8        -50.4660   21.5060    6.5220 C.3       1 TSN301      0.0000 
     14 C9        -49.4130   21.7500    5.4580 C.2       1 TSN301      0.0000 
     15 C10       -48.7360   22.9040    5.2860 C.2       1 TSN301      0.0000 
     16 C11       -47.7310   22.9660    4.2020 C.2       1 TSN301      0.0000 
     17 C12       -47.1850   24.1070    3.7850 C.2       1 TSN301      0.0000 
     18 C13       -46.1710   24.0890    2.7050 C.2       1 TSN301      0.0000 
     19 C14       -51.7660   22.1860    6.0720 C.3       1 TSN301      0.0000 
     20 C15       -48.9470   24.0990    6.1840 C.3       1 TSN301      0.0000 
     21 C17       -47.4840   15.8120   10.7750 C.3       1 TSN301      0.0000 
     22 C16       -48.5790   17.2770   12.4800 C.3       1 TSN301      0.0000 
     23 H         -46.7784   25.9545    2.0128 H         1 TSN301      0.0000 
     24 H         -50.6942   17.3404    7.1768 H         1 TSN301      0.0000 
     25 H         -49.7254   16.0271    8.9671 H         1 TSN301      0.0000 
     26 H         -48.3021   19.5510   10.7567 H         1 TSN301      0.0000 
     27 H         -49.2746   20.8622    8.9739 H         1 TSN301      0.0000 
     28 H         -50.1415   21.9733    7.4404 H         1 TSN301      0.0000 
     29 H         -49.2444   20.9141    4.8382 H         1 TSN301      0.0000 
     30 H         -47.4789   22.0407    3.7840 H         1 TSN301      0.0000 
     31 H         -47.4203   25.0280    4.1667 H         1 TSN301      0.0000 
     32 H         -51.6365   23.1642    5.9097 H         1 TSN301      0.0000 
     33 H         -52.1165   21.7918    5.2224 H         1 TSN301      0.0000 
     34 H         -52.4888   22.0957    6.7571 H         1 TSN301      0.0000 
     35 H         -48.7360   23.8882    7.1385 H         1 TSN301      0.0000 
     36 H         -48.3674   24.8696    5.9190 H         1 TSN301      0.0000 
     37 H         -49.8933   24.4212    6.1573 H         1 TSN301      0.0000 
     38 H         -46.6888   16.0944   10.2385 H         1 TSN301      0.0000 
     39 H         -47.1374   15.3763   11.6057 H         1 TSN301      0.0000 
     40 H         -47.9567   15.1052   10.2486 H         1 TSN301      0.0000 
     41 H         -48.0940   16.6535   13.0932 H         1 TSN301      0.0000 
     42 H         -48.2628   18.2017   12.6922 H         1 TSN301      0.0000 
     43 H         -49.5475   17.2349   12.7253 H         1 TSN301      0.0000 
@<TRIPOS>BOND
     1    4    1 1    
     2   18    2 2    
     3   12    3 2    
     4   18    4 am   
     5   23    4 1    
     6    9    5 1    
     7   21    5 1    
     8   22    5 1    
     9    7    6 ar   
    10   11    6 ar   
    11   12    6 1    
    12    8    7 ar   
    13   24    7 1    
    14    9    8 ar   
    15   25    8 1    
    16   10    9 ar   
    17   11   10 ar   
    18   26   10 1    
    19   27   11 1    
    20   13   12 1    
    21   14   13 1    
    22   19   13 1    
    23   28   13 1    
    24   15   14 2    
    25   29   14 1    
    26   16   15 1    
    27   20   15 1    
    28   17   16 2    
    29   30   16 1    
    30   18   17 1    
    31   31   17 1    
    32   32   19 1    
    33   33   19 1    
    34   34   19 1    
    35   35   20 1    
    36   36   20 1    
    37   37   20 1    
    38   38   21 1    
    39   39   21 1    
    40   40   21 1    
    41   41   22 1    
    42   42   22 1    
    43   43   22 1    
@<TRIPOS>SUBSTRUCTURE
     1 TSN301      1 GROUP   
@<TRIPOS>SET

