#    Name: 3tfu_PL8_2_INTS_M
#    Modification time : Mon Mar 24 20:03:19 2014

@<TRIPOS>MOLECULE
3tfu_PL8_2_INTS_M
   58     0     6     0     0
SMALL
NO_CHARGES


@<TRIPOS>ATOM
      1 CA         39.9395   12.1875  -27.7870 C.3       2 GLC5        0.0000 
      2 CA         38.7070   11.1970  -26.4240 C.3       6 GLL5        0.0000 
      3 CA         41.1720   13.1780  -29.1500 C.3       4 GLP5        0.0000 
      4 CA         38.6660   12.5030  -24.7170 C.3       2 GLC5        0.0000 
      5 CA         38.6250   13.8090  -23.0100 C.3       4 GLP5        0.0000 
      6 N          34.0920    4.3310  -25.5270 N.am      1 SEC2        0.0000 
      7 N          34.5690    3.8000  -24.3190 N.am      5 SEL2        0.0000 
      8 N          33.6150    4.8620  -26.7350 N.am      3 SEP2        0.0000 
      9 N          35.1670    3.3465  -25.3945 N.am      1 SEC2        0.0000 
     10 N          35.7650    2.8930  -26.4700 N.am      3 SEP2        0.0000 
     11 N          32.7910    5.7545  -23.7005 N.am      1 SEC2        0.0000 
     12 N          33.7580    5.4420  -22.5480 N.am      5 SEL2        0.0000 
     13 N          31.8240    6.0670  -24.8530 N.am      3 SEP2        0.0000 
     14 N          36.1895    4.3250  -21.0770 N.am      1 SEC2        0.0000 
     15 N          36.1810    4.6170  -22.4570 N.am      5 SEL2        0.0000 
     16 N          36.1980    4.0330  -19.6970 N.am      3 SEP2        0.0000 
     17 N          36.3495    5.7615  -21.3265 N.am      1 SEC2        0.0000 
     18 N          36.5180    6.9060  -20.1960 N.am      3 SEP2        0.0000 
     19 CA         38.4410    9.4500  -21.1815 C.3       2 GLC5        0.0000 
     20 CA         40.1290    8.4800  -21.2730 C.3       6 GLL5        0.0000 
     21 CA         36.7530   10.4200  -21.0900 C.3       4 GLP5        0.0000 
     22 CA         38.2910    7.6115  -27.9515 C.3       2 GLC5        0.0000 
     23 CA         37.0500    7.9050  -26.5760 C.3       6 GLL5        0.0000 
     24 CA         39.5320    7.3180  -29.3270 C.3       4 GLP5        0.0000 
     25 CA         35.5525    8.7590  -26.8790 C.3       2 GLC5        0.0000 
     26 CA         34.0550    9.6130  -27.1820 C.3       4 GLP5        0.0000 
     27 CA         42.4840    6.8015  -16.8110 C.3       2 GLC5        0.0000 
     28 CA         43.7530    7.0980  -18.3570 C.3       6 GLL5        0.0000 
     29 CA         41.2150    6.5050  -15.2650 C.3       4 GLP5        0.0000 
     30 CA         42.0280    8.4755  -17.3125 C.3       2 GLC5        0.0000 
     31 CA         43.1490    8.2430  -19.1900 C.3       6 GLL5        0.0000 
     32 CA         40.9070    8.7080  -15.4350 C.3       4 GLP5        0.0000 
     33 CA         39.5100    6.8805  -23.9985 C.3       2 GLC5        0.0000 
     34 CA         38.0290    7.8500  -23.0050 C.3       6 GLL5        0.0000 
     35 CA         40.9910    5.9110  -24.9920 C.3       4 GLP5        0.0000 
     36 CA         34.6700    6.5250  -25.3245 C.3       2 GLC5        0.0000 
     37 CA         36.7170    6.1940  -24.8780 C.3       6 GLL5        0.0000 
     38 CA         32.6230    6.8560  -25.7710 C.3       4 GLP5        0.0000 
     39 CA         38.8540    6.0525  -24.9350 C.3       2 GLC5        0.0000 
     40 N          37.4410    9.7640  -28.1820 N.am      1 SEC2        0.0000 
     41 N          37.5580    9.1700  -26.9620 N.am      5 SEL2        0.0000 
     42 N          37.3240   10.3580  -29.4020 N.am      3 SEP2        0.0000 
     43 CA         38.8625    8.6310  -27.6960 C.3       2 GLC5        0.0000 
     44 CA         38.1930    9.9440  -26.0650 C.3       6 GLL5        0.0000 
     45 CA         42.0835    7.7340  -22.6755 C.3       2 GLC5        0.0000 
     46 CA         40.0980    7.2340  -21.8820 C.3       6 GLL5        0.0000 
     47 CA         44.0690    8.2340  -23.4690 C.3       4 GLP5        0.0000 
     48 CA         36.5885   10.9958  -25.8888 C.3       2 GLC5        0.0000 
     49 CA         34.7270   11.4210  -25.5330 C.3       4 GLP5        0.0000 
     50 CA         43.2349    8.2581  -21.5929 C.3       2 GLC5        0.0000 
     51 CA         41.1590    8.7880  -20.3950 C.3       6 GLL5        0.0000 
     52 CA         37.7726    5.5600  -26.3845 C.3       2 GLC5        0.0000 
     53 CA         37.1930    7.4470  -25.2640 C.3       6 GLL5        0.0000 
     54 CA         38.6260    4.1850  -27.3700 C.3       4 GLP5        0.0000 
     55 CA         36.3299    9.6160  -24.4250 C.3       2 GLC5        0.0000 
     56 CA         34.7060   10.6220  -24.2320 C.3       4 GLP5        0.0000 
     57 CA         37.4481    9.5895  -22.6552 C.3       2 GLC5        0.0000 
     58 CA         38.3360    9.4750  -24.7670 C.3       6 GLL5        0.0000 
@<TRIPOS>BOND
@<TRIPOS>SUBSTRUCTURE
     1 SEC2        6 GROUP        1 X    SEC  0     ROOT SEC X 2
     2 GLC5        1 GROUP        1 X    GLC  0     **** GLC X 6
     3 SEP2        8 GROUP        1 Y    SEP  0     ROOT SEP Y 9
     4 GLP5        3 GROUP        1 Y    GLP  0     **** GLP Y 13
     5 SEL2        7 GROUP        1 Z    SEL  0     ROOT SEL Z 16
     6 GLL5        2 GROUP        1 Z    GLL  0     **** GLL Z 20
@<TRIPOS>SET

