#    Name: 3tfu_PL8_2_ligand
#    Modification time : Mon Mar 24 20:03:19 2014

@<TRIPOS>MOLECULE
3tfu_PL8_2_ligand
   47    48     1     0     0
SMALL
NO_CHARGES


@<TRIPOS>ATOM
      1 CAA        38.7070   11.1970  -26.4240 C.3       1 PL8501      0.0000 
      2 OAB        41.0210    5.1570  -22.1150 O.2       1 PL8501      0.0000 
      3 OAC        34.5690    3.8000  -24.3190 O.co2     1 PL8501      0.0000 
      4 OAD        44.9890    5.0140  -18.4000 O.3       1 PL8501      0.0000 
      5 OAE        38.9790   10.2540  -23.8670 O.3       1 PL8501      0.0000 
      6 OAF        33.7580    5.4420  -22.5480 O.co2     1 PL8501      0.0000 
      7 OAG        36.1810    4.6170  -22.4570 O.co2     1 PL8501      0.0000 
      8 CAH        41.1590    8.7880  -20.3950 C.2       1 PL8501      0.0000 
      9 CAI        40.1290    8.4800  -21.2730 C.2       1 PL8501      0.0000 
     10 CAJ        37.0500    7.9050  -26.5760 C.ar      1 PL8501      0.0000 
     11 CAK        44.4430    6.0440  -19.2330 C.3       1 PL8501      0.0000 
     12 CAL        43.7530    7.0980  -18.3570 C.3       1 PL8501      0.0000 
     13 CAM        43.1490    8.2430  -19.1900 C.3       1 PL8501      0.0000 
     14 CAN        38.0290    7.8500  -23.0050 C.3       1 PL8501      0.0000 
     15 CAO        36.7170    6.1940  -24.8780 C.3       1 PL8501      0.0000 
     16 NAP        39.1180    6.9020  -22.7190 N.pl3     1 PL8501      0.0000 
     17 NAQ        42.0990    6.5860  -20.6960 N.am      1 PL8501      0.0000 
     18 NAR        37.5580    9.1700  -26.9620 N.ar      1 PL8501      0.0000 
     19 OAS        35.3980    6.2450  -24.3600 O.3       1 PL8501      0.0000 
     20 CAT        38.1930    9.9440  -26.0650 C.ar      1 PL8501      0.0000 
     21 CAU        42.1460    7.8550  -20.0920 C.2       1 PL8501      0.0000 
     22 CAV        37.1930    7.4470  -25.2640 C.ar      1 PL8501      0.0000 
     23 CAW        38.3360    9.4750  -24.7670 C.ar      1 PL8501      0.0000 
     24 CAX        40.0980    7.2340  -21.8820 C.2       1 PL8501      0.0000 
     25 CAY        37.8720    8.2360  -24.3430 C.ar      1 PL8501      0.0000 
     26 CAZ        41.0600    6.2710  -21.5920 C.2       1 PL8501      0.0000 
     27 PBA        34.9360    5.0510  -23.3640 P.3       1 PL8501      0.0000 
     28 H          41.1949    9.7262  -19.9579 H         1 PL8501      0.0000 
     29 H          39.3952    9.1699  -21.4701 H         1 PL8501      0.0000 
     30 H          36.5716    7.3234  -27.2765 H         1 PL8501      0.0000 
     31 H          43.6971    5.6504  -19.9294 H         1 PL8501      0.0000 
     32 H          45.2190    6.5507  -19.8138 H         1 PL8501      0.0000 
     33 H          44.4813    7.5146  -17.6567 H         1 PL8501      0.0000 
     34 H          42.9568    6.6199  -17.7811 H         1 PL8501      0.0000 
     35 H          44.0058    8.7442  -19.7100 H         1 PL8501      0.0000 
     36 H          42.7789    9.0072  -18.4588 H         1 PL8501      0.0000 
     37 H          38.1785    8.7587  -22.3437 H         1 PL8501      0.0000 
     38 H          37.0671    7.4034  -22.6043 H         1 PL8501      0.0000 
     39 H          36.7520    5.4781  -25.7437 H         1 PL8501      0.0000 
     40 H          37.4015    5.7331  -24.1149 H         1 PL8501      0.0000 
     41 H          39.0651    5.9932  -23.1999 H         1 PL8501      0.0000 
     42 H          42.8194    5.8914  -20.4847 H         1 PL8501      0.0000 
     43 H          39.1475   11.6531  -25.6508 H         1 PL8501      0.0000 
     44 H          39.3912   11.1237  -27.1496 H         1 PL8501      0.0000 
     45 H          37.9910   11.8106  -26.7571 H         1 PL8501      0.0000 
     46 H          45.2136    5.4698  -17.5387 H         1 PL8501      0.0000 
     47 H          39.9062   10.3547  -24.2278 H         1 PL8501      0.0000 
@<TRIPOS>BOND
     1   20    1 1    
     2   43    1 1    
     3   44    1 1    
     4   45    1 1    
     5   26    2 2    
     6   27    3 ar   
     7   11    4 1    
     8   46    4 1    
     9   23    5 1    
    10   47    5 1    
    11   27    6 ar   
    12   27    7 ar   
    13    9    8 1    
    14   21    8 2    
    15   28    8 1    
    16   24    9 2    
    17   29    9 1    
    18   18   10 ar   
    19   22   10 ar   
    20   30   10 1    
    21   12   11 1    
    22   31   11 1    
    23   32   11 1    
    24   13   12 1    
    25   33   12 1    
    26   34   12 1    
    27   21   13 1    
    28   35   13 1    
    29   36   13 1    
    30   16   14 1    
    31   25   14 1    
    32   37   14 1    
    33   38   14 1    
    34   19   15 1    
    35   22   15 1    
    36   39   15 1    
    37   40   15 1    
    38   24   16 1    
    39   41   16 1    
    40   21   17 1    
    41   26   17 am   
    42   42   17 1    
    43   20   18 ar   
    44   27   19 1    
    45   23   20 ar   
    46   25   22 ar   
    47   25   23 ar   
    48   26   24 1    
@<TRIPOS>SUBSTRUCTURE
     1 PL8501      1 GROUP   
@<TRIPOS>SET

