#    Name: 4ej0_NAP_4_INTS_M
#    Modification time : Mon Mar 24 18:02:06 2014

@<TRIPOS>MOLECULE
4ej0_NAP_4_INTS_M
  118     0    12     0     0
SMALL
NO_CHARGES


@<TRIPOS>ATOM
      1 N         -34.7285   16.8970    0.0285 N.am      2 SEC2        0.0000 
      2 N         -33.2820   17.1960    0.1890 N.am     10 SEL2        0.0000 
      3 N         -36.1750   16.5980   -0.1320 N.am      6 SEP2        0.0000 
      4 N         -33.0955   15.7380    0.0415 N.am      2 SEC2        0.0000 
      5 N         -32.9090   14.2800   -0.1060 N.am      6 SEP2        0.0000 
      6 CA        -30.6255   16.0900   -3.7975 C.3       4 GLC5        0.0000 
      7 CA        -31.0430   18.2160   -3.5300 C.3      12 GLL5        0.0000 
      8 CA        -30.2080   13.9640   -4.0650 C.3       8 GLP5        0.0000 
      9 N         -30.4610   15.9490   -4.5280 N.am      2 SEC2        0.0000 
     10 N         -31.3160   16.9590   -4.0770 N.am     10 SEL2        0.0000 
     11 N         -29.6060   14.9390   -4.9790 N.am      6 SEP2        0.0000 
     12 O         -31.6275   16.8435   -5.5705 O.2       1 ALC1        0.0000 
     13 O         -31.3160   16.9590   -4.0770 O.2       9 ALL1        0.0000 
     14 O         -31.9390   16.7280   -7.0640 O.2       5 ALP1        0.0000 
     15 O         -32.5545   17.2645   -5.1505 O.2       1 ALC1        0.0000 
     16 O         -33.7930   17.5700   -6.2240 O.2       5 ALP1        0.0000 
     17 N         -29.3730   16.4365   -4.8975 N.am      2 SEC2        0.0000 
     18 N         -29.1400   17.9340   -4.8160 N.am     10 SEL2        0.0000 
     19 CA        -32.9365   20.0825   -5.4220 C.3       4 GLC5        0.0000 
     20 CA        -30.7900   19.6090   -5.3000 C.3      12 GLL5        0.0000 
     21 CA        -35.0830   20.5560   -5.5440 C.3       8 GLP5        0.0000 
     22 N         -27.6410   23.4040   -5.3825 N.am      2 SEC2        0.0000 
     23 N         -28.8970   22.6570   -5.7410 N.am     10 SEL2        0.0000 
     24 N         -26.3850   24.1510   -5.0240 N.am      6 SEP2        0.0000 
     25 O         -28.3260   25.9585   -6.9585 O.2       1 ALC1        0.0000 
     26 O         -29.2100   24.9780   -7.7100 O.2       9 ALL1        0.0000 
     27 O         -27.4420   26.9390   -6.2070 O.2       5 ALP1        0.0000 
     28 CA        -33.7425   23.2730   -8.4780 C.3       4 GLC5        0.0000 
     29 CA        -31.8240   22.5790   -8.5080 C.3      12 GLL5        0.0000 
     30 CA        -35.6610   23.9670   -8.4480 C.3       8 GLP5        0.0000 
     31 CA        -32.7840   22.1630  -10.3460 C.3       4 GLC5        0.0000 
     32 CA        -33.7440   21.7470  -12.1840 C.3       8 GLP5        0.0000 
     33 CA        -32.3310   20.5250   -8.9430 C.3       4 GLC5        0.0000 
     34 CA        -32.8380   18.4710   -9.3780 C.3       8 GLP5        0.0000 
     35 CA        -30.6560   22.1525   -9.6850 C.3       4 GLC5        0.0000 
     36 CA        -29.4880   21.7260  -10.8620 C.3       8 GLP5        0.0000 
     37 CA        -32.5035   23.0340   -6.8090 C.3       4 GLC5        0.0000 
     38 CA        -33.1830   23.4890   -5.1100 C.3       8 GLP5        0.0000 
     39 N         -31.2465   19.7930    1.2285 N.am      2 SEC2        0.0000 
     40 N         -32.7950   19.4380    1.1270 N.am     10 SEL2        0.0000 
     41 N         -29.6980   20.1480    1.3300 N.am      6 SEP2        0.0000 
     42 NZ        -33.4645   19.1110    3.9710 N.4       3 LYC4        0.0000 
     43 NZ        -34.4820   19.6720    2.9550 N.4      11 LYL4        0.0000 
     44 NZ        -32.4470   18.5500    4.9870 N.4       7 LYP4        0.0000 
     45 N         -33.4645   19.1110    3.9710 N.am      2 SEC2        0.0000 
     46 N         -34.4820   19.6720    2.9550 N.am     10 SEL2        0.0000 
     47 N         -32.4470   18.5500    4.9870 N.am      6 SEP2        0.0000 
     48 N         -36.6405   19.0805    0.6720 N.am      2 SEC2        0.0000 
     49 N         -35.2540   19.4090    0.6280 N.am     10 SEL2        0.0000 
     50 N         -38.0270   18.7520    0.7160 N.am      6 SEP2        0.0000 
     51 CA        -35.9870   22.8415   -1.3220 C.3       4 GLC5        0.0000 
     52 CA        -34.6630   22.2560    0.3030 C.3      12 GLL5        0.0000 
     53 CA        -37.3110   23.4270   -2.9470 C.3       8 GLP5        0.0000 
     54 CA        -35.4885   24.1305   -1.4095 C.3       4 GLC5        0.0000 
     55 CA        -34.5760   23.6730    0.5360 C.3      12 GLL5        0.0000 
     56 CA        -36.4010   24.5880   -3.3550 C.3       8 GLP5        0.0000 
     57 CA        -31.8490   24.7275   -0.7690 C.3       4 GLC5        0.0000 
     58 CA        -33.1970   24.2240    0.4970 C.3      12 GLL5        0.0000 
     59 CA        -30.5010   25.2310   -2.0350 C.3       8 GLP5        0.0000 
     60 N         -32.6145   26.7280   -0.0475 N.am      2 SEC2        0.0000 
     61 N         -33.1870   25.4580   -0.0930 N.am     10 SEL2        0.0000 
     62 N         -32.0420   27.9980   -0.0020 N.am      6 SEP2        0.0000 
     63 CA        -31.2535   22.8665    1.9705 C.3       4 GLC5        0.0000 
     64 CA        -32.8090   24.3530    1.8970 C.3      12 GLL5        0.0000 
     65 CA        -29.6980   21.3800    2.0440 C.3       8 GLP5        0.0000 
     66 CA        -31.9945   26.2715    1.5450 C.3       4 GLC5        0.0000 
     67 CA        -31.1800   28.1900    1.1930 C.3       8 GLP5        0.0000 
     68 O         -31.2115   25.5920    3.3545 O.2       1 ALC1        0.0000 
     69 O         -31.9210   25.3330    2.0640 O.2       9 ALL1        0.0000 
     70 O         -30.5020   25.8510    4.6450 O.2       5 ALP1        0.0000 
     71 CA        -35.6990   23.4225    2.7595 C.3       4 GLC5        0.0000 
     72 CA        -34.0950   24.7420    2.5160 C.3      12 GLL5        0.0000 
     73 CA        -37.3030   22.1030    3.0030 C.3       8 GLP5        0.0000 
     74 CA        -35.1305   25.8855    1.3910 C.3       4 GLC5        0.0000 
     75 CA        -36.1660   27.0290    0.2660 C.3       8 GLP5        0.0000 
     76 CA        -35.8655   25.1815    3.1070 C.3       4 GLC5        0.0000 
     77 CA        -37.6360   25.6210    3.6980 C.3       8 GLP5        0.0000 
     78 O         -35.3250   22.9870    8.7085 O.2       1 ALC1        0.0000 
     79 O         -34.7770   21.5600    7.8910 O.2       9 ALL1        0.0000 
     80 O         -35.8730   24.4140    9.5260 O.2       5 ALP1        0.0000 
     81 NZ        -28.2225   15.9115   -4.6985 N.4       3 LYC4        0.0000 
     82 NZ        -26.8390   16.8840   -4.4180 N.4      11 LYL4        0.0000 
     83 NZ        -29.6060   14.9390   -4.9790 N.4       7 LYP4        0.0000 
     84 N         -26.5735   16.9290   -6.1080 N.am      2 SEC2        0.0000 
     85 N         -26.8390   16.8840   -4.4180 N.am     10 SEL2        0.0000 
     86 N         -26.3080   16.9740   -7.7980 N.am      6 SEP2        0.0000 
     87 N         -28.2225   15.9115   -4.6985 N.am      2 SEC2        0.0000 
     88 NZ        -26.5350   19.5430   -6.8360 N.4       3 LYC4        0.0000 
     89 NZ        -27.1020   18.6660   -6.0680 N.4      11 LYL4        0.0000 
     90 NZ        -25.9680   20.4200   -7.6040 N.4       7 LYP4        0.0000 
     91 N         -26.7050   17.8200   -6.9330 N.am      2 SEC2        0.0000 
     92 N         -27.1020   18.6660   -6.0680 N.am     10 SEL2        0.0000 
     93 N         -26.5350   19.5430   -6.8360 N.am      2 SEC2        0.0000 
     94 N         -25.9680   20.4200   -7.6040 N.am      6 SEP2        0.0000 
     95 CA        -33.7043   19.9828   -4.2777 C.3       4 GLC5        0.0000 
     96 CA        -32.2350   19.0490   -3.6440 C.3      12 GLL5        0.0000 
     97 CA        -33.8642   17.9532   -2.7188 C.3       4 GLC5        0.0000 
     98 CA        -35.4030   16.4970   -2.4260 C.3       8 GLP5        0.0000 
     99 CA        -30.1210   23.2610   -4.9183 C.3       4 GLC5        0.0000 
    100 CA        -29.7990   22.8110   -6.7270 C.3      12 GLL5        0.0000 
    101 CA        -30.0290   24.2750   -3.1190 C.3       8 GLP5        0.0000 
    102 CA        -28.9743   21.9039   -8.0806 C.3       4 GLC5        0.0000 
    103 CA        -27.6740   21.3090   -9.2050 C.3       8 GLP5        0.0000 
    104 CA        -31.7288   22.9939   -6.0331 C.3       4 GLC5        0.0000 
    105 CA        -35.9612   22.5337    1.7113 C.3       4 GLC5        0.0000 
    106 CA        -35.0262   25.4887    0.3912 C.3       4 GLC5        0.0000 
    107 CA        -35.8450   22.6855    4.0868 C.3       4 GLC5        0.0000 
    108 CA        -34.3730   23.3650    4.4780 C.3      12 GLL5        0.0000 
    109 CA        -35.9510   24.6650    5.6727 C.3       4 GLC5        0.0000 
    110 CA        -37.5150   26.0620    6.1750 C.3       8 GLP5        0.0000 
    111 CA        -36.2878   23.2458    6.9045 C.3       4 GLC5        0.0000 
    112 CA        -34.1340   24.2500    6.7210 C.3      12 GLL5        0.0000 
    113 CA        -38.3080   22.7810    7.5170 C.3       8 GLP5        0.0000 
    114 CA        -32.9382   27.1150    5.6075 C.3       4 GLC5        0.0000 
    115 CA        -33.8500   25.4950    6.1410 C.3      12 GLL5        0.0000 
    116 CA        -32.0350   28.6640    5.7710 C.3       8 GLP5        0.0000 
    117 CA        -35.7138   25.6584    5.8820 C.3       4 GLC5        0.0000 
    118 CA        -33.8330   25.6370    4.7470 C.3      12 GLL5        0.0000 
@<TRIPOS>BOND
@<TRIPOS>SUBSTRUCTURE
     1 ALC1       12 GROUP        1 X    ALC  0     ROOT ALC X 1
     2 SEC2        1 GROUP        1 X    SEC  0     **** SEC X 2
     3 LYC4       42 GROUP        1 X    LYC  0     **** LYC X 4
     4 GLC5        6 GROUP        1 X    GLC  0     **** GLC X 6
     5 ALP1       14 GROUP        1 Y    ALP  0     ROOT ALP Y 8
     6 SEP2        3 GROUP        1 Y    SEP  0     **** SEP Y 9
     7 LYP4       44 GROUP        1 Y    LYP  0     **** LYP Y 11
     8 GLP5        8 GROUP        1 Y    GLP  0     **** GLP Y 13
     9 ALL1       13 GROUP        1 Z    ALL  0     ROOT ALL Z 15
    10 SEL2        2 GROUP        1 Z    SEL  0     **** SEL Z 16
    11 LYL4       43 GROUP        1 Z    LYL  0     **** LYL Z 18
    12 GLL5        7 GROUP        1 Z    GLL  0     **** GLL Z 20
@<TRIPOS>SET

