#    Name: 4ej0_NAP_4_ligand
#    Modification time : Mon Mar 24 18:02:06 2014

@<TRIPOS>MOLECULE
4ej0_NAP_4_ligand
   73    77     1     0     0
SMALL
NO_CHARGES


@<TRIPOS>ATOM
      1 PA        -32.5330   18.5100   -0.1250 P.3       1 NAP401      0.0000 
      2 O1A       -31.0480   18.2290   -0.2680 O.co2     1 NAP401      0.0000 
      3 O2A       -33.2820   17.1960    0.1890 O.co2     1 NAP401      0.0000 
      4 O5B       -33.1530   19.1220   -1.4490 O.3       1 NAP401      0.0000 
      5 C5B       -32.4160   19.7700   -2.3790 C.3       1 NAP401      0.0000 
      6 C4B       -32.2350   19.0490   -3.6440 C.3       1 NAP401      0.0000 
      7 O4B       -31.9980   19.9190   -4.6860 O.3       1 NAP401      0.0000 
      8 C3B       -31.0430   18.2160   -3.5300 C.3       1 NAP401      0.0000 
      9 O3B       -31.3160   16.9590   -4.0770 O.3       1 NAP401      0.0000 
     10 C2B       -30.0470   18.8860   -4.2700 C.3       1 NAP401      0.0000 
     11 O2B       -29.1400   17.9340   -4.8160 O.3       1 NAP401      0.0000 
     12 C1B       -30.7900   19.6090   -5.3000 C.3       1 NAP401      0.0000 
     13 N9A       -30.1930   20.8750   -5.6960 N.pl3     1 NAP401      0.0000 
     14 C8A       -29.1500   21.4800   -5.1230 C.2       1 NAP401      0.0000 
     15 N7A       -28.8970   22.6570   -5.7410 N.2       1 NAP401      0.0000 
     16 C5A       -29.7990   22.8110   -6.7270 C.ar      1 NAP401      0.0000 
     17 C6A       -30.0450   23.8180   -7.6820 C.ar      1 NAP401      0.0000 
     18 N6A       -29.2100   24.9780   -7.7100 N.pl3     1 NAP401      0.0000 
     19 N1A       -31.0530   23.6800   -8.5700 N.ar      1 NAP401      0.0000 
     20 C2A       -31.8240   22.5790   -8.5080 C.ar      1 NAP401      0.0000 
     21 N3A       -31.6310   21.6000   -7.6070 N.ar      1 NAP401      0.0000 
     22 C4A       -30.6270   21.6830   -6.7080 C.ar      1 NAP401      0.0000 
     23 O3        -32.7950   19.4380    1.1270 O.3       1 NAP401      0.0000 
     24 PN        -34.2030   19.9790    1.5060 P.3       1 NAP401      0.0000 
     25 O1N       -34.4820   19.6720    2.9550 O.co2     1 NAP401      0.0000 
     26 O2N       -35.2540   19.4090    0.6280 O.co2     1 NAP401      0.0000 
     27 O5D       -34.1530   21.5270    1.3500 O.3       1 NAP401      0.0000 
     28 C5D       -34.6630   22.2560    0.3030 C.3       1 NAP401      0.0000 
     29 C4D       -34.5760   23.6730    0.5360 C.3       1 NAP401      0.0000 
     30 O4D       -35.0020   23.8800    1.9220 O.3       1 NAP401      0.0000 
     31 C3D       -33.1970   24.2240    0.4970 C.3       1 NAP401      0.0000 
     32 O3D       -33.1870   25.4580   -0.0930 O.3       1 NAP401      0.0000 
     33 C2D       -32.8090   24.3530    1.8970 C.3       1 NAP401      0.0000 
     34 O2D       -31.9210   25.3330    2.0640 O.3       1 NAP401      0.0000 
     35 C1D       -34.0950   24.7420    2.5160 C.3       1 NAP401      0.0000 
     36 N1N       -34.0940   24.5750    3.9660 N.pl3     1 NAP401      0.0000 
     37 C2N       -34.3730   23.3650    4.4780 C.ar      1 NAP401      0.0000 
     38 C3N       -34.4010   23.1710    5.8630 C.ar      1 NAP401      0.0000 
     39 C7N       -34.6900   21.7580    6.4430 C.2       1 NAP401      0.0000 
     40 O7N       -34.8130   20.7640    5.6920 O.2       1 NAP401      0.0000 
     41 N7N       -34.7770   21.5600    7.8910 N.am      1 NAP401      0.0000 
     42 C4N       -34.1340   24.2500    6.7210 C.ar      1 NAP401      0.0000 
     43 C5N       -33.8500   25.4950    6.1410 C.ar      1 NAP401      0.0000 
     44 C6N       -33.8330   25.6370    4.7470 C.ar      1 NAP401      0.0000 
     45 P2B       -27.5560   18.1680   -4.7410 P.3       1 NAP401      0.0000 
     46 O1X       -27.2220   19.1720   -3.6670 O.co2     1 NAP401      0.0000 
     47 O2X       -26.8390   16.8840   -4.4180 O.co2     1 NAP401      0.0000 
     48 O3X       -27.1020   18.6660   -6.0680 O.co2     1 NAP401      0.0000 
     49 H         -31.3829   20.0324   -1.9904 H         1 NAP401      0.0000 
     50 H         -32.8533   20.7862   -2.6305 H         1 NAP401      0.0000 
     51 H         -33.0828   18.4165   -3.8264 H         1 NAP401      0.0000 
     52 H         -30.7680   18.1540   -2.4935 H         1 NAP401      0.0000 
     53 H         -29.5416   19.5982   -3.6393 H         1 NAP401      0.0000 
     54 H         -30.9529   18.9795   -6.1471 H         1 NAP401      0.0000 
     55 H         -28.6365   21.1317   -4.3661 H         1 NAP401      0.0000 
     56 H         -29.1166   25.4316   -8.5963 H         1 NAP401      0.0000 
     57 H         -28.7894   25.2385   -6.8410 H         1 NAP401      0.0000 
     58 H         -32.6225   22.4791   -9.2038 H         1 NAP401      0.0000 
     59 H         -35.7343   21.9892    0.1040 H         1 NAP401      0.0000 
     60 H         -34.1341   22.0160   -0.6568 H         1 NAP401      0.0000 
     61 H         -35.2135   24.2300   -0.1030 H         1 NAP401      0.0000 
     62 H         -32.5593   23.5109    0.0214 H         1 NAP401      0.0000 
     63 H         -32.5352   23.4019    2.2732 H         1 NAP401      0.0000 
     64 H         -34.3042   25.7628    2.2465 H         1 NAP401      0.0000 
     65 H         -34.5725   22.5530    3.8628 H         1 NAP401      0.0000 
     66 H         -34.6766   22.3803    8.4541 H         1 NAP401      0.0000 
     67 H         -34.9296   20.6207    8.1983 H         1 NAP401      0.0000 
     68 H         -34.1463   24.1326    7.7233 H         1 NAP401      0.0000 
     69 H         -33.6540   26.3048    6.7402 H         1 NAP401      0.0000 
     70 H         -33.6180   26.5644    4.3469 H         1 NAP401      0.0000 
     71 H         -31.4452   17.1248   -5.0546 H         1 NAP401      0.0000 
     72 H         -34.0896   25.8435    0.0982 H         1 NAP401      0.0000 
     73 H         -31.6055   25.2381    3.0082 H         1 NAP401      0.0000 
@<TRIPOS>BOND
     1    2    1 ar   
     2    3    1 ar   
     3    4    1 1    
     4   23    1 1    
     5    5    4 1    
     6    6    5 1    
     7   49    5 1    
     8   50    5 1    
     9    7    6 1    
    10    8    6 1    
    11   51    6 1    
    12   12    7 1    
    13    9    8 1    
    14   10    8 1    
    15   52    8 1    
    16   71    9 1    
    17   11   10 1    
    18   12   10 1    
    19   53   10 1    
    20   45   11 1    
    21   13   12 1    
    22   54   12 1    
    23   14   13 1    
    24   22   13 1    
    25   15   14 2    
    26   55   14 1    
    27   16   15 1    
    28   17   16 ar   
    29   22   16 ar   
    30   18   17 1    
    31   19   17 ar   
    32   56   18 1    
    33   57   18 1    
    34   20   19 ar   
    35   21   20 ar   
    36   58   20 1    
    37   22   21 ar   
    38   24   23 1    
    39   25   24 ar   
    40   26   24 ar   
    41   27   24 1    
    42   28   27 1    
    43   29   28 1    
    44   59   28 1    
    45   60   28 1    
    46   30   29 1    
    47   31   29 1    
    48   61   29 1    
    49   35   30 1    
    50   32   31 1    
    51   33   31 1    
    52   62   31 1    
    53   72   32 1    
    54   34   33 1    
    55   35   33 1    
    56   63   33 1    
    57   73   34 1    
    58   36   35 1    
    59   64   35 1    
    60   37   36 ar   
    61   44   36 ar   
    62   38   37 ar   
    63   65   37 1    
    64   39   38 1    
    65   42   38 ar   
    66   40   39 2    
    67   41   39 am   
    68   66   41 1    
    69   67   41 1    
    70   43   42 ar   
    71   68   42 1    
    72   44   43 ar   
    73   69   43 1    
    74   70   44 1    
    75   46   45 ar   
    76   47   45 ar   
    77   48   45 ar   
@<TRIPOS>SUBSTRUCTURE
     1 NAP401      1 GROUP   
@<TRIPOS>SET

