#    Name: 1rvv_INI_14_INTS_M
#    Modification time : Tue Mar 25 01:18:10 2014

@<TRIPOS>MOLECULE
1rvv_INI_14_INTS_M
   39     0     9     0     0
SMALL
NO_CHARGES


@<TRIPOS>ATOM
      1 N          52.6185   18.9820   -3.5960 N.am      2 SEC2        0.0000 
      2 N          51.3060   19.4080   -3.1700 N.am      8 SEL2        0.0000 
      3 N          53.9310   18.5560   -4.0220 N.am      5 SEP2        0.0000 
      4 O          48.8005   19.1725   -2.3245 O.2       1 ALC1        0.0000 
      5 O          49.1040   18.8730   -3.6870 O.2       7 ALL1        0.0000 
      6 O          48.4970   19.4720   -0.9620 O.2       4 ALP1        0.0000 
      7 CA         48.2555   20.2255   -5.6305 C.3       3 GLC5        0.0000 
      8 CA         48.5590   18.4740   -6.0660 C.3       9 GLL5        0.0000 
      9 CA         47.9520   21.9770   -5.1950 C.3       6 GLP5        0.0000 
     10 CA         49.6775   20.4935   -6.7010 C.3       3 GLC5        0.0000 
     11 CA         49.8990   18.8330   -6.3740 C.3       9 GLL5        0.0000 
     12 CA         49.4560   22.1540   -7.0280 C.3       6 GLP5        0.0000 
     13 CA         50.4880   15.8910   -7.9235 C.3       3 GLC5        0.0000 
     14 CA         50.8660   17.9660   -8.3860 C.3       9 GLL5        0.0000 
     15 CA         50.1100   13.8160   -7.4610 C.3       6 GLP5        0.0000 
     16 N          53.9405   17.0320   -6.2270 N.am      2 SEC2        0.0000 
     17 N          52.8010   17.7320   -6.9530 N.am      8 SEL2        0.0000 
     18 N          55.0800   16.3320   -5.5010 N.am      5 SEP2        0.0000 
     19 CA         53.8165   19.6610   -7.1175 C.3       3 GLC5        0.0000 
     20 CA         53.5600   18.6370   -9.0760 C.3       9 GLL5        0.0000 
     21 CA         54.0730   20.6850   -5.1590 C.3       6 GLP5        0.0000 
     22 O          55.0105   19.7070   -8.2225 O.2       1 ALC1        0.0000 
     23 O          53.6320   19.9300   -8.5130 O.2       7 ALL1        0.0000 
     24 O          56.3890   19.4840   -7.9320 O.2       4 ALP1        0.0000 
     25 O          53.0095   16.9680  -12.3780 O.2       1 ALC1        0.0000 
     26 O          52.6650   17.7620  -10.9900 O.2       7 ALL1        0.0000 
     27 O          53.3540   16.1740  -13.7660 O.2       4 ALP1        0.0000 
     28 CA         55.8170   18.6115  -13.1405 C.3       3 GLC5        0.0000 
     29 CA         54.9250   18.0470  -11.6370 C.3       9 GLL5        0.0000 
     30 CA         56.7090   19.1760  -14.6440 C.3       6 GLP5        0.0000 
     31 CA         55.0590   16.2830  -11.9765 C.3       3 GLC5        0.0000 
     32 CA         55.1930   14.5190  -12.3160 C.3       6 GLP5        0.0000 
     33 N          56.2545   16.9410  -12.0730 N.am      2 SEC2        0.0000 
     34 N          55.9840   17.7680  -10.7260 N.am      8 SEL2        0.0000 
     35 N          56.5250   16.1140  -13.4200 N.am      5 SEP2        0.0000 
     36 O          56.1865   18.6260   -9.3290 O.2       1 ALC1        0.0000 
     37 O          55.9840   17.7680  -10.7260 O.2       7 ALL1        0.0000 
     38 CA         54.2022   16.8152   -8.2655 C.3       3 GLC5        0.0000 
     39 CA         55.4000   15.4290   -7.8310 C.3       6 GLP5        0.0000 
@<TRIPOS>BOND
@<TRIPOS>SUBSTRUCTURE
     1 ALC1        4 GROUP        1 X    ALC  0     ROOT ALC X 1
     2 SEC2        1 GROUP        1 X    SEC  0     **** SEC X 2
     3 GLC5        7 GROUP        1 X    GLC  0     **** GLC X 6
     4 ALP1        6 GROUP        1 Y    ALP  0     ROOT ALP Y 8
     5 SEP2        3 GROUP        1 Y    SEP  0     **** SEP Y 9
     6 GLP5        9 GROUP        1 Y    GLP  0     **** GLP Y 13
     7 ALL1        5 GROUP        1 Z    ALL  0     ROOT ALL Z 15
     8 SEL2        2 GROUP        1 Z    SEL  0     **** SEL Z 16
     9 GLL5        8 GROUP        1 Z    GLL  0     **** GLL Z 20
@<TRIPOS>SET

