#    Name: 1rvv_INI_14_ligand
#    Modification time : Tue Mar 25 01:18:10 2014

@<TRIPOS>MOLECULE
1rvv_INI_14_ligand
   35    35     1     0     0
SMALL
NO_CHARGES


@<TRIPOS>ATOM
      1 N1         50.7720   18.9610   -5.3060 N.am      1 INI200      0.0000 
      2 C2         50.4040   19.0920   -3.9760 C.2       1 INI200      0.0000 
      3 O2         51.3060   19.4080   -3.1700 O.2       1 INI200      0.0000 
      4 N3         49.1040   18.8730   -3.6870 N.am      1 INI200      0.0000 
      5 C4         48.1340   18.5520   -4.6130 C.2       1 INI200      0.0000 
      6 O4         47.0040   18.3640   -4.1350 O.2       1 INI200      0.0000 
      7 C5         48.5590   18.4740   -6.0660 C.2       1 INI200      0.0000 
      8 N5         47.5200   18.2990   -7.0380 N.pl3     1 INI200      0.0000 
      9 O51        46.3730   18.3250   -6.7070 O.2       1 INI200      0.0000 
     10 O52        47.8380   18.1050   -8.1970 O.2       1 INI200      0.0000 
     11 C6         49.8990   18.8330   -6.3740 C.2       1 INI200      0.0000 
     12 N7         50.3790   19.1840   -7.6190 N.pl3     1 INI200      0.0000 
     13 C8         50.8660   17.9660   -8.3860 C.3       1 INI200      0.0000 
     14 C9         52.4490   17.7660   -8.3240 C.3       1 INI200      0.0000 
     15 O9         52.8010   17.7320   -6.9530 O.3       1 INI200      0.0000 
     16 C10        53.5600   18.6370   -9.0760 C.3       1 INI200      0.0000 
     17 O10        53.6320   19.9300   -8.5130 O.3       1 INI200      0.0000 
     18 C11        53.7530   18.6720  -10.7240 C.3       1 INI200      0.0000 
     19 O11        52.6650   17.7620  -10.9900 O.3       1 INI200      0.0000 
     20 C12        54.9250   18.0470  -11.6370 C.3       1 INI200      0.0000 
     21 O12        55.9840   17.7680  -10.7260 O.3       1 INI200      0.0000 
     22 H          51.8182   18.9585   -5.5259 H         1 INI200      0.0000 
     23 H          48.7908   18.9516   -2.6659 H         1 INI200      0.0000 
     24 H          50.4302   20.0460   -8.0117 H         1 INI200      0.0000 
     25 H          50.5908   18.0478   -9.4418 H         1 INI200      0.0000 
     26 H          50.4085   17.0569   -7.9841 H         1 INI200      0.0000 
     27 H          52.6229   16.6860   -8.6915 H         1 INI200      0.0000 
     28 H          54.5755   18.1169   -8.7300 H         1 INI200      0.0000 
     29 H          53.4482   19.6211  -11.0705 H         1 INI200      0.0000 
     30 H          55.1675   18.7968  -12.3595 H         1 INI200      0.0000 
     31 H          54.5098   17.1732  -12.0923 H         1 INI200      0.0000 
     32 H          52.1978   17.0449   -6.5480 H         1 INI200      0.0000 
     33 H          54.5978   20.1831   -8.5690 H         1 INI200      0.0000 
     34 H          52.9252   17.2863  -11.8302 H         1 INI200      0.0000 
     35 H          56.2184   18.6526  -10.3231 H         1 INI200      0.0000 
@<TRIPOS>BOND
     1    2    1 1    
     2   11    1 1    
     3   22    1 1    
     4    3    2 2    
     5    4    2 1    
     6    5    4 1    
     7   23    4 1    
     8    6    5 2    
     9    7    5 1    
    10    8    7 1    
    11   11    7 2    
    12    9    8 2    
    13   10    8 2    
    14   12   11 1    
    15   13   12 1    
    16   24   12 1    
    17   14   13 1    
    18   25   13 1    
    19   26   13 1    
    20   15   14 1    
    21   16   14 1    
    22   27   14 1    
    23   32   15 1    
    24   17   16 1    
    25   18   16 1    
    26   28   16 1    
    27   33   17 1    
    28   19   18 1    
    29   20   18 1    
    30   29   18 1    
    31   34   19 1    
    32   21   20 1    
    33   30   20 1    
    34   31   20 1    
    35   35   21 1    
@<TRIPOS>SUBSTRUCTURE
     1 INI200      1 GROUP   
@<TRIPOS>SET

