#    Name: 2ph8_35A_1_INTS_M
#    Modification time : Mon Mar 24 18:59:21 2014

@<TRIPOS>MOLECULE
2ph8_35A_1_INTS_M
   75     0    12     0     0
SMALL
NO_CHARGES


@<TRIPOS>ATOM
      1 CA         32.5100   38.3985   -0.9795 C.3       4 GLC5        0.0000 
      2 CA         32.9880   39.9990    0.0830 C.3      12 GLL5        0.0000 
      3 CA         32.0320   36.7980   -2.0420 C.3       8 GLP5        0.0000 
      4 CA         27.9640   39.3170   -0.4830 C.3       4 GLC5        0.0000 
      5 CA         28.7290   40.4780    0.6530 C.3      12 GLL5        0.0000 
      6 CA         27.1990   38.1560   -1.6190 C.3       8 GLP5        0.0000 
      7 CA         29.5660   41.1345   -1.0665 C.3       4 GLC5        0.0000 
      8 CA         30.4030   41.7910   -2.7860 C.3       8 GLP5        0.0000 
      9 CA         34.3955   37.7620    2.6485 C.3       4 GLC5        0.0000 
     10 CA         32.5530   38.3690    1.8910 C.3      12 GLL5        0.0000 
     11 CA         36.2380   37.1550    3.4060 C.3       8 GLP5        0.0000 
     12 CA         32.3290   40.9680    4.3205 C.3       4 GLC5        0.0000 
     13 CA         33.2740   40.8310    2.3430 C.3      12 GLL5        0.0000 
     14 CA         31.3840   41.1050    6.2980 C.3       8 GLP5        0.0000 
     15 CA         34.2095   45.5770    1.4980 C.3       4 GLC5        0.0000 
     16 CA         33.2830   44.4680    2.7270 C.3      12 GLL5        0.0000 
     17 CA         35.1360   46.6860    0.2690 C.3       8 GLP5        0.0000 
     18 CA         28.9320   42.1615   -1.1965 C.3       4 GLC5        0.0000 
     19 CA         27.4610   42.5320    0.3930 C.3      12 GLL5        0.0000 
     20 CA         26.8300   47.3720    2.5740 C.3       4 GLC5        0.0000 
     21 CA         25.9950   47.2230    0.5280 C.3      12 GLL5        0.0000 
     22 CA         27.6650   47.5210    4.6200 C.3       8 GLP5        0.0000 
     23 N          22.3670   45.9060    1.0185 N.am      2 SEC2        0.0000 
     24 N          23.8160   45.6250    0.9680 N.am     10 SEL2        0.0000 
     25 N          20.9180   46.1870    1.0690 N.am      6 SEP2        0.0000 
     26 N          25.5620   45.8150    3.9350 N.am      2 SEC2        0.0000 
     27 N          26.1120   45.5140    2.6530 N.am     10 SEL2        0.0000 
     28 N          25.0120   46.1160    5.2170 N.am      6 SEP2        0.0000 
     29 CA         33.2395   45.4385    5.7350 C.3       4 GLC5        0.0000 
     30 CA         31.6490   44.9280    4.6290 C.3      12 GLL5        0.0000 
     31 CA         34.8300   45.9490    6.8410 C.3       8 GLP5        0.0000 
     32 CA         31.5165   43.0165    5.4635 C.3       4 GLC5        0.0000 
     33 CA         29.8910   43.7745    4.7750 C.3       4 GLC5        0.0000 
     34 CA         28.1330   42.6210    4.9210 C.3       8 GLP5        0.0000 
     35 N          29.5640   37.4560   -1.1390 N.am      2 SEC2        0.0000 
     36 N          30.0050   38.0210    0.2570 N.am     10 SEL2        0.0000 
     37 N          29.1230   36.8910   -2.5350 N.am      6 SEP2        0.0000 
     38 CA         30.2445   35.8465    4.4385 C.3       4 GLC5        0.0000 
     39 CA         30.8590   36.6700    2.6030 C.3      12 GLL5        0.0000 
     40 CA         29.6300   35.0230    6.2740 C.3       8 GLP5        0.0000 
     41 CA         31.9655   35.0925    3.1625 C.3       4 GLC5        0.0000 
     42 CA         33.0720   33.5150    3.7220 C.3       8 GLP5        0.0000 
     43 OD1        31.8575   37.6225    4.4785 O.co2     3 ASC3        0.0000 
     44 OD1        30.8490   38.8790    3.6430 O.co2    11 ASL3        0.0000 
     45 OD1        32.8660   36.3660    5.3140 O.co2     7 ASP3        0.0000 
     46 OD1        31.8250   38.7065    4.5090 O.co2     3 ASC3        0.0000 
     47 OD1        32.8010   38.5340    5.3750 O.co2     7 ASP3        0.0000 
     48 OD1        30.1820   38.6035    5.1605 O.co2     3 ASC3        0.0000 
     49 OD1        29.5150   38.3280    6.6780 O.co2     7 ASP3        0.0000 
     50 OD1        29.5270   38.6420    4.2795 O.co2     3 ASC3        0.0000 
     51 OD1        28.2050   38.4050    4.9160 O.co2     7 ASP3        0.0000 
     52 O          31.8250   38.7065    4.5090 O.2       1 ALC1        0.0000 
     53 O          30.8490   38.8790    3.6430 O.2       9 ALL1        0.0000 
     54 O          32.8010   38.5340    5.3750 O.2       5 ALP1        0.0000 
     55 O          29.5270   38.6420    4.2795 O.2       1 ALC1        0.0000 
     56 O          28.2050   38.4050    4.9160 O.2       5 ALP1        0.0000 
     57 O          30.7725   40.3010    3.8675 O.2       1 ALC1        0.0000 
     58 O          30.6960   41.7230    4.0920 O.2       5 ALP1        0.0000 
     59 CA         27.1447   40.7865   -0.6750 C.3       4 GLC5        0.0000 
     60 CA         28.6480   41.9880    0.6210 C.3      12 GLL5        0.0000 
     61 CA         26.2350   39.3130   -1.8570 C.3       8 GLP5        0.0000 
     62 CA         28.6800   42.5373    2.8140 C.3       4 GLC5        0.0000 
     63 CA         29.8060   42.9190    0.7930 C.3      12 GLL5        0.0000 
     64 CA         31.7950   41.2345   -1.4725 C.3       4 GLC5        0.0000 
     65 CA         35.6238   43.9112    2.5522 C.3       4 GLC5        0.0000 
     66 CA         33.9680   43.1170    2.9620 C.3      12 GLL5        0.0000 
     67 CA         37.6220   44.0300    2.2600 C.3       8 GLP5        0.0000 
     68 CA         34.9221   41.5565    3.5714 C.3       4 GLC5        0.0000 
     69 CA         36.1360   40.8360    4.5920 C.3       8 GLP5        0.0000 
     70 CA         29.9095   42.5694   -1.0355 C.3       4 GLC5        0.0000 
     71 CA         29.6050   44.2420    0.7230 C.3      12 GLL5        0.0000 
     72 CA         26.5410   42.9275    2.3150 C.3       4 GLC5        0.0000 
     73 CA         25.6700   42.5830    4.2570 C.3       8 GLP5        0.0000 
     74 CA         32.2196   36.3515    1.0071 C.3       4 GLC5        0.0000 
     75 CA         33.0930   35.2340   -0.3490 C.3       8 GLP5        0.0000 
@<TRIPOS>BOND
@<TRIPOS>SUBSTRUCTURE
     1 ALC1       52 GROUP        1 X    ALC  0     ROOT ALC X 1
     2 SEC2       23 GROUP        1 X    SEC  0     **** SEC X 2
     3 ASC3       43 GROUP        1 X    ASC  0     **** ASC X 3
     4 GLC5        1 GROUP        1 X    GLC  0     **** GLC X 6
     5 ALP1       54 GROUP        1 Y    ALP  0     ROOT ALP Y 8
     6 SEP2       25 GROUP        1 Y    SEP  0     **** SEP Y 9
     7 ASP3       45 GROUP        1 Y    ASP  0     **** ASP Y 10
     8 GLP5        3 GROUP        1 Y    GLP  0     **** GLP Y 13
     9 ALL1       53 GROUP        1 Z    ALL  0     ROOT ALL Z 15
    10 SEL2       24 GROUP        1 Z    SEL  0     **** SEL Z 16
    11 ASL3       44 GROUP        1 Z    ASL  0     **** ASL Z 17
    12 GLL5        2 GROUP        1 Z    GLL  0     **** GLL Z 20
@<TRIPOS>SET

