#    Name: 2ph8_35A_1_ligand
#    Modification time : Mon Mar 24 18:59:21 2014

@<TRIPOS>MOLECULE
2ph8_35A_1_ligand
   66    68     1     0     0
SMALL
NO_CHARGES


@<TRIPOS>ATOM
      1 C          28.6480   41.9880    0.6210 C.ar      1 35A388      0.0000 
      2 C1         29.8060   42.9190    0.7930 C.ar      1 35A388      0.0000 
      3 C2         33.3860   41.3570   -0.4010 C.ar      1 35A388      0.0000 
      4 C3         32.9880   39.9990    0.0830 C.ar      1 35A388      0.0000 
      5 O          29.6800   39.8810    1.5750 O.3       1 35A388      0.0000 
      6 C4         28.7290   40.4780    0.6530 C.3       1 35A388      0.0000 
      7 C5         32.9350   39.7370    1.3860 C.ar      1 35A388      0.0000 
      8 C6         32.5530   38.3690    1.8910 C.3       1 35A388      0.0000 
      9 C7         31.1140   38.1670    2.3560 C.3       1 35A388      0.0000 
     10 C8         33.6880   42.3190    0.4660 C.ar      1 35A388      0.0000 
     11 C9         33.6230   42.0430    1.9360 C.ar      1 35A388      0.0000 
     12 C10        33.2740   40.8310    2.3430 C.ar      1 35A388      0.0000 
     13 C11        31.0910   45.6780    2.2900 C.3       1 35A388      0.0000 
     14 C12        31.8070   44.6160    3.1390 C.3       1 35A388      0.0000 
     15 C13        33.2830   44.4680    2.7270 C.3       1 35A388      0.0000 
     16 C14        33.9680   43.1170    2.9620 C.3       1 35A388      0.0000 
     17 C15        29.6050   44.2420    0.7230 C.ar      1 35A388      0.0000 
     18 C16        30.7470   45.2320    0.8780 C.3       1 35A388      0.0000 
     19 N          28.3820   44.7920    0.4910 N.ar      1 35A388      0.0000 
     20 C17        27.4610   42.5320    0.3930 C.ar      1 35A388      0.0000 
     21 C18        27.3630   44.0120    0.3530 C.ar      1 35A388      0.0000 
     22 N19        26.1320   44.5290    0.0920 N.pl3     1 35A388      0.0000 
     23 S          25.4760   45.6950    1.1270 S.o2      1 35A388      0.0000 
     24 C20        25.9950   47.2230    0.5280 C.3       1 35A388      0.0000 
     25 O21        23.8160   45.6250    0.9680 O.2       1 35A388      0.0000 
     26 O22        26.1120   45.5140    2.6530 O.2       1 35A388      0.0000 
     27 C23        25.6970   44.5070   -1.3130 C.3       1 35A388      0.0000 
     28 C24        31.6490   44.9280    4.6290 C.3       1 35A388      0.0000 
     29 C25        30.1830   38.6610    1.2800 C.2       1 35A388      0.0000 
     30 O26        30.0050   38.0210    0.2570 O.2       1 35A388      0.0000 
     31 C27        30.8590   36.6700    2.6030 C.3       1 35A388      0.0000 
     32 N28        30.8490   38.8790    3.6430 N.4       1 35A388      0.0000 
     33 H          30.7107   42.4827    0.9588 H         1 35A388      0.0000 
     34 H          33.4040   41.4739   -1.4207 H         1 35A388      0.0000 
     35 H          32.7686   39.3159   -0.6512 H         1 35A388      0.0000 
     36 H          28.9392   40.1256   -0.3971 H         1 35A388      0.0000 
     37 H          27.6931   40.0855    0.8622 H         1 35A388      0.0000 
     38 H          33.2355   38.0903    2.7351 H         1 35A388      0.0000 
     39 H          32.7717   37.6135    1.0927 H         1 35A388      0.0000 
     40 H          33.9712   43.2658    0.2055 H         1 35A388      0.0000 
     41 H          33.2134   40.5631    3.3467 H         1 35A388      0.0000 
     42 H          31.7308   46.5775    2.2405 H         1 35A388      0.0000 
     43 H          30.1642   45.9779    2.8116 H         1 35A388      0.0000 
     44 H          31.3089   43.6543    2.9453 H         1 35A388      0.0000 
     45 H          33.8737   45.2608    3.2528 H         1 35A388      0.0000 
     46 H          33.3700   44.7250    1.6406 H         1 35A388      0.0000 
     47 H          35.0622   43.2712    2.9670 H         1 35A388      0.0000 
     48 H          33.6959   42.7528    3.9692 H         1 35A388      0.0000 
     49 H          31.6637   44.7945    0.4099 H         1 35A388      0.0000 
     50 H          30.5182   46.1387    0.2644 H         1 35A388      0.0000 
     51 H          26.6016   42.0161    0.2414 H         1 35A388      0.0000 
     52 H          26.9921   47.2991    0.5189 H         1 35A388      0.0000 
     53 H          25.6804   47.3813   -0.4079 H         1 35A388      0.0000 
     54 H          25.6485   47.9775    1.0853 H         1 35A388      0.0000 
     55 H          26.3188   45.0227   -1.9024 H         1 35A388      0.0000 
     56 H          25.6556   43.5755   -1.6744 H         1 35A388      0.0000 
     57 H          24.7871   44.9061   -1.4264 H         1 35A388      0.0000 
     58 H          32.1090   44.2492    5.2014 H         1 35A388      0.0000 
     59 H          32.0348   45.8200    4.8646 H         1 35A388      0.0000 
     60 H          30.6881   44.9419    4.9057 H         1 35A388      0.0000 
     61 H          30.9973   36.1280    1.7741 H         1 35A388      0.0000 
     62 H          31.4714   36.2992    3.3012 H         1 35A388      0.0000 
     63 H          29.9237   36.4987    2.9126 H         1 35A388      0.0000 
     64 H          30.9978   39.8644    3.5598 H         1 35A388      0.0000 
     65 H          29.9065   38.7500    3.9516 H         1 35A388      0.0000 
     66 H          31.4449   38.5535    4.3771 H         1 35A388      0.0000 
@<TRIPOS>BOND
     1    2    1 ar   
     2    6    1 1    
     3   20    1 ar   
     4   17    2 ar   
     5   33    2 1    
     6    4    3 ar   
     7   10    3 ar   
     8   34    3 1    
     9    7    4 ar   
    10   35    4 1    
    11    6    5 1    
    12   29    5 1    
    13   36    6 1    
    14   37    6 1    
    15    8    7 1    
    16   12    7 ar   
    17    9    8 1    
    18   38    8 1    
    19   39    8 1    
    20   29    9 1    
    21   31    9 1    
    22   32    9 1    
    23   11   10 ar   
    24   40   10 1    
    25   12   11 ar   
    26   16   11 1    
    27   41   12 1    
    28   14   13 1    
    29   18   13 1    
    30   42   13 1    
    31   43   13 1    
    32   15   14 1    
    33   28   14 1    
    34   44   14 1    
    35   16   15 1    
    36   45   15 1    
    37   46   15 1    
    38   47   16 1    
    39   48   16 1    
    40   18   17 1    
    41   19   17 ar   
    42   49   18 1    
    43   50   18 1    
    44   21   19 ar   
    45   21   20 ar   
    46   51   20 1    
    47   22   21 1    
    48   23   22 1    
    49   27   22 1    
    50   24   23 1    
    51   25   23 2    
    52   26   23 2    
    53   52   24 1    
    54   53   24 1    
    55   54   24 1    
    56   55   27 1    
    57   56   27 1    
    58   57   27 1    
    59   58   28 1    
    60   59   28 1    
    61   60   28 1    
    62   30   29 2    
    63   61   31 1    
    64   62   31 1    
    65   63   31 1    
    66   64   32 1    
    67   65   32 1    
    68   66   32 1    
@<TRIPOS>SUBSTRUCTURE
     1 35A388      1 GROUP   
@<TRIPOS>SET

