#    Name: 1z5m_LI8_1_INTS_M
#    Modification time : Tue Mar 25 11:29:00 2014

@<TRIPOS>MOLECULE
1z5m_LI8_1_INTS_M
   82     0     9     0     0
SMALL
NO_CHARGES


@<TRIPOS>ATOM
      1 CA         -7.7295   41.2695   46.0740 C.3       3 GLC5        0.0000 
      2 CA         -7.3610   41.1770   44.0690 C.3       9 GLL5        0.0000 
      3 CA         -8.0980   41.3620   48.0790 C.3       6 GLP5        0.0000 
      4 CA         -7.8765   40.0295   42.5675 C.3       3 GLC5        0.0000 
      5 CA         -8.3920   38.8820   41.0660 C.3       6 GLP5        0.0000 
      6 CA         -7.1615   41.6805   42.3040 C.3       3 GLC5        0.0000 
      7 CA         -6.9620   42.1840   40.5390 C.3       6 GLP5        0.0000 
      8 N          -9.3135   39.9520   43.2585 N.am      2 SEC2        0.0000 
      9 N          -8.6250   41.1340   43.6130 N.am      8 SEL2        0.0000 
     10 N         -10.0020   38.7700   42.9040 N.am      5 SEP2        0.0000 
     11 CA        -10.5580   40.7635   43.8960 C.3       3 GLC5        0.0000 
     12 CA         -9.3230   42.2380   43.3290 C.3       9 GLL5        0.0000 
     13 CA        -11.7930   39.2890   44.4630 C.3       6 GLP5        0.0000 
     14 CA         -8.8575   40.5600   42.1975 C.3       3 GLC5        0.0000 
     15 CA         -9.3250   45.1915   45.0275 C.3       3 GLC5        0.0000 
     16 CA         -9.8060   44.9890   43.1270 C.3       9 GLL5        0.0000 
     17 CA         -8.8440   45.3940   46.9280 C.3       6 GLP5        0.0000 
     18 CA        -10.4475   43.8190   44.6545 C.3       3 GLC5        0.0000 
     19 CA        -11.0890   42.6490   46.1820 C.3       6 GLP5        0.0000 
     20 CA        -11.1025   44.5075   41.6185 C.3       3 GLC5        0.0000 
     21 CA        -12.3990   44.0260   40.1100 C.3       6 GLP5        0.0000 
     22 CA        -10.9860   46.1040   43.0900 C.3       3 GLC5        0.0000 
     23 CA        -12.1660   47.2190   43.0530 C.3       6 GLP5        0.0000 
     24 O          -6.9570   38.7725   43.7390 O.2       1 ALC1        0.0000 
     25 O          -6.7680   40.0080   44.3260 O.2       7 ALL1        0.0000 
     26 O          -7.1460   37.5370   43.1520 O.2       4 ALP1        0.0000 
     27 O          -2.6160   42.2895   46.3720 O.2       1 ALC1        0.0000 
     28 O          -2.2360   41.2050   45.5260 O.2       7 ALL1        0.0000 
     29 O          -2.9960   43.3740   47.2180 O.2       4 ALP1        0.0000 
     30 N          -1.2495   39.7400   42.9025 N.am      2 SEC2        0.0000 
     31 N          -0.6370   40.0570   44.4640 N.am      8 SEL2        0.0000 
     32 N          -1.8620   39.4230   41.3410 N.am      5 SEP2        0.0000 
     33 CA         -1.6790   44.7150   46.7890 C.3       3 GLC5        0.0000 
     34 CA         -0.3450   43.3050   45.9240 C.3       9 GLL5        0.0000 
     35 CA         -3.0130   46.1250   47.6540 C.3       6 GLP5        0.0000 
     36 CA         -0.5945   42.7365   43.7715 C.3       3 GLC5        0.0000 
     37 CA         -0.8440   42.1680   41.6190 C.3       6 GLP5        0.0000 
     38 CA          0.2155   42.0810   43.2360 C.3       3 GLC5        0.0000 
     39 CA          1.2750   41.9940   44.8530 C.3       9 GLL5        0.0000 
     40 CA         -5.6665   43.7205   46.4370 C.3       3 GLC5        0.0000 
     41 CA         -5.4410   44.8800   44.7410 C.3       9 GLL5        0.0000 
     42 CA         -5.8920   42.5610   48.1330 C.3       6 GLP5        0.0000 
     43 CA         -6.5985   45.6595   45.9935 C.3       3 GLC5        0.0000 
     44 CA         -7.7560   46.4390   47.2460 C.3       6 GLP5        0.0000 
     45 CA         -5.7395   45.7160   40.8640 C.3       3 GLC5        0.0000 
     46 CA         -4.4230   45.5140   42.4440 C.3       9 GLL5        0.0000 
     47 CA         -7.0560   45.9180   39.2840 C.3       6 GLP5        0.0000 
     48 CA         -2.4245   51.3165   44.9685 C.3       3 GLC5        0.0000 
     49 CA         -2.8220   50.0500   43.6160 C.3       9 GLL5        0.0000 
     50 CA         -2.0270   52.5830   46.3210 C.3       6 GLP5        0.0000 
     51 CA         -7.0455   50.4345   43.1435 C.3       3 GLC5        0.0000 
     52 CA         -5.0880   49.8530   42.5270 C.3       9 GLL5        0.0000 
     53 CA         -9.0030   51.0160   43.7600 C.3       6 GLP5        0.0000 
     54 CA         -5.3650   49.8840   40.4340 C.3       3 GLC5        0.0000 
     55 CA         -5.6420   49.9150   38.3410 C.3       6 GLP5        0.0000 
     56 N          -6.1445   51.4750   45.5610 N.am      2 SEC2        0.0000 
     57 N          -5.8370   50.0190   45.1910 N.am      8 SEL2        0.0000 
     58 N          -6.4520   52.9310   45.9310 N.am      5 SEP2        0.0000 
     59 O          -4.1570   48.4045   47.4375 O.2       1 ALC1        0.0000 
     60 O          -4.1800   48.9110   46.0750 O.2       7 ALL1        0.0000 
     61 O          -4.1340   47.8980   48.8000 O.2       4 ALP1        0.0000 
     62 CA         -8.4560   44.4600   45.3290 C.3       3 GLC5        0.0000 
     63 CA         -7.3900   43.5560   43.9640 C.3       9 GLL5        0.0000 
     64 CA         -9.8923   42.7655   44.8558 C.3       3 GLC5        0.0000 
     65 CA         -7.8288   42.5330   42.0343 C.3       3 GLC5        0.0000 
     66 CA         -5.8115   39.6547   47.0905 C.3       3 GLC5        0.0000 
     67 CA         -5.5720   39.7600   44.8740 C.3       9 GLL5        0.0000 
     68 CA         -6.1200   40.1840   49.0050 C.3       6 GLP5        0.0000 
     69 CA         -4.2880   39.1932   43.6787 C.3       3 GLC5        0.0000 
     70 CA         -3.5590   38.1730   42.4740 C.3       6 GLP5        0.0000 
     71 CA         -4.8718   41.5220   46.6665 C.3       3 GLC5        0.0000 
     72 CA         -4.4620   40.6670   44.8930 C.3       9 GLL5        0.0000 
     73 CA         -3.3750   38.9120   44.1388 C.3       3 GLC5        0.0000 
     74 CA         -3.2410   40.2990   45.5070 C.3       9 GLL5        0.0000 
     75 CA         -4.9015   39.3683   47.5490 C.3       3 GLC5        0.0000 
     76 CA         -3.1410   39.0030   46.1000 C.3       9 GLL5        0.0000 
     77 CA         -4.1943   38.2348   44.1280 C.3       3 GLC5        0.0000 
     78 CA         -4.2250   38.1020   46.0860 C.3       9 GLL5        0.0000 
     79 CA         -3.9438   45.4447   45.9420 C.3       3 GLC5        0.0000 
     80 CA         -4.3080   44.6490   43.7190 C.3       9 GLL5        0.0000 
     81 CA         -4.4437   43.7078   41.6557 C.3       3 GLC5        0.0000 
     82 CA         -4.5220   42.3340   40.2300 C.3       6 GLP5        0.0000 
@<TRIPOS>BOND
@<TRIPOS>SUBSTRUCTURE
     1 ALC1       24 GROUP        1 X    ALC  0     ROOT ALC X 1
     2 SEC2        8 GROUP        1 X    SEC  0     **** SEC X 2
     3 GLC5        1 GROUP        1 X    GLC  0     **** GLC X 6
     4 ALP1       26 GROUP        1 Y    ALP  0     ROOT ALP Y 8
     5 SEP2       10 GROUP        1 Y    SEP  0     **** SEP Y 9
     6 GLP5        3 GROUP        1 Y    GLP  0     **** GLP Y 13
     7 ALL1       25 GROUP        1 Z    ALL  0     ROOT ALL Z 15
     8 SEL2        9 GROUP        1 Z    SEL  0     **** SEL Z 16
     9 GLL5        2 GROUP        1 Z    GLL  0     **** GLL Z 20
@<TRIPOS>SET

