#    Name: 1z5m_LI8_1_ligand
#    Modification time : Tue Mar 25 11:29:00 2014

@<TRIPOS>MOLECULE
1z5m_LI8_1_ligand
   66    68     1     0     0
SMALL
NO_CHARGES


@<TRIPOS>ATOM
      1 C1         -8.7460   43.4960   43.4960 C.ar      1 LI8501      0.0000 
      2 C2         -7.3900   43.5560   43.9640 C.ar      1 LI8501      0.0000 
      3 N3         -6.7700   42.3830   44.2310 N.ar      1 LI8501      0.0000 
      4 C4         -7.3610   41.1770   44.0690 C.ar      1 LI8501      0.0000 
      5 N5         -8.6250   41.1340   43.6130 N.ar      1 LI8501      0.0000 
      6 C6         -9.3230   42.2380   43.3290 C.ar      1 LI8501      0.0000 
      7 BR7        -9.8060   44.9890   43.1270 Br        1 LI8501      0.0000 
      8 N8         -6.7680   40.0080   44.3260 N.pl3     1 LI8501      0.0000 
      9 C10        -5.5720   39.7600   44.8740 C.ar      1 LI8501      0.0000 
     10 C11        -4.4620   40.6670   44.8930 C.ar      1 LI8501      0.0000 
     11 C12        -3.2410   40.2990   45.5070 C.ar      1 LI8501      0.0000 
     12 C13        -3.1410   39.0030   46.1000 C.ar      1 LI8501      0.0000 
     13 C14        -4.2250   38.1020   46.0860 C.ar      1 LI8501      0.0000 
     14 C15        -5.4340   38.4910   45.4780 C.ar      1 LI8501      0.0000 
     15 N16        -2.2360   41.2050   45.5260 N.am      1 LI8501      0.0000 
     16 C18        -0.9940   41.0960   45.0570 C.2       1 LI8501      0.0000 
     17 O19        -0.6370   40.0570   44.4640 O.2       1 LI8501      0.0000 
     18 N20        -0.0910   42.0830   45.2450 N.am      1 LI8501      0.0000 
     19 C21        -0.3450   43.3050   45.9240 C.3       1 LI8501      0.0000 
     20 C22         0.9980   43.6460   46.6200 C.3       1 LI8501      0.0000 
     21 C23         2.0170   42.6180   46.0440 C.3       1 LI8501      0.0000 
     22 C24         1.2750   41.9940   44.8530 C.3       1 LI8501      0.0000 
     23 N25        -6.7370   44.7340   44.1560 N.pl3     1 LI8501      0.0000 
     24 C27        -5.4410   44.8800   44.7410 C.3       1 LI8501      0.0000 
     25 C28        -4.3080   44.6490   43.7190 C.3       1 LI8501      0.0000 
     26 N29        -4.6850   46.9010   42.7280 N.am      1 LI8501      0.0000 
     27 C31        -3.8420   47.7490   43.3860 C.2       1 LI8501      0.0000 
     28 O32        -2.7280   47.2800   43.8010 O.2       1 LI8501      0.0000 
     29 C33        -4.4230   45.5140   42.4440 C.3       1 LI8501      0.0000 
     30 C34        -4.1590   49.2330   43.6380 C.3       1 LI8501      0.0000 
     31 C35        -2.8220   50.0500   43.6160 C.3       1 LI8501      0.0000 
     32 C36        -5.0880   49.8530   42.5270 C.3       1 LI8501      0.0000 
     33 C37        -4.7640   49.4030   44.9870 C.2       1 LI8501      0.0000 
     34 O38        -5.8370   50.0190   45.1910 O.2       1 LI8501      0.0000 
     35 N39        -4.1800   48.9110   46.0750 N.am      1 LI8501      0.0000 
     36 H         -10.3004   42.1856   42.9812 H         1 LI8501      0.0000 
     37 H          -7.3541   39.1060   44.0431 H         1 LI8501      0.0000 
     38 H          -4.5611   41.5855   44.4573 H         1 LI8501      0.0000 
     39 H          -2.2545   38.7289   46.5452 H         1 LI8501      0.0000 
     40 H          -4.1343   37.1825   46.5100 H         1 LI8501      0.0000 
     41 H          -6.2321   37.8403   45.4728 H         1 LI8501      0.0000 
     42 H          -2.4900   42.1735   46.0012 H         1 LI8501      0.0000 
     43 H          -1.0908   43.2087   46.6904 H         1 LI8501      0.0000 
     44 H          -0.5768   44.1127   45.2556 H         1 LI8501      0.0000 
     45 H           0.9048   43.4998   47.6640 H         1 LI8501      0.0000 
     46 H           1.2986   44.6249   46.3528 H         1 LI8501      0.0000 
     47 H           2.2158   41.8808   46.7737 H         1 LI8501      0.0000 
     48 H           2.8755   43.1325   45.7069 H         1 LI8501      0.0000 
     49 H           1.4929   42.5782   43.9843 H         1 LI8501      0.0000 
     50 H           1.6082   40.9834   44.7481 H         1 LI8501      0.0000 
     51 H          -7.2099   45.6410   43.8532 H         1 LI8501      0.0000 
     52 H          -5.2838   44.1648   45.5688 H         1 LI8501      0.0000 
     53 H          -5.2960   45.8902   45.1652 H         1 LI8501      0.0000 
     54 H          -4.3037   43.5889   43.4277 H         1 LI8501      0.0000 
     55 H          -3.3443   44.8606   44.2039 H         1 LI8501      0.0000 
     56 H          -5.6230   47.2683   42.3838 H         1 LI8501      0.0000 
     57 H          -5.2228   45.0721   41.8199 H         1 LI8501      0.0000 
     58 H          -3.4804   45.3893   41.8779 H         1 LI8501      0.0000 
     59 H          -3.3079   48.4428   45.9327 H         1 LI8501      0.0000 
     60 H          -4.6655   49.0534   46.9376 H         1 LI8501      0.0000 
     61 H          -2.1822   49.7342   44.3166 H         1 LI8501      0.0000 
     62 H          -2.3541   49.9729   42.7356 H         1 LI8501      0.0000 
     63 H          -2.9791   51.0238   43.7801 H         1 LI8501      0.0000 
     64 H          -5.2845   50.8176   42.7030 H         1 LI8501      0.0000 
     65 H          -4.6692   49.7999   41.6205 H         1 LI8501      0.0000 
     66 H          -5.9674   49.3801   42.4718 H         1 LI8501      0.0000 
@<TRIPOS>BOND
     1    2    1 ar   
     2    6    1 ar   
     3    7    1 1    
     4    3    2 ar   
     5   23    2 1    
     6    4    3 ar   
     7    5    4 ar   
     8    8    4 1    
     9    6    5 ar   
    10   36    6 1    
    11    9    8 1    
    12   37    8 1    
    13   10    9 ar   
    14   14    9 ar   
    15   11   10 ar   
    16   38   10 1    
    17   12   11 ar   
    18   15   11 1    
    19   13   12 ar   
    20   39   12 1    
    21   14   13 ar   
    22   40   13 1    
    23   41   14 1    
    24   16   15 am   
    25   42   15 1    
    26   17   16 2    
    27   18   16 am   
    28   19   18 1    
    29   22   18 1    
    30   20   19 1    
    31   43   19 1    
    32   44   19 1    
    33   21   20 1    
    34   45   20 1    
    35   46   20 1    
    36   22   21 1    
    37   47   21 1    
    38   48   21 1    
    39   49   22 1    
    40   50   22 1    
    41   24   23 1    
    42   51   23 1    
    43   25   24 1    
    44   52   24 1    
    45   53   24 1    
    46   29   25 1    
    47   54   25 1    
    48   55   25 1    
    49   27   26 am   
    50   29   26 1    
    51   56   26 1    
    52   28   27 2    
    53   30   27 1    
    54   57   29 1    
    55   58   29 1    
    56   31   30 1    
    57   32   30 1    
    58   33   30 1    
    59   61   31 1    
    60   62   31 1    
    61   63   31 1    
    62   64   32 1    
    63   65   32 1    
    64   66   32 1    
    65   34   33 2    
    66   35   33 am   
    67   59   35 1    
    68   60   35 1    
@<TRIPOS>SUBSTRUCTURE
     1 LI8501      1 GROUP   
@<TRIPOS>SET

