#    Name: 2d1s_SLU_1_INTS_M
#    Modification time : Tue Mar 25 01:31:05 2014

@<TRIPOS>MOLECULE
2d1s_SLU_1_INTS_M
   91     0     9     0     0
SMALL
NO_CHARGES


@<TRIPOS>ATOM
      1 CA         16.1405   22.9645   11.4200 C.3       3 GLC5        0.0000 
      2 CA         16.0960   24.7100   10.1130 C.3       9 GLL5        0.0000 
      3 CA         16.1850   21.2190   12.7270 C.3       6 GLP5        0.0000 
      4 CA         13.1110   25.4950    9.3335 C.3       3 GLC5        0.0000 
      5 CA         14.8730   24.2820    9.6150 C.3       9 GLL5        0.0000 
      6 CA         11.3490   26.7080    9.0520 C.3       6 GLP5        0.0000 
      7 CA         14.3665   22.1460    7.1950 C.3       3 GLC5        0.0000 
      8 CA         15.0230   22.7950    8.8260 C.3       9 GLL5        0.0000 
      9 CA         13.7100   21.4970    5.5640 C.3       6 GLP5        0.0000 
     10 CA         20.1505   23.1805    7.4010 C.3       3 GLC5        0.0000 
     11 CA         19.3200   21.8660    9.0220 C.3       9 GLL5        0.0000 
     12 CA         20.9810   24.4950    5.7800 C.3       6 GLP5        0.0000 
     13 CA         21.4440   18.4070    9.7120 C.3       3 GLC5        0.0000 
     14 CA         20.6350   19.5690    8.1890 C.3       9 GLL5        0.0000 
     15 CA         22.2530   17.2450   11.2350 C.3       6 GLP5        0.0000 
     16 CA         21.6930   20.7630    9.4760 C.3       3 GLC5        0.0000 
     17 CA         22.7510   21.9570   10.7630 C.3       6 GLP5        0.0000 
     18 N          13.3295   28.0510    9.9985 N.am      2 SEC2        0.0000 
     19 N          13.9830   28.8340   11.1710 N.am      8 SEL2        0.0000 
     20 N          12.6760   27.2680    8.8260 N.am      5 SEP2        0.0000 
     21 N          12.7850   27.9415   11.2895 N.am      2 SEC2        0.0000 
     22 N          11.5870   27.0490   11.4080 N.am      5 SEP2        0.0000 
     23 N          14.0195   28.3710   14.4170 N.am      2 SEC2        0.0000 
     24 N          14.9450   27.8890   13.1410 N.am      8 SEL2        0.0000 
     25 N          13.0940   28.8530   15.6930 N.am      5 SEP2        0.0000 
     26 N          14.5995   26.6890   13.8250 N.am      2 SEC2        0.0000 
     27 N          14.2540   25.4890   14.5090 N.am      5 SEP2        0.0000 
     28 N          16.1950   28.7090   13.9630 N.am      2 SEC2        0.0000 
     29 N          17.4450   29.5290   14.7850 N.am      5 SEP2        0.0000 
     30 N          16.9305   29.2240   13.1935 N.am      2 SEC2        0.0000 
     31 N          16.4160   28.9190   11.6020 N.am      8 SEL2        0.0000 
     32 CA         15.7680   28.3880    8.8745 C.3       3 GLC5        0.0000 
     33 CA         16.8620   29.1850   10.2720 C.3       9 GLL5        0.0000 
     34 CA         14.6740   27.5910    7.4770 C.3       6 GLP5        0.0000 
     35 CA         18.8930   30.2220   12.1665 C.3       3 GLC5        0.0000 
     36 CA         18.2020   29.8640   10.3760 C.3       9 GLL5        0.0000 
     37 CA         19.5840   30.5800   13.9570 C.3       6 GLP5        0.0000 
     38 CA         17.1495   30.0840    7.8455 C.3       3 GLC5        0.0000 
     39 CA         18.8060   30.1750    9.0180 C.3       9 GLL5        0.0000 
     40 CA         15.4930   29.9930    6.6730 C.3       6 GLP5        0.0000 
     41 O          19.4435   32.3800    8.2060 O.2       1 ALC1        0.0000 
     42 O          18.2180   31.3540    8.4460 O.2       7 ALL1        0.0000 
     43 O          20.6690   33.4060    7.9660 O.2       4 ALP1        0.0000 
     44 O          18.9910   31.7020    7.4855 O.2       1 ALC1        0.0000 
     45 O          19.7640   32.0500    6.5250 O.2       4 ALP1        0.0000 
     46 O          20.5955   32.5030    8.9695 O.2       1 ALC1        0.0000 
     47 O          20.5220   31.6000    9.9730 O.2       7 ALL1        0.0000 
     48 CA         20.0180   29.9215   12.2100 C.3       3 GLC5        0.0000 
     49 CA         20.4520   29.2630   10.4630 C.3       9 GLL5        0.0000 
     50 CA         24.0725   27.6535   11.1795 C.3       3 GLC5        0.0000 
     51 CA         24.4860   28.1730    9.2330 C.3       9 GLL5        0.0000 
     52 CA         23.6590   27.1340   13.1260 C.3       6 GLP5        0.0000 
     53 CA         25.8125   28.1160   10.5440 C.3       3 GLC5        0.0000 
     54 CA         27.1390   28.0590   11.8550 C.3       6 GLP5        0.0000 
     55 CA         24.3955   29.3160    7.6780 C.3       3 GLC5        0.0000 
     56 CA         24.3050   30.4590    6.1230 C.3       6 GLP5        0.0000 
     57 CA         21.6715   25.4820    7.4380 C.3       3 GLC5        0.0000 
     58 CA         22.3620   26.4690    9.0960 C.3       9 GLL5        0.0000 
     59 CA         22.7930   25.7560    6.8675 C.3       3 GLC5        0.0000 
     60 CA         23.6740   26.0260    8.6530 C.3       9 GLL5        0.0000 
     61 CA         21.9120   25.4860    5.0820 C.3       6 GLP5        0.0000 
     62 O          23.0465   23.6805    7.8280 O.2       1 ALC1        0.0000 
     63 O          23.8740   24.7800    8.1750 O.2       7 ALL1        0.0000 
     64 O          22.2190   22.5810    7.4810 O.2       4 ALP1        0.0000 
     65 N          21.2960   24.8810   10.2810 N.am      2 SEC2        0.0000 
     66 N          21.1540   25.9020    9.1210 N.am      8 SEL2        0.0000 
     67 N          21.4380   23.8600   11.4410 N.am      5 SEP2        0.0000 
     68 CA         15.0792   26.0435    8.6705 C.3       3 GLC5        0.0000 
     69 CA         13.2735   22.6923   10.3513 C.3       3 GLC5        0.0000 
     70 CA         11.5990   21.8460   11.4820 C.3       6 GLP5        0.0000 
     71 CA         15.0350   22.0142   10.5577 C.3       3 GLC5        0.0000 
     72 CA         15.1220   20.4900   11.8950 C.3       6 GLP5        0.0000 
     73 CA         21.0725   21.5282    9.7305 C.3       3 GLC5        0.0000 
     74 CA         19.2328   20.4520    6.4367 C.3       3 GLC5        0.0000 
     75 CA         18.4140   20.9530    4.5920 C.3       6 GLP5        0.0000 
     76 CA         20.0820   16.6050    8.6887 C.3       3 GLC5        0.0000 
     77 CA         20.5410   18.2770    7.6360 C.3       9 GLL5        0.0000 
     78 CA         20.2370   15.2010    9.9270 C.3       6 GLP5        0.0000 
     79 CA         21.3071   20.0320    6.8429 C.3       3 GLC5        0.0000 
     80 CA         22.3180   20.9500    5.7270 C.3       6 GLP5        0.0000 
     81 CA         17.7944   17.3203    8.5953 C.3       3 GLC5        0.0000 
     82 CA         18.1650   19.7370    7.9920 C.3       9 GLL5        0.0000 
     83 CA         16.8570   16.2210    9.6980 C.3       6 GLP5        0.0000 
     84 CA         18.5729   19.6863    6.0422 C.3       3 GLC5        0.0000 
     85 CA         18.1360   18.4590    7.4480 C.3       9 GLL5        0.0000 
     86 CA         20.1705   29.6640    7.4703 C.3       3 GLC5        0.0000 
     87 CA         20.7990   29.0830    5.7430 C.3       6 GLP5        0.0000 
     88 CA         21.5400   25.9580   10.8575 C.3       3 GLC5        0.0000 
     89 CA         22.2440   27.8230    9.5880 C.3       9 GLL5        0.0000 
     90 CA         20.7770   24.7700   12.3730 C.3       6 GLP5        0.0000 
     91 CA         22.9810   27.1400   11.2340 C.3       3 GLC5        0.0000 
@<TRIPOS>BOND
@<TRIPOS>SUBSTRUCTURE
     1 ALC1       41 GROUP        1 X    ALC  0     ROOT ALC X 1
     2 SEC2       18 GROUP        1 X    SEC  0     **** SEC X 2
     3 GLC5        1 GROUP        1 X    GLC  0     **** GLC X 6
     4 ALP1       43 GROUP        1 Y    ALP  0     ROOT ALP Y 8
     5 SEP2       20 GROUP        1 Y    SEP  0     **** SEP Y 9
     6 GLP5        3 GROUP        1 Y    GLP  0     **** GLP Y 13
     7 ALL1       42 GROUP        1 Z    ALL  0     ROOT ALL Z 15
     8 SEL2       19 GROUP        1 Z    SEL  0     **** SEL Z 16
     9 GLL5        2 GROUP        1 Z    GLL  0     **** GLL Z 20
@<TRIPOS>SET

