#    Name: 2d1s_SLU_1_ligand
#    Modification time : Tue Mar 25 01:31:05 2014

@<TRIPOS>MOLECULE
2d1s_SLU_1_ligand
   58    63     1     0     0
SMALL
NO_CHARGES


@<TRIPOS>ATOM
      1 O39        17.3250   26.1770   11.4500 O.2       1 SLU2001     0.0000 
      2 C16        16.2640   25.9810   10.8560 C.2       1 SLU2001     0.0000 
      3 C14        16.0960   24.7100   10.1130 C.2       1 SLU2001     0.0000 
      4 N15        17.1220   23.8800    9.8590 N.2       1 SLU2001     0.0000 
      5 C13        14.8730   24.2820    9.6150 C.2       1 SLU2001     0.0000 
      6 S12        15.0230   22.7950    8.8260 S.3       1 SLU2001     0.0000 
      7 C11        16.6870   22.8350    9.1760 C.2       1 SLU2001     0.0000 
      8 C8         17.6410   21.7650    8.7200 C.2       1 SLU2001     0.0000 
      9 S9         19.3200   21.8660    9.0220 S.3       1 SLU2001     0.0000 
     10 C4         19.4680   20.3330    8.3740 C.ar      1 SLU2001     0.0000 
     11 C5         20.6350   19.5690    8.1890 C.ar      1 SLU2001     0.0000 
     12 C6         20.5410   18.2770    7.6360 C.ar      1 SLU2001     0.0000 
     13 O10        21.6700   17.5280    7.4510 O.3       1 SLU2001     0.0000 
     14 C3         18.1650   19.7370    7.9920 C.ar      1 SLU2001     0.0000 
     15 N7         17.1610   20.5970    8.2830 N.2       1 SLU2001     0.0000 
     16 C2         18.1360   18.4590    7.4480 C.ar      1 SLU2001     0.0000 
     17 C1         19.3130   17.7410    7.2650 C.ar      1 SLU2001     0.0000 
     18 N40        15.1630   26.7140   10.9420 N.am      1 SLU2001     0.0000 
     19 S17        15.0680   28.0750   11.7510 S.o2      1 SLU2001     0.0000 
     20 O18        13.9830   28.8340   11.1710 O.2       1 SLU2001     0.0000 
     21 O19        14.9450   27.8890   13.1410 O.2       1 SLU2001     0.0000 
     22 O20        16.4160   28.9190   11.6020 O.3       1 SLU2001     0.0000 
     23 C21        16.8620   29.1850   10.2720 C.3       1 SLU2001     0.0000 
     24 C22        18.2020   29.8640   10.3760 C.3       1 SLU2001     0.0000 
     25 C23        18.8060   30.1750    9.0180 C.3       1 SLU2001     0.0000 
     26 O27        18.2180   31.3540    8.4460 O.3       1 SLU2001     0.0000 
     27 C24        20.2780   30.3150    9.3770 C.3       1 SLU2001     0.0000 
     28 O28        20.5220   31.6000    9.9730 O.3       1 SLU2001     0.0000 
     29 C25        20.4520   29.2630   10.4630 C.3       1 SLU2001     0.0000 
     30 O26        19.1600   29.0000   11.0000 O.3       1 SLU2001     0.0000 
     31 N35        20.9690   27.9850    9.8960 N.pl3     1 SLU2001     0.0000 
     32 C32        22.2440   27.8230    9.5880 C.ar      1 SLU2001     0.0000 
     33 N31        23.3060   28.6340    9.6400 N.ar      1 SLU2001     0.0000 
     34 C30        24.4860   28.1730    9.2330 C.ar      1 SLU2001     0.0000 
     35 N29        24.6670   26.9290    8.7480 N.ar      1 SLU2001     0.0000 
     36 C33        22.3620   26.4690    9.0960 C.ar      1 SLU2001     0.0000 
     37 C34        23.6740   26.0260    8.6530 C.ar      1 SLU2001     0.0000 
     38 N38        23.8740   24.7800    8.1750 N.pl3     1 SLU2001     0.0000 
     39 N37        21.1540   25.9020    9.1210 N.2       1 SLU2001     0.0000 
     40 C36        20.3180   26.8220    9.6290 C.2       1 SLU2001     0.0000 
     41 H          14.0219   24.6364    9.6286 H         1 SLU2001     0.0000 
     42 H          21.5441   19.9480    8.4536 H         1 SLU2001     0.0000 
     43 H          17.2331   18.0379    7.1769 H         1 SLU2001     0.0000 
     44 H          19.2739   16.7954    6.8472 H         1 SLU2001     0.0000 
     45 H          14.2559   26.4729   10.4909 H         1 SLU2001     0.0000 
     46 H          16.1789   29.8473    9.7433 H         1 SLU2001     0.0000 
     47 H          16.9824   28.2686    9.6970 H         1 SLU2001     0.0000 
     48 H          18.1141   30.7811   10.9219 H         1 SLU2001     0.0000 
     49 H          18.6956   29.3008    8.4148 H         1 SLU2001     0.0000 
     50 H          20.8704   30.0851    8.5696 H         1 SLU2001     0.0000 
     51 H          21.1134   29.6327   11.2050 H         1 SLU2001     0.0000 
     52 H          25.3368   28.8160    9.2908 H         1 SLU2001     0.0000 
     53 H          23.0711   24.1844    8.1493 H         1 SLU2001     0.0000 
     54 H          24.8073   24.5630    7.8890 H         1 SLU2001     0.0000 
     55 H          19.3583   26.6814    9.7903 H         1 SLU2001     0.0000 
     56 H          21.3481   16.6688    7.0532 H         1 SLU2001     0.0000 
     57 H          18.9884   31.8757    8.0797 H         1 SLU2001     0.0000 
     58 H          20.6055   32.2312    9.2019 H         1 SLU2001     0.0000 
@<TRIPOS>BOND
     1    2    1 2    
     2    3    2 1    
     3   18    2 am   
     4    4    3 1    
     5    5    3 2    
     6    7    4 2    
     7    6    5 1    
     8   41    5 1    
     9    7    6 1    
    10    8    7 1    
    11    9    8 1    
    12   15    8 2    
    13   10    9 1    
    14   11   10 ar   
    15   14   10 ar   
    16   12   11 ar   
    17   42   11 1    
    18   13   12 1    
    19   17   12 ar   
    20   56   13 1    
    21   15   14 1    
    22   16   14 ar   
    23   17   16 ar   
    24   43   16 1    
    25   44   17 1    
    26   19   18 1    
    27   45   18 1    
    28   20   19 2    
    29   21   19 2    
    30   22   19 1    
    31   23   22 1    
    32   24   23 1    
    33   46   23 1    
    34   47   23 1    
    35   25   24 1    
    36   30   24 1    
    37   48   24 1    
    38   26   25 1    
    39   27   25 1    
    40   49   25 1    
    41   57   26 1    
    42   28   27 1    
    43   29   27 1    
    44   50   27 1    
    45   58   28 1    
    46   30   29 1    
    47   31   29 1    
    48   51   29 1    
    49   32   31 1    
    50   40   31 1    
    51   33   32 ar   
    52   36   32 ar   
    53   34   33 ar   
    54   35   34 ar   
    55   52   34 1    
    56   37   35 ar   
    57   37   36 ar   
    58   39   36 1    
    59   38   37 1    
    60   53   38 1    
    61   54   38 1    
    62   40   39 2    
    63   55   40 1    
@<TRIPOS>SUBSTRUCTURE
     1 SLU2001     1 GROUP   
@<TRIPOS>SET

