#    Name: 3SDG_1_CAVITY_N1_6.mol2
#    Modification time : Mon Mar 10 23:31:15 2014

@<TRIPOS>MOLECULE
3SDG_1_CAVITY_N1_6.mol2
   60     0     5     0     0
SMALL
NO_CHARGES


@<TRIPOS>ATOM
      1 CA          0.7380   25.3282    7.8937 C.3       4 GLY6        0.0000 
      2 OG          2.0987   26.8637    9.4876 O.2       1 SER1        0.0000 
      3 CA          2.6847   25.8332    8.5685 C.3       4 GLY6        0.0000 
      4 CA          1.7885   26.3089    7.4638 C.3       4 GLY6        0.0000 
      5 CA          2.3744   25.2784    6.5447 C.3       4 GLY6        0.0000 
      6 CA          0.8922   26.7846    6.3590 C.3       4 GLY6        0.0000 
      7 OG          2.8389   27.2896    7.0339 O.2       1 SER1        0.0000 
      8 CA          3.4249   26.2591    6.1148 C.3       4 GLY6        0.0000 
      9 CA          4.0108   25.2286    5.1957 C.3       4 GLY6        0.0000 
     10 OG          1.3568   28.7958    6.8483 O.2       1 SER1        0.0000 
     11 OG          1.9427   27.7653    5.9292 O.2       1 SER1        0.0000 
     12 CA          2.5286   26.7348    5.0101 C.3       4 GLY6        0.0000 
     13 N           0.4606   29.2716    5.7435 N.2       2 ALA2        0.0000 
     14 N           1.0465   28.2411    4.8244 N.2       2 ALA2        0.0000 
     15 CA          1.6324   27.2106    3.9053 C.3       4 GLY6        0.0000 
     16 CA          0.7362   27.6863    2.8006 C.3       4 GLY6        0.0000 
     17 CZ          5.9575   25.7335    5.8706 C.ar      3 PHE5        0.0000 
     18 CA          4.4753   27.2397    5.6850 C.3       4 GLY6        0.0000 
     19 CZ          5.0613   26.2092    4.7659 C.ar      3 PHE5        0.0000 
     20 OG          2.9932   28.7460    5.4993 O.2       1 SER1        0.0000 
     21 CA          3.5791   27.7155    4.5802 C.3       4 GLY6        0.0000 
     22 CA          4.1650   26.6850    3.6611 C.3       4 GLY6        0.0000 
     23 N           4.7510   25.6545    2.7420 N.2       2 ALA2        0.0000 
     24 N           2.0970   29.2217    4.3946 N.2       2 ALA2        0.0000 
     25 CA          2.6829   28.1912    3.4755 C.3       4 GLY6        0.0000 
     26 N           3.2688   27.1607    2.5564 N.2       2 ALA2        0.0000 
     27 N           1.2008   29.6975    3.2898 N.2       2 ALA2        0.0000 
     28 CA          1.7867   28.6670    2.3707 C.3       4 GLY6        0.0000 
     29 CA          0.3046   30.1732    2.1851 C.3       4 GLY6        0.0000 
     30 CA          0.8905   29.1427    1.2660 C.3       4 GLY6        0.0000 
     31 CZ          7.0079   26.7142    5.4407 C.ar      3 PHE5        0.0000 
     32 CZ          5.5258   28.2204    5.2551 C.ar      3 PHE5        0.0000 
     33 CZ          6.1117   27.1899    4.3360 C.ar      3 PHE5        0.0000 
     34 CZ          6.6977   26.1594    3.4169 C.ar      3 PHE5        0.0000 
     35 CA          4.0437   29.7267    5.0694 C.3       4 GLY6        0.0000 
     36 DU          4.6296   28.6962    4.1503 H         5 CUB7        0.0000 
     37 N           5.2155   27.6656    3.2312 N.2       2 ALA2        0.0000 
     38 N           5.8014   26.6351    2.3121 N.2       2 ALA2        0.0000 
     39 CA          3.7334   29.1719    3.0456 C.3       4 GLY6        0.0000 
     40 N           4.3193   28.1414    2.1265 N.2       2 ALA2        0.0000 
     41 CZ          8.0584   27.6948    5.0109 C.ar      3 PHE5        0.0000 
     42 CZ          8.6443   26.6643    4.0918 C.ar      3 PHE5        0.0000 
     43 CZ          9.2303   25.6338    3.1727 C.ar      3 PHE5        0.0000 
     44 CA          6.5763   29.2011    4.8252 C.3       4 GLY6        0.0000 
     45 CA          7.1622   28.1706    3.9061 C.3       4 GLY6        0.0000 
     46 CA          7.7481   27.1401    2.9870 C.3       4 GLY6        0.0000 
     47 CZ          8.3341   26.1096    2.0679 C.ar      3 PHE5        0.0000 
     48 CA          5.6801   29.6768    3.7205 C.3       4 GLY6        0.0000 
     49 CA          6.2660   28.6463    2.8014 C.3       4 GLY6        0.0000 
     50 CA          9.1089   28.6755    4.5810 C.3       4 GLY6        0.0000 
     51 OG          9.6948   27.6450    3.6619 O.2       1 SER1        0.0000 
     52 CZ         10.2807   26.6145    2.7428 C.ar      3 PHE5        0.0000 
     53 CA          8.2127   29.1512    3.4763 C.3       4 GLY6        0.0000 
     54 CA          8.7986   28.1207    2.5572 C.3       4 GLY6        0.0000 
     55 O           9.3845   27.0902    1.6381 O.2       2 ALA2        0.0000 
     56 OG         11.6415   28.1499    4.3368 O.2       1 SER1        0.0000 
     57 CZ         10.1594   29.6562    4.1511 C.ar      3 PHE5        0.0000 
     58 CZ         10.7453   28.6257    3.2320 C.ar      3 PHE5        0.0000 
     59 CZ         11.3312   27.5952    2.3129 C.ar      3 PHE5        0.0000 
     60 O          10.4350   28.0709    1.2082 O.2       2 ALA2        0.0000 
@<TRIPOS>BOND
@<TRIPOS>SUBSTRUCTURE
     1 SER1        2 GROUP   
     2 ALA2       13 GROUP   
     3 PHE5       17 GROUP   
     4 GLY6        1 GROUP   
     5 CUB7       36 GROUP   
@<TRIPOS>SET

