#    Name: 3sdg_3SE_1_INTS_M
#    Modification time : Tue Mar 25 12:25:38 2014

@<TRIPOS>MOLECULE
3sdg_3SE_1_INTS_M
   65     0     6     0     0
SMALL
NO_CHARGES


@<TRIPOS>ATOM
      1 N          14.1850   27.2890    0.3600 N.am      1 SEC2        0.0000 
      2 N          14.0650   28.5710    0.9380 N.am      5 SEL2        0.0000 
      3 N          14.3050   26.0070   -0.2180 N.am      3 SEP2        0.0000 
      4 CA         14.3050   31.4240    1.9895 C.3       2 GLC5        0.0000 
      5 CA         14.8510   29.7920    2.8360 C.3       6 GLL5        0.0000 
      6 CA         13.7590   33.0560    1.1430 C.3       4 GLP5        0.0000 
      7 CA         16.6515   27.8125    3.9400 C.3       2 GLC5        0.0000 
      8 CA         16.3980   29.5300    2.5510 C.3       6 GLL5        0.0000 
      9 CA         16.9050   26.0950    5.3290 C.3       4 GLP5        0.0000 
     10 CA         16.5265   27.9950    1.1500 C.3       2 GLC5        0.0000 
     11 CA         16.6550   26.4600   -0.2510 C.3       4 GLP5        0.0000 
     12 CA         14.7675   31.1775   -0.2585 C.3       2 GLC5        0.0000 
     13 CA         16.1720   30.4340    0.5310 C.3       6 GLL5        0.0000 
     14 CA         13.3630   31.9210   -1.0480 C.3       4 GLP5        0.0000 
     15 CA         16.4135   28.4470    0.1400 C.3       2 GLC5        0.0000 
     16 CA         16.2310   30.0825   -1.2365 C.3       2 GLC5        0.0000 
     17 CA         16.2900   29.7310   -3.0040 C.3       4 GLP5        0.0000 
     18 CA         19.2795   31.8900    1.8235 C.3       2 GLC5        0.0000 
     19 CA         18.1230   30.4250    1.1110 C.3       6 GLL5        0.0000 
     20 CA         20.4360   33.3550    2.5360 C.3       4 GLP5        0.0000 
     21 CA         17.3890   28.4425    0.4300 C.3       2 GLC5        0.0000 
     22 CA         19.2505   31.8760   -0.0885 C.3       2 GLC5        0.0000 
     23 CA         20.3780   33.3270   -1.2880 C.3       4 GLP5        0.0000 
     24 CA         16.4450   33.6460    1.0850 C.3       2 GLC5        0.0000 
     25 CA         16.8250   31.8100    2.1510 C.3       6 GLL5        0.0000 
     26 CA         16.0650   35.4820    0.0190 C.3       4 GLP5        0.0000 
     27 CA         18.6305   32.5825    2.3435 C.3       2 GLC5        0.0000 
     28 CA         16.6905   32.9325    3.2990 C.3       2 GLC5        0.0000 
     29 CA         16.5560   34.0550    4.4470 C.3       4 GLP5        0.0000 
     30 CA         10.1360   30.6150    5.3020 C.3       2 GLC5        0.0000 
     31 CA         11.0010   29.0190    4.5730 C.3       6 GLL5        0.0000 
     32 CA          9.2710   32.2110    6.0310 C.3       4 GLP5        0.0000 
     33 CA          8.6055   28.4455    1.4440 C.3       2 GLC5        0.0000 
     34 CA         10.3440   27.7780    2.5100 C.3       6 GLL5        0.0000 
     35 CA          6.8670   29.1130    0.3780 C.3       4 GLP5        0.0000 
     36 CA         10.8655   29.8540    2.3740 C.3       2 GLC5        0.0000 
     37 CA         11.3870   31.9300    2.2380 C.3       4 GLP5        0.0000 
     38 CA         11.7975   29.6410    1.4620 C.3       2 GLC5        0.0000 
     39 CA         11.7700   27.6770    2.0200 C.3       6 GLL5        0.0000 
     40 CA         11.8250   31.6050    0.9040 C.3       4 GLP5        0.0000 
     41 CA          4.8355   26.8225    7.0210 C.3       2 GLC5        0.0000 
     42 CA          4.2780   27.6730    5.2680 C.3       6 GLL5        0.0000 
     43 CA          5.3930   25.9720    8.7740 C.3       4 GLP5        0.0000 
     44 CA          3.9765   29.7085    2.0425 C.3       2 GLC5        0.0000 
     45 CA          3.7960   27.9580    2.8600 C.3       6 GLL5        0.0000 
     46 CA          4.1570   31.4590    1.2250 C.3       4 GLP5        0.0000 
     47 CA          5.3315   28.5355    1.6190 C.3       2 GLC5        0.0000 
     48 CA         15.3178   32.1283    1.5107 C.3       2 GLC5        0.0000 
     49 CA         16.9280   30.5910    1.6060 C.3       6 GLL5        0.0000 
     50 CA         16.1196   31.5515    3.6704 C.3       2 GLC5        0.0000 
     51 CA         15.9630   32.9770    5.1910 C.3       4 GLP5        0.0000 
     52 CA         19.0243   29.5895    0.6422 C.3       2 GLC5        0.0000 
     53 CA         20.5230   28.6710   -0.0740 C.3       4 GLP5        0.0000 
     54 CA         18.1795   30.9092    3.4979 C.3       2 GLC5        0.0000 
     55 CA         19.2500   30.7920    5.1230 C.3       4 GLP5        0.0000 
     56 CA         11.5582   30.4985    3.2840 C.3       2 GLC5        0.0000 
     57 CA         12.4580   29.1150    4.0870 C.3       6 GLL5        0.0000 
     58 CA         12.8948   30.0100    5.6730 C.3       2 GLC5        0.0000 
     59 CA         14.0600   30.9530    7.0160 C.3       4 GLP5        0.0000 
     60 CA         10.7815   26.7218    0.6330 C.3       2 GLC5        0.0000 
     61 CA         10.5060   25.7160   -0.9990 C.3       4 GLP5        0.0000 
     62 CA         11.7699   26.0869    3.0456 C.3       2 GLC5        0.0000 
     63 CA         12.4650   24.4650    3.4440 C.3       4 GLP5        0.0000 
     64 CA          2.6218   26.4005    3.0765 C.3       2 GLC5        0.0000 
     65 CA          1.8210   24.9050    2.7050 C.3       4 GLP5        0.0000 
@<TRIPOS>BOND
@<TRIPOS>SUBSTRUCTURE
     1 SEC2        1 GROUP        1 X    SEC  0     ROOT SEC X 2
     2 GLC5        4 GROUP        1 X    GLC  0     **** GLC X 6
     3 SEP2        3 GROUP        1 Y    SEP  0     ROOT SEP Y 9
     4 GLP5        6 GROUP        1 Y    GLP  0     **** GLP Y 13
     5 SEL2        2 GROUP        1 Z    SEL  0     ROOT SEL Z 16
     6 GLL5        5 GROUP        1 Z    GLL  0     **** GLL Z 20
@<TRIPOS>SET

