#    Name: 3sdg_3SE_1_ligand
#    Modification time : Tue Mar 25 12:25:38 2014

@<TRIPOS>MOLECULE
3sdg_3SE_1_ligand
   39    41     1     0     0
SMALL
NO_CHARGES


@<TRIPOS>ATOM
      1 O          14.0650   28.5710    0.9380 O.2       1 3SE217      0.0000 
      2 C3         13.8150   28.9810    2.0640 C.2       1 3SE217      0.0000 
      3 C2         14.8510   29.7920    2.8360 C.3       1 3SE217      0.0000 
      4 C1         16.3980   29.5300    2.5510 C.3       1 3SE217      0.0000 
      5 C          16.9280   30.5910    1.6060 C.3       1 3SE217      0.0000 
      6 F2         16.1720   30.4340    0.5310 F         1 3SE217      0.0000 
      7 F1         18.1230   30.4250    1.1110 F         1 3SE217      0.0000 
      8 F          16.8250   31.8100    2.1510 F         1 3SE217      0.0000 
      9 N          12.6610   28.6460    2.6630 N.am      1 3SE217      0.0000 
     10 C8         12.4580   29.1150    4.0870 C.3       1 3SE217      0.0000 
     11 C7         11.0010   29.0190    4.5730 C.3       1 3SE217      0.0000 
     12 C6         10.4150   27.7030    4.0390 C.3       1 3SE217      0.0000 
     13 C5         10.3440   27.7780    2.5100 C.3       1 3SE217      0.0000 
     14 C4         11.7700   27.6770    2.0200 C.3       1 3SE217      0.0000 
     15 C9          9.0500   27.6030    4.4950 C.2       1 3SE217      0.0000 
     16 N2          7.9160   27.7350    3.7770 N.2       1 3SE217      0.0000 
     17 C10         6.9550   27.6500    4.6620 C.2       1 3SE217      0.0000 
     18 N1          7.4170   27.4490    5.8890 N.2       1 3SE217      0.0000 
     19 O1          8.8120   27.4440    5.7070 O.3       1 3SE217      0.0000 
     20 C11         5.6070   27.7120    4.2260 C.2       1 3SE217      0.0000 
     21 S           4.2780   27.6730    5.2680 S.3       1 3SE217      0.0000 
     22 C13         3.0490   27.8340    4.0360 C.2       1 3SE217      0.0000 
     23 C12         3.7960   27.9580    2.8600 C.2       1 3SE217      0.0000 
     24 N3          5.1810   27.8860    2.9690 N.2       1 3SE217      0.0000 
     25 H          14.6960   29.6446    3.9332 H         1 3SE217      0.0000 
     26 H          14.6720   30.8822    2.6653 H         1 3SE217      0.0000 
     27 H          16.4866   28.5496    2.1117 H         1 3SE217      0.0000 
     28 H          16.9144   29.5692    3.4964 H         1 3SE217      0.0000 
     29 H          12.7877   30.1630    4.1789 H         1 3SE217      0.0000 
     30 H          13.0912   28.5181    4.7640 H         1 3SE217      0.0000 
     31 H          10.4393   29.8463    4.1820 H         1 3SE217      0.0000 
     32 H          10.9829   29.0100    5.6465 H         1 3SE217      0.0000 
     33 H          11.0009   26.8975    4.3304 H         1 3SE217      0.0000 
     34 H           9.9204   28.7178    2.2213 H         1 3SE217      0.0000 
     35 H           9.7682   26.9541    2.1418 H         1 3SE217      0.0000 
     36 H          12.1297   26.6469    2.2012 H         1 3SE217      0.0000 
     37 H          11.7739   27.8219    0.9235 H         1 3SE217      0.0000 
     38 H           2.2366   27.8159    4.3024 H         1 3SE217      0.0000 
     39 H           3.3441   28.0944    1.9681 H         1 3SE217      0.0000 
@<TRIPOS>BOND
     1    2    1 2    
     2    3    2 1    
     3    9    2 am   
     4    4    3 1    
     5   25    3 1    
     6   26    3 1    
     7    5    4 1    
     8   27    4 1    
     9   28    4 1    
    10    6    5 1    
    11    7    5 1    
    12    8    5 1    
    13   10    9 1    
    14   14    9 1    
    15   11   10 1    
    16   29   10 1    
    17   30   10 1    
    18   12   11 1    
    19   31   11 1    
    20   32   11 1    
    21   13   12 1    
    22   15   12 1    
    23   33   12 1    
    24   14   13 1    
    25   34   13 1    
    26   35   13 1    
    27   36   14 1    
    28   37   14 1    
    29   16   15 2    
    30   19   15 1    
    31   17   16 1    
    32   18   17 2    
    33   20   17 1    
    34   19   18 1    
    35   21   20 1    
    36   24   20 2    
    37   22   21 1    
    38   23   22 2    
    39   38   22 1    
    40   24   23 1    
    41   39   23 1    
@<TRIPOS>SUBSTRUCTURE
     1 3SE217      1 GROUP   
@<TRIPOS>SET

