#    Name: 3orn_3OR_1_INTS_M
#    Modification time : Tue Mar 25 05:11:43 2014

@<TRIPOS>MOLECULE
3orn_3OR_1_INTS_M
   89     0     6     0     0
SMALL
NO_CHARGES


@<TRIPOS>ATOM
      1 CA         61.9145   -7.7350   11.7215 C.3       2 GLC5        0.0000 
      2 CA         62.7070   -9.2750   12.9850 C.3       6 GLL5        0.0000 
      3 CA         61.1220   -6.1950   10.4580 C.3       4 GLP5        0.0000 
      4 CA         63.4345   -6.5100   16.2135 C.3       2 GLC5        0.0000 
      5 CA         63.0220   -7.4480   14.7550 C.3       6 GLL5        0.0000 
      6 CA         63.8470   -5.5720   17.6720 C.3       4 GLP5        0.0000 
      7 CA         65.3165  -17.0330   12.6000 C.3       2 GLC5        0.0000 
      8 CA         66.9860  -15.6560   12.3360 C.3       6 GLL5        0.0000 
      9 CA         63.6470  -18.4100   12.8640 C.3       4 GLP5        0.0000 
     10 CA         60.7385   -6.0870   17.4045 C.3       2 GLC5        0.0000 
     11 CA         59.7150   -7.8790   16.7060 C.3       6 GLL5        0.0000 
     12 CA         61.7620   -4.2950   18.1030 C.3       4 GLP5        0.0000 
     13 CA         58.1600   -6.7890   16.1165 C.3       2 GLC5        0.0000 
     14 CA         56.6050   -5.6990   15.5270 C.3       4 GLP5        0.0000 
     15 CA         63.2690   -9.6690   17.7850 C.3       2 GLC5        0.0000 
     16 CA         61.4480   -9.5670   17.2880 C.3       6 GLL5        0.0000 
     17 CA         65.0900   -9.7710   18.2820 C.3       4 GLP5        0.0000 
     18 CA         65.7825  -10.9065   10.5960 C.3       2 GLC5        0.0000 
     19 CA         64.5840  -10.8160   12.3620 C.3       6 GLL5        0.0000 
     20 CA         66.9810  -10.9970    8.8300 C.3       4 GLP5        0.0000 
     21 CA         66.3510  -12.0650   10.3565 C.3       2 GLC5        0.0000 
     22 CA         65.7210  -13.1330   11.8830 C.3       6 GLL5        0.0000 
     23 CA         67.5230   -9.3820   15.1190 C.3       2 GLC5        0.0000 
     24 CA         65.6960   -8.4330   14.9530 C.3       6 GLL5        0.0000 
     25 CA         69.3500  -10.3310   15.2850 C.3       4 GLP5        0.0000 
     26 CA         67.3050   -7.3140   14.8420 C.3       2 GLC5        0.0000 
     27 CA         68.9140   -6.1950   14.7310 C.3       4 GLP5        0.0000 
     28 CA         65.8745   -6.8055   13.9115 C.3       2 GLC5        0.0000 
     29 CA         66.0530   -5.1780   12.8700 C.3       4 GLP5        0.0000 
     30 CA         64.7715   -7.0025   16.3125 C.3       2 GLC5        0.0000 
     31 CA         69.1040  -15.9260   13.6595 C.3       2 GLC5        0.0000 
     32 CA         67.9160  -17.4640   12.6920 C.3       6 GLL5        0.0000 
     33 CA         70.2920  -14.3880   14.6270 C.3       4 GLP5        0.0000 
     34 CA         67.1755  -19.3325   12.4825 C.3       2 GLC5        0.0000 
     35 CA         66.4350  -21.2010   12.2730 C.3       4 GLP5        0.0000 
     36 CA         65.7815  -17.9370   12.7780 C.3       2 GLC5        0.0000 
     37 CA         67.3835  -17.1355   14.5950 C.3       2 GLC5        0.0000 
     38 CA         66.8510  -16.8070   16.4980 C.3       4 GLP5        0.0000 
     39 CA         64.3485  -14.2310   12.3405 C.3       2 GLC5        0.0000 
     40 CA         65.8290  -14.1020   10.8500 C.3       6 GLL5        0.0000 
     41 CA         62.8680  -14.3600   13.8310 C.3       4 GLP5        0.0000 
     42 CA         64.1725  -13.1920    8.4120 C.3       2 GLC5        0.0000 
     43 CA         65.3270  -13.8240    9.6360 C.3       6 GLL5        0.0000 
     44 CA         63.0180  -12.5600    7.1880 C.3       4 GLP5        0.0000 
     45 N          62.0535  -12.6065    9.4735 N.am      1 SEC2        0.0000 
     46 N          62.7720  -11.6680   10.2430 N.am      5 SEL2        0.0000 
     47 N          61.3350  -13.5450    8.7040 N.am      3 SEP2        0.0000 
     48 N          60.7165  -12.4735    9.5270 N.am      1 SEC2        0.0000 
     49 N          60.0980  -11.4020   10.3500 N.am      5 SEL2        0.0000 
     50 CA         58.4280   -8.7505    7.6115 C.3       2 GLC5        0.0000 
     51 CA         59.7110  -10.0420    8.4060 C.3       6 GLL5        0.0000 
     52 CA         57.1450   -7.4590    6.8170 C.3       4 GLP5        0.0000 
     53 CA         59.3100   -9.8235    6.3240 C.3       2 GLC5        0.0000 
     54 CA         58.9090   -9.6050    4.2420 C.3       4 GLP5        0.0000 
     55 CA         60.8175  -11.8165    7.8745 C.3       2 GLC5        0.0000 
     56 CA         61.9240  -13.5910    7.3430 C.3       4 GLP5        0.0000 
     57 CA         61.4925   -9.3075    8.0840 C.3       2 GLC5        0.0000 
     58 CA         63.2740   -8.5730    7.7620 C.3       4 GLP5        0.0000 
     59 CA         59.8180   -7.9445    8.7845 C.3       2 GLC5        0.0000 
     60 CA         59.9250   -5.8470    9.1630 C.3       4 GLP5        0.0000 
     61 CA         63.3805  -12.4778   13.0555 C.3       2 GLC5        0.0000 
     62 CA         63.2020  -10.3750   12.1980 C.3       6 GLL5        0.0000 
     63 CA         65.0030   -8.8442   11.7715 C.3       2 GLC5        0.0000 
     64 CA         66.1130   -7.0930   11.2630 C.3       4 GLP5        0.0000 
     65 CA         64.1589   -7.0861   12.9716 C.3       2 GLC5        0.0000 
     66 CA         63.5440   -8.6020   13.9300 C.3       6 GLL5        0.0000 
     67 CA         65.2440   -5.9790   11.8370 C.3       4 GLP5        0.0000 
     68 CA         60.9655   -9.4280   19.2630 C.3       2 GLC5        0.0000 
     69 CA         61.0170   -9.7580   20.9590 C.3       4 GLP5        0.0000 
     70 CA         59.7150  -10.6850   17.4245 C.3       2 GLC5        0.0000 
     71 CA         60.3800   -8.6290   17.8460 C.3       6 GLL5        0.0000 
     72 CA         58.5160  -12.2720   17.2820 C.3       4 GLP5        0.0000 
     73 CA         65.1893   -9.2535   16.3983 C.3       2 GLC5        0.0000 
     74 CA         64.8810   -9.0390   14.0760 C.3       6 GLL5        0.0000 
     75 CA         67.7198   -9.8030   12.5678 C.3       2 GLC5        0.0000 
     76 CA         65.3850  -10.1090   13.3150 C.3       6 GLL5        0.0000 
     77 CA         69.4170   -9.3280   11.7180 C.3       4 GLP5        0.0000 
     78 CA         67.6863  -10.3045   14.3513 C.3       2 GLC5        0.0000 
     79 CA         66.6600  -10.4470   13.5200 C.3       6 GLL5        0.0000 
     80 CA         66.0048   -8.5517   12.4354 C.3       2 GLC5        0.0000 
     81 CA         64.6570  -14.1873   13.3920 C.3       2 GLC5        0.0000 
     82 CA         66.8960  -14.7220   13.3860 C.3       6 GLL5        0.0000 
     83 CA         66.9946  -13.9262    9.2397 C.3       2 GLC5        0.0000 
     84 CA         66.4540  -15.3600   11.0560 C.3       6 GLL5        0.0000 
     85 CA         68.2550  -13.5750    8.1850 C.3       4 GLP5        0.0000 
     86 CA         65.6456  -16.0343    9.3703 C.3       2 GLC5        0.0000 
     87 CA         65.5570  -17.7910    8.4460 C.3       4 GLP5        0.0000 
     88 CA         68.3345  -14.1541   12.3102 C.3       2 GLC5        0.0000 
     89 CA         70.0860  -13.5470   12.2960 C.3       4 GLP5        0.0000 
@<TRIPOS>BOND
@<TRIPOS>SUBSTRUCTURE
     1 SEC2       45 GROUP        1 X    SEC  0     ROOT SEC X 2
     2 GLC5        1 GROUP        1 X    GLC  0     **** GLC X 6
     3 SEP2       47 GROUP        1 Y    SEP  0     ROOT SEP Y 9
     4 GLP5        3 GROUP        1 Y    GLP  0     **** GLP Y 13
     5 SEL2       46 GROUP        1 Z    SEL  0     ROOT SEL Z 16
     6 GLL5        2 GROUP        1 Z    GLL  0     **** GLL Z 20
@<TRIPOS>SET

