#    Name: 3orn_3OR_1_ligand
#    Modification time : Tue Mar 25 05:11:43 2014

@<TRIPOS>MOLECULE
3orn_3OR_1_ligand
   51    53     1     0     0
SMALL
NO_CHARGES


@<TRIPOS>ATOM
      1 C4         63.2020  -10.3750   12.1980 C.ar      1 3OR400      0.0000 
      2 C5         62.7070   -9.2750   12.9850 C.ar      1 3OR400      0.0000 
      3 C6         63.5440   -8.6020   13.9300 C.ar      1 3OR400      0.0000 
      4 C7         63.0220   -7.4480   14.7550 C.3       1 3OR400      0.0000 
      5 C13        66.2710  -13.4810   13.1570 C.ar      1 3OR400      0.0000 
      6 C15        66.9860  -15.6560   12.3360 C.ar      1 3OR400      0.0000 
      7 C17        66.4540  -15.3600   11.0560 C.ar      1 3OR400      0.0000 
      8 C20        60.6750   -7.3690   15.6480 C.2       1 3OR400      0.0000 
      9 C22        59.7150   -7.8790   16.7060 C.3       1 3OR400      0.0000 
     10 C24        61.4480   -9.5670   17.2880 C.3       1 3OR400      0.0000 
     11 C26        62.2880  -11.0650   11.2070 C.2       1 3OR400      0.0000 
     12 C1         64.5840  -10.8160   12.3620 C.ar      1 3OR400      0.0000 
     13 N2         65.0870  -11.9010   11.5980 N.pl3     1 3OR400      0.0000 
     14 C3         65.7210  -13.1330   11.8830 C.ar      1 3OR400      0.0000 
     15 N8         61.9780   -7.8370   15.6940 N.am      1 3OR400      0.0000 
     16 C9         64.8810   -9.0390   14.0760 C.ar      1 3OR400      0.0000 
     17 F10        65.6960   -8.4330   14.9530 F         1 3OR400      0.0000 
     18 C11        65.3850  -10.1090   13.3150 C.ar      1 3OR400      0.0000 
     19 F12        66.6600  -10.4470   13.5200 F         1 3OR400      0.0000 
     20 C14        66.8960  -14.7220   13.3860 C.ar      1 3OR400      0.0000 
     21 I16        67.9160  -17.4640   12.6920 I         1 3OR400      0.0000 
     22 C18        65.8290  -14.1020   10.8500 C.ar      1 3OR400      0.0000 
     23 F19        65.3270  -13.8240    9.6360 F         1 3OR400      0.0000 
     24 O21        60.2670   -6.5740   14.8050 O.2       1 3OR400      0.0000 
     25 C23        60.3800   -8.6290   17.8460 C.3       1 3OR400      0.0000 
     26 O25        62.4770   -8.7610   16.6730 O.3       1 3OR400      0.0000 
     27 O27        62.7720  -11.6680   10.2430 O.2       1 3OR400      0.0000 
     28 N28        60.9300  -10.9680   11.4230 N.am      1 3OR400      0.0000 
     29 O29        60.0980  -11.4020   10.3500 O.3       1 3OR400      0.0000 
     30 C30        59.3170  -10.3010    9.8520 C.3       1 3OR400      0.0000 
     31 C31        59.7110  -10.0420    8.4060 C.3       1 3OR400      0.0000 
     32 O32        59.2250  -11.0970    7.5950 O.3       1 3OR400      0.0000 
     33 H          61.7379   -8.9723   12.8629 H         1 3OR400      0.0000 
     34 H          62.6470   -6.6677   14.0617 H         1 3OR400      0.0000 
     35 H          63.8772   -6.9928   15.2949 H         1 3OR400      0.0000 
     36 H          66.2029  -12.7948   13.9261 H         1 3OR400      0.0000 
     37 H          66.5178  -16.0310   10.3036 H         1 3OR400      0.0000 
     38 H          58.9705   -8.5422   16.2263 H         1 3OR400      0.0000 
     39 H          59.1497   -7.0232   17.1211 H         1 3OR400      0.0000 
     40 H          60.9751  -10.2292   16.5666 H         1 3OR400      0.0000 
     41 H          61.8428  -10.1594   18.1101 H         1 3OR400      0.0000 
     42 H          64.9448  -11.7389   10.4826 H         1 3OR400      0.0000 
     43 H          67.2797  -14.9422   14.3034 H         1 3OR400      0.0000 
     44 H          59.6373   -9.2110   18.3811 H         1 3OR400      0.0000 
     45 H          60.8446   -7.9219   18.5249 H         1 3OR400      0.0000 
     46 H          60.5326  -10.6200   12.2669 H         1 3OR400      0.0000 
     47 H          59.4993   -9.3900   10.4234 H         1 3OR400      0.0000 
     48 H          58.2494  -10.5224    9.8799 H         1 3OR400      0.0000 
     49 H          60.8033   -9.9626    8.3656 H         1 3OR400      0.0000 
     50 H          59.2921   -9.0725    8.1133 H         1 3OR400      0.0000 
     51 H          59.0833  -11.8620    8.2232 H         1 3OR400      0.0000 
@<TRIPOS>BOND
     1    2    1 ar   
     2   11    1 1    
     3   12    1 ar   
     4    3    2 ar   
     5   33    2 1    
     6    4    3 1    
     7   16    3 ar   
     8   15    4 1    
     9   34    4 1    
    10   35    4 1    
    11   14    5 ar   
    12   20    5 ar   
    13   36    5 1    
    14    7    6 ar   
    15   20    6 ar   
    16   21    6 1    
    17   22    7 ar   
    18   37    7 1    
    19    9    8 1    
    20   15    8 am   
    21   24    8 2    
    22   25    9 1    
    23   38    9 1    
    24   39    9 1    
    25   25   10 1    
    26   26   10 1    
    27   40   10 1    
    28   41   10 1    
    29   27   11 2    
    30   28   11 am   
    31   13   12 1    
    32   18   12 ar   
    33   14   13 1    
    34   42   13 1    
    35   22   14 ar   
    36   26   15 1    
    37   17   16 1    
    38   18   16 ar   
    39   19   18 1    
    40   43   20 1    
    41   23   22 1    
    42   44   25 1    
    43   45   25 1    
    44   29   28 1    
    45   46   28 1    
    46   30   29 1    
    47   31   30 1    
    48   47   30 1    
    49   48   30 1    
    50   32   31 1    
    51   49   31 1    
    52   50   31 1    
    53   51   32 1    
@<TRIPOS>SUBSTRUCTURE
     1 3OR400      1 GROUP   
@<TRIPOS>SET

