#    Name: 3o3p_GDD_1_INTS_M
#    Modification time : Tue Mar 25 03:12:50 2014

@<TRIPOS>MOLECULE
3o3p_GDD_1_INTS_M
   77     0    12     0     0
SMALL
NO_CHARGES


@<TRIPOS>ATOM
      1 O          48.5310  -22.9605  -13.0880 O.2       1 ALC1        0.0000 
      2 O          47.4150  -23.9290  -12.8100 O.2       9 ALL1        0.0000 
      3 O          49.6470  -21.9920  -13.3660 O.2       5 ALP1        0.0000 
      4 O          47.0600  -25.0570  -13.6930 O.2       1 ALC1        0.0000 
      5 O          46.7050  -26.1850  -14.5760 O.2       5 ALP1        0.0000 
      6 O          46.0450  -25.6745  -13.4955 O.2       1 ALC1        0.0000 
      7 O          45.3850  -25.1640  -12.4150 O.2       9 ALL1        0.0000 
      8 CA         44.0360  -22.6565  -11.2215 C.3       4 GLC5        0.0000 
      9 CA         44.8770  -23.6970  -10.1460 C.3      12 GLL5        0.0000 
     10 CA         43.1950  -21.6160  -12.2970 C.3       8 GLP5        0.0000 
     11 CA         42.7475  -24.0310  -11.5960 C.3       4 GLC5        0.0000 
     12 CA         43.9810  -24.6750  -10.5150 C.3      12 GLL5        0.0000 
     13 CA         41.5140  -23.3870  -12.6770 C.3       8 GLP5        0.0000 
     14 CA         47.1405  -22.6650   -8.4905 C.3       4 GLC5        0.0000 
     15 CA         45.0600  -22.0440   -8.2750 C.3      12 GLL5        0.0000 
     16 CA         49.2210  -23.2860   -8.7060 C.3       8 GLP5        0.0000 
     17 CA         46.1840  -20.9375   -9.8710 C.3       4 GLC5        0.0000 
     18 CA         47.3080  -19.8310  -11.4670 C.3       8 GLP5        0.0000 
     19 CA         44.1275  -21.8300  -10.2860 C.3       4 GLC5        0.0000 
     20 CA         45.7210  -23.3140   -6.6810 C.3       4 GLC5        0.0000 
     21 CA         46.3820  -24.5840   -5.0870 C.3       8 GLP5        0.0000 
     22 N          44.5755  -20.0030  -10.4805 N.am      2 SEC2        0.0000 
     23 N          44.1890  -20.0330   -9.0470 N.am     10 SEL2        0.0000 
     24 N          44.9620  -19.9730  -11.9140 N.am      6 SEP2        0.0000 
     25 CA         44.1390  -18.3750   -6.3340 C.3       4 GLC5        0.0000 
     26 CA         44.8300  -20.3350   -6.7380 C.3      12 GLL5        0.0000 
     27 CA         43.4480  -16.4150   -5.9300 C.3       8 GLP5        0.0000 
     28 N          46.9370  -18.6050   -6.5670 N.am      2 SEC2        0.0000 
     29 N          45.8440  -19.4880   -7.0640 N.am     10 SEL2        0.0000 
     30 N          48.0300  -17.7220   -6.0700 N.am      6 SEP2        0.0000 
     31 O          46.8970  -20.0960   -7.9820 O.2       1 ALC1        0.0000 
     32 O          45.8440  -19.4880   -7.0640 O.2       9 ALL1        0.0000 
     33 O          47.9500  -20.7040   -8.9000 O.2       5 ALP1        0.0000 
     34 CA         46.4400  -20.2825   -4.5405 C.3       4 GLC5        0.0000 
     35 CA         45.3710  -21.5150   -6.0170 C.3      12 GLL5        0.0000 
     36 CA         47.5090  -19.0500   -3.0640 C.3       8 GLP5        0.0000 
     37 N          40.4240  -24.0320   -6.4625 N.am      2 SEC2        0.0000 
     38 N          40.9180  -23.1010   -5.6410 N.am     10 SEL2        0.0000 
     39 N          39.9300  -24.9630   -7.2840 N.am      6 SEP2        0.0000 
     40 Zn         41.8845  -20.0655   -3.5520 Zn        3 ZIC7        0.0000 
     41 Zn         41.7680  -20.9950   -4.5190 Zn       11 ZIL7        0.0000 
     42 Zn         42.0010  -19.1360   -2.5850 Zn        7 ZIP7        0.0000 
     43 Zn         41.9280  -20.1930   -2.0960 Zn        3 ZIC7        0.0000 
     44 Zn         41.8550  -21.2500   -1.6070 Zn       11 ZIL7        0.0000 
     45 N          41.1005  -20.1500   -0.6950 N.am      2 SEC2        0.0000 
     46 N          41.8550  -21.2500   -1.6070 N.am     10 SEL2        0.0000 
     47 N          40.3460  -19.0500    0.2170 N.am      6 SEP2        0.0000 
     48 N          38.6820  -22.7730   -3.1805 N.am      2 SEC2        0.0000 
     49 N          39.7170  -22.3840   -2.3260 N.am     10 SEL2        0.0000 
     50 N          37.6470  -23.1620   -4.0350 N.am      6 SEP2        0.0000 
     51 CA         42.2705  -26.7935   -2.9125 C.3       4 GLC5        0.0000 
     52 CA         43.0170  -26.2800   -0.8630 C.3      12 GLL5        0.0000 
     53 CA         41.5240  -27.3070   -4.9620 C.3       8 GLP5        0.0000 
     54 O          43.7465  -29.4960   -1.8105 O.2       1 ALC1        0.0000 
     55 O          44.1590  -28.3710   -0.9700 O.2       9 ALL1        0.0000 
     56 O          43.3340  -30.6210   -2.6510 O.2       5 ALP1        0.0000 
     57 O          45.3755  -24.4470    0.8885 O.2       1 ALC1        0.0000 
     58 O          44.7170  -23.2990    0.1760 O.2       9 ALL1        0.0000 
     59 O          46.0340  -25.5950    1.6010 O.2       5 ALP1        0.0000 
     60 N          46.6930  -24.4700   -3.2365 N.am      2 SEC2        0.0000 
     61 N          45.7240  -24.0510   -2.0790 N.am     10 SEL2        0.0000 
     62 N          47.6620  -24.8890   -4.3940 N.am      6 SEP2        0.0000 
     63 N          46.1935  -26.5755   -2.4960 N.am      2 SEC2        0.0000 
     64 N          44.6930  -26.5440   -2.6840 N.am     10 SEL2        0.0000 
     65 N          47.6940  -26.6070   -2.3080 N.am      6 SEP2        0.0000 
     66 CA         44.9545  -25.5880   -9.1258 C.3       4 GLC5        0.0000 
     67 CA         45.4800  -26.9900   -7.9210 C.3       8 GLP5        0.0000 
     68 CA         45.6435  -23.1510   -5.2572 C.3       4 GLC5        0.0000 
     69 CA         43.7532  -27.2135    1.2415 C.3       4 GLC5        0.0000 
     70 CA         44.4280  -27.4190    3.1090 C.3       8 GLP5        0.0000 
     71 CA         41.3683  -26.9070   -1.6285 C.3       4 GLC5        0.0000 
     72 CA         43.1400  -27.7360   -0.3890 C.3      12 GLL5        0.0000 
     73 CA         39.6580  -26.8060   -2.6310 C.3       8 GLP5        0.0000 
     74 CA         45.3657  -24.8463   -3.3800 C.3       4 GLC5        0.0000 
     75 CA         44.3360  -25.8180   -1.5070 C.3      12 GLL5        0.0000 
     76 CA         45.2971  -27.3240   -0.9263 C.3       4 GLC5        0.0000 
     77 CA         46.8870  -28.2350   -0.7860 C.3       8 GLP5        0.0000 
@<TRIPOS>BOND
@<TRIPOS>SUBSTRUCTURE
     1 ALC1        1 GROUP        1 X    ALC  0     ROOT ALC X 1
     2 SEC2       22 GROUP        1 X    SEC  0     **** SEC X 2
     3 ZIC7       40 GROUP        1 X    ZIC  0     **** ZIC X 5
     4 GLC5        8 GROUP        1 X    GLC  0     **** GLC X 6
     5 ALP1        3 GROUP        1 Y    ALP  0     ROOT ALP Y 8
     6 SEP2       24 GROUP        1 Y    SEP  0     **** SEP Y 9
     7 ZIP7       42 GROUP        1 Y    ZIP  0     **** ZIP Y 12
     8 GLP5       10 GROUP        1 Y    GLP  0     **** GLP Y 13
     9 ALL1        2 GROUP        1 Z    ALL  0     ROOT ALL Z 15
    10 SEL2       23 GROUP        1 Z    SEL  0     **** SEL Z 16
    11 ZIL7       41 GROUP        1 Z    ZIL  0     **** ZIL Z 19
    12 GLL5        9 GROUP        1 Z    GLL  0     **** GLL Z 20
@<TRIPOS>SET

