#    Name: 3o3p_GDD_1_ligand
#    Modification time : Tue Mar 25 03:12:50 2014

@<TRIPOS>MOLECULE
3o3p_GDD_1_ligand
   62    65     1     0     0
SMALL
NO_CHARGES


@<TRIPOS>ATOM
      1 N2         47.4150  -23.9290  -12.8100 N.pl3     1 GDD340      0.0000 
      2 C2         46.2390  -24.2110  -12.0340 C.2       1 GDD340      0.0000 
      3 N1         45.3850  -25.1640  -12.4150 N.am      1 GDD340      0.0000 
      4 N3         46.0000  -23.4680  -10.9020 N.2       1 GDD340      0.0000 
      5 C4         44.8770  -23.6970  -10.1460 C.2       1 GDD340      0.0000 
      6 C5         43.9810  -24.6750  -10.5150 C.2       1 GDD340      0.0000 
      7 C6         44.2600  -25.4290  -11.7030 C.2       1 GDD340      0.0000 
      8 O6         43.5000  -26.2820  -12.0620 O.2       1 GDD340      0.0000 
      9 N7         42.9800  -24.6670   -9.5870 N.2       1 GDD340      0.0000 
     10 C8         43.2700  -23.6830   -8.6510 C.2       1 GDD340      0.0000 
     11 N9         44.3940  -23.0950   -8.9780 N.pl3     1 GDD340      0.0000 
     12 C1'        45.0600  -22.0440   -8.2750 C.3       1 GDD340      0.0000 
     13 C2'        44.2000  -20.8920   -7.9520 C.3       1 GDD340      0.0000 
     14 O2'        44.1890  -20.0330   -9.0470 O.3       1 GDD340      0.0000 
     15 C3'        44.8300  -20.3350   -6.7380 C.3       1 GDD340      0.0000 
     16 O3'        45.8440  -19.4880   -7.0640 O.3       1 GDD340      0.0000 
     17 C4'        45.3710  -21.5150   -6.0170 C.3       1 GDD340      0.0000 
     18 O4'        45.6080  -22.4970   -6.9850 O.3       1 GDD340      0.0000 
     19 C5'        44.4390  -21.9210   -4.8380 C.3       1 GDD340      0.0000 
     20 O5'        43.4500  -22.6950   -5.3010 O.3       1 GDD340      0.0000 
     21 PA         41.9910  -22.4940   -4.7020 P.3       1 GDD340      0.0000 
     22 O1A        40.9180  -23.1010   -5.6410 O.co2     1 GDD340      0.0000 
     23 O2A        41.7680  -20.9950   -4.5190 O.co2     1 GDD340      0.0000 
     24 O3A        41.9700  -23.2180   -3.3140 O.3       1 GDD340      0.0000 
     25 PB         41.2230  -22.6100   -1.9980 P.3       1 GDD340      0.0000 
     26 O2B        41.8550  -21.2500   -1.6070 O.co2     1 GDD340      0.0000 
     27 O3B        39.7170  -22.3840   -2.3260 O.co2     1 GDD340      0.0000 
     28 O1B        41.3370  -23.6190   -0.8200 O.3       1 GDD340      0.0000 
     29 C11        42.5320  -23.9950   -0.1920 C.3       1 GDD340      0.0000 
     30 O51        42.5840  -25.4360    0.1610 O.3       1 GDD340      0.0000 
     31 C51        43.0170  -26.2800   -0.8630 C.3       1 GDD340      0.0000 
     32 C61        43.1400  -27.7360   -0.3890 C.3       1 GDD340      0.0000 
     33 O6A        44.1590  -28.3710   -0.9700 O.3       1 GDD340      0.0000 
     34 C21        43.7780  -23.4970   -0.8720 C.3       1 GDD340      0.0000 
     35 O21        44.7170  -23.2990    0.1760 O.3       1 GDD340      0.0000 
     36 C31        44.3630  -24.3990   -1.8390 C.3       1 GDD340      0.0000 
     37 O31        45.7240  -24.0510   -2.0790 O.3       1 GDD340      0.0000 
     38 C41        44.3360  -25.8180   -1.5070 C.3       1 GDD340      0.0000 
     39 O41        44.6930  -26.5440   -2.6840 O.3       1 GDD340      0.0000 
     40 H          48.0225  -23.2223  -12.4473 H         1 GDD340      0.0000 
     41 H          47.5277  -24.4630  -13.6480 H         1 GDD340      0.0000 
     42 H          45.5790  -25.7261  -13.2828 H         1 GDD340      0.0000 
     43 H          42.6991  -23.4946   -7.8878 H         1 GDD340      0.0000 
     44 H          45.9111  -21.6621   -8.8666 H         1 GDD340      0.0000 
     45 H          43.2287  -21.2739   -7.6982 H         1 GDD340      0.0000 
     46 H          44.0680  -19.8919   -6.1289 H         1 GDD340      0.0000 
     47 H          46.3301  -21.1869   -5.5617 H         1 GDD340      0.0000 
     48 H          44.1023  -20.9718   -4.3846 H         1 GDD340      0.0000 
     49 H          45.0942  -22.4116   -4.0964 H         1 GDD340      0.0000 
     50 H          42.5456  -23.4510    0.8427 H         1 GDD340      0.0000 
     51 H          42.2677  -26.3002   -1.6929 H         1 GDD340      0.0000 
     52 H          42.1438  -28.2046   -0.5870 H         1 GDD340      0.0000 
     53 H          43.2151  -27.6866    0.7260 H         1 GDD340      0.0000 
     54 H          43.5529  -22.5367   -1.3264 H         1 GDD340      0.0000 
     55 H          43.8220  -24.2745   -2.8128 H         1 GDD340      0.0000 
     56 H          45.1369  -25.9906   -0.7391 H         1 GDD340      0.0000 
     57 H          44.5521  -19.1679   -8.7008 H         1 GDD340      0.0000 
     58 H          46.4223  -20.0070   -7.6935 H         1 GDD340      0.0000 
     59 H          43.7657  -29.2177   -1.3284 H         1 GDD340      0.0000 
     60 H          44.9603  -24.2192    0.4826 H         1 GDD340      0.0000 
     61 H          46.0013  -23.5225   -1.2766 H         1 GDD340      0.0000 
     62 H          44.6372  -27.5072   -2.4208 H         1 GDD340      0.0000 
@<TRIPOS>BOND
     1    2    1 1    
     2   40    1 1    
     3   41    1 1    
     4    3    2 1    
     5    4    2 2    
     6    7    3 am   
     7   42    3 1    
     8    5    4 1    
     9    6    5 2    
    10   11    5 1    
    11    7    6 1    
    12    9    6 1    
    13    8    7 2    
    14   10    9 2    
    15   11   10 1    
    16   43   10 1    
    17   12   11 1    
    18   13   12 1    
    19   18   12 1    
    20   44   12 1    
    21   14   13 1    
    22   15   13 1    
    23   45   13 1    
    24   57   14 1    
    25   16   15 1    
    26   17   15 1    
    27   46   15 1    
    28   58   16 1    
    29   18   17 1    
    30   19   17 1    
    31   47   17 1    
    32   20   19 1    
    33   48   19 1    
    34   49   19 1    
    35   21   20 1    
    36   22   21 ar   
    37   23   21 ar   
    38   24   21 1    
    39   25   24 1    
    40   26   25 ar   
    41   27   25 ar   
    42   28   25 1    
    43   29   28 1    
    44   30   29 1    
    45   34   29 1    
    46   50   29 1    
    47   31   30 1    
    48   32   31 1    
    49   38   31 1    
    50   51   31 1    
    51   33   32 1    
    52   52   32 1    
    53   53   32 1    
    54   59   33 1    
    55   35   34 1    
    56   36   34 1    
    57   54   34 1    
    58   60   35 1    
    59   37   36 1    
    60   38   36 1    
    61   55   36 1    
    62   61   37 1    
    63   39   38 1    
    64   56   38 1    
    65   62   39 1    
@<TRIPOS>SUBSTRUCTURE
     1 GDD340      1 GROUP   
@<TRIPOS>SET

