#    Name: 1H62_1_CAVITY_N1_6.mol2
#    Modification time : Tue Mar 11 04:12:12 2014

@<TRIPOS>MOLECULE
1H62_1_CAVITY_N1_6.mol2
   84     0     6     0     0
SMALL
NO_CHARGES


@<TRIPOS>ATOM
      1 CZ         25.2018   14.4733   15.4865 C.ar      4 PHE5        0.0000 
      2 O          23.8086   14.9876   15.6975 O.2       2 ALA2        0.0000 
      3 O          22.4154   15.5018   15.9084 O.2       2 ALA2        0.0000 
      4 O          21.0222   16.0161   16.1193 O.2       2 ALA2        0.0000 
      5 CZ         24.7319   13.6874   14.2985 C.ar      4 PHE5        0.0000 
      6 O          23.3387   14.2016   14.5094 O.2       2 ALA2        0.0000 
      7 NZ         20.7420   17.7185   20.7855 N.2       3 LYS4        0.0000 
      8 DU         21.6653   16.4184   19.3865 H         6 CUB7        0.0000 
      9 N          20.2721   16.9326   19.5974 N.2       2 ALA2        0.0000 
     10 N          18.8788   17.4469   19.8083 N.2       2 ALA2        0.0000 
     11 OG         23.9817   14.6039   17.7766 O.2       1 SER1        0.0000 
     12 DU         22.5885   15.1182   17.9875 H         6 CUB7        0.0000 
     13 N          21.1953   15.6324   18.1984 N.2       2 ALA2        0.0000 
     14 OG         23.5118   13.8180   16.5885 O.2       1 SER1        0.0000 
     15 DU         22.1186   14.3323   16.7995 H         6 CUB7        0.0000 
     16 O          20.7254   14.8465   17.0104 O.2       2 ALA2        0.0000 
     17 CZ         24.4351   12.5178   15.1896 C.ar      4 PHE5        0.0000 
     18 OG         23.0418   13.0321   15.4005 O.2       1 SER1        0.0000 
     19 CZ         21.6486   13.5464   15.6114 C.ar      4 PHE5        0.0000 
     20 O          20.2554   14.0606   15.8223 O.2       2 ALA2        0.0000 
     21 CZ         21.1787   12.7604   14.4233 C.ar      4 PHE5        0.0000 
     22 CA         21.8384   16.0347   21.4656 C.3       5 GLY6        0.0000 
     23 NZ         20.4452   16.5490   21.6765 N.2       3 LYS4        0.0000 
     24 NZ         19.0520   17.0632   21.8874 N.2       3 LYS4        0.0000 
     25 CA         22.7617   14.7345   20.0667 C.3       5 GLY6        0.0000 
     26 CA         21.3685   15.2488   20.2776 C.3       5 GLY6        0.0000 
     27 N          19.9752   15.7631   20.4885 N.2       2 ALA2        0.0000 
     28 N          18.5820   16.2773   20.6994 N.2       2 ALA2        0.0000 
     29 OG         22.2917   13.9486   18.8786 O.2       1 SER1        0.0000 
     30 O          20.8985   14.4629   19.0895 O.2       2 ALA2        0.0000 
     31 OG         23.2150   12.6484   17.4796 O.2       1 SER1        0.0000 
     32 OG         21.8218   13.1627   17.6905 O.2       1 SER1        0.0000 
     33 O          20.4286   13.6770   17.9014 O.2       2 ALA2        0.0000 
     34 OG         22.7450   11.8625   16.2916 O.2       1 SER1        0.0000 
     35 OG         21.3518   12.3768   16.5025 O.2       1 SER1        0.0000 
     36 O          19.9586   12.8911   16.7134 O.2       2 ALA2        0.0000 
     37 CA         21.5416   14.8651   22.3567 C.3       5 GLY6        0.0000 
     38 CA         20.1484   15.3794   22.5676 C.3       5 GLY6        0.0000 
     39 CA         18.7552   15.8937   22.7785 C.3       5 GLY6        0.0000 
     40 CA         23.8581   13.0507   20.7468 C.3       5 GLY6        0.0000 
     41 CA         22.4649   13.5650   20.9577 C.3       5 GLY6        0.0000 
     42 CA         21.0716   14.0792   21.1686 C.3       5 GLY6        0.0000 
     43 CA         19.6784   14.5935   21.3796 C.3       5 GLY6        0.0000 
     44 CA         18.2852   15.1078   21.5905 C.3       5 GLY6        0.0000 
     45 OG         21.9949   12.7791   19.7697 O.2       1 SER1        0.0000 
     46 O          20.6017   13.2933   19.9806 O.2       2 ALA2        0.0000 
     47 O          19.2085   13.8076   20.1915 O.2       2 ALA2        0.0000 
     48 OG         22.9182   11.4789   18.3707 O.2       1 SER1        0.0000 
     49 OG         21.5250   11.9931   18.5816 O.2       1 SER1        0.0000 
     50 O          20.1317   12.5074   18.7925 O.2       2 ALA2        0.0000 
     51 OG         22.4482   10.6930   17.1826 O.2       1 SER1        0.0000 
     52 OG         21.0550   11.2072   17.3936 O.2       1 SER1        0.0000 
     53 CA         22.6380   13.1813   23.0369 C.3       5 GLY6        0.0000 
     54 CA         21.2448   13.6956   23.2478 C.3       5 GLY6        0.0000 
     55 CA         19.8516   14.2099   23.4587 C.3       5 GLY6        0.0000 
     56 CA         18.4583   14.7241   23.6696 C.3       5 GLY6        0.0000 
     57 CZ         23.5613   11.8811   21.6379 C.ar      4 PHE5        0.0000 
     58 CA         22.1680   12.3954   21.8488 C.3       5 GLY6        0.0000 
     59 DU         20.7748   12.9097   22.0597 H         6 CUB7        0.0000 
     60 CA         19.3816   13.4239   22.2706 C.3       5 GLY6        0.0000 
     61 CA         17.9884   13.9382   22.4816 C.3       5 GLY6        0.0000 
     62 CZ         23.0913   11.0952   20.4499 C.ar      4 PHE5        0.0000 
     63 DU         21.6981   11.6095   20.6608 H         6 CUB7        0.0000 
     64 DU         20.3049   12.1238   20.8717 H         6 CUB7        0.0000 
     65 CA         18.9117   12.6380   21.0826 C.3       5 GLY6        0.0000 
     66 OG         22.6214   10.3093   19.2618 O.2       1 SER1        0.0000 
     67 OG         21.2281   10.8236   19.4727 O.2       1 SER1        0.0000 
     68 OG         19.8349   11.3378   19.6836 O.2       1 SER1        0.0000 
     69 OG         18.4417   11.8521   19.8945 O.2       1 SER1        0.0000 
     70 CA         22.1514    9.5234   18.0737 C.3       5 GLY6        0.0000 
     71 OG         20.7582   10.0377   18.2846 O.2       1 SER1        0.0000 
     72 CA         22.3412   12.0118   23.9280 C.3       5 GLY6        0.0000 
     73 O          20.9480   12.5260   24.1389 O.2       2 ALA2        0.0000 
     74 CA         19.5547   13.0403   24.3498 C.3       5 GLY6        0.0000 
     75 CA         21.8712   11.2258   22.7399 C.3       5 GLY6        0.0000 
     76 O          20.4780   11.7401   22.9508 O.2       2 ALA2        0.0000 
     77 CA         19.0848   12.2544   23.1617 C.3       5 GLY6        0.0000 
     78 CZ         21.4013   10.4399   21.5518 C.ar      4 PHE5        0.0000 
     79 O          20.0081   10.9542   21.7628 O.2       2 ALA2        0.0000 
     80 CA         18.6148   11.4685   21.9737 C.3       5 GLY6        0.0000 
     81 OG         20.9313    9.6540   20.3638 O.2       1 SER1        0.0000 
     82 OG         19.5381   10.1683   20.5747 O.2       1 SER1        0.0000 
     83 OG         21.8546    8.3538   18.9648 O.2       1 SER1        0.0000 
     84 OG         20.4614    8.8681   19.1757 O.2       1 SER1        0.0000 
@<TRIPOS>BOND
@<TRIPOS>SUBSTRUCTURE
     1 SER1       11 GROUP   
     2 ALA2        2 GROUP   
     3 LYS4        7 GROUP   
     4 PHE5        1 GROUP   
     5 GLY6       22 GROUP   
     6 CUB7        8 GROUP   
@<TRIPOS>SET

