#    Name: 1h62_ANB_1_INTS_M
#    Modification time : Tue Mar 25 04:45:28 2014

@<TRIPOS>MOLECULE
1h62_ANB_1_INTS_M
   36     0     6     0     0
SMALL
NO_CHARGES


@<TRIPOS>ATOM
      1 CA         23.1400   14.6910   12.9765 C.3       2 GLC5        0.0000 
      2 CA         22.4890   13.6390   14.4970 C.3       6 GLL5        0.0000 
      3 CA         23.7910   15.7430   11.4560 C.3       4 GLP5        0.0000 
      4 CA         25.1030   13.6850   17.0530 C.3       2 GLC5        0.0000 
      5 CA         23.3880   14.6970   17.3790 C.3       6 GLL5        0.0000 
      6 CA         26.8180   12.6730   16.7270 C.3       4 GLP5        0.0000 
      7 CA         23.7370   13.4500   21.6410 C.3       2 GLC5        0.0000 
      8 CA         22.8520   11.8150   20.9410 C.3       6 GLL5        0.0000 
      9 CA         24.6220   15.0850   22.3410 C.3       4 GLP5        0.0000 
     10 CA         23.7035   10.6180   21.8785 C.3       2 GLC5        0.0000 
     11 CA         24.5550    9.4210   22.8160 C.3       4 GLP5        0.0000 
     12 CA         18.5505   10.5375   23.2220 C.3       2 GLC5        0.0000 
     13 CA         19.6430   10.7440   21.9520 C.3       6 GLL5        0.0000 
     14 CA         17.4580   10.3310   24.4920 C.3       4 GLP5        0.0000 
     15 CA         23.6260    9.0710   20.2405 C.3       2 GLC5        0.0000 
     16 CA         22.5490    9.4620   18.8880 C.3       6 GLL5        0.0000 
     17 CA         24.7030    8.6800   21.5930 C.3       4 GLP5        0.0000 
     18 CA         24.2110   11.7395   17.6485 C.3       2 GLC5        0.0000 
     19 CA         22.3010   11.7680   17.8620 C.3       6 GLL5        0.0000 
     20 CA         26.1210   11.7110   17.4350 C.3       4 GLP5        0.0000 
     21 N          18.3030    7.3470   22.3045 N.am      1 SEC2        0.0000 
     22 N          19.0740    8.4260   22.0780 N.am      5 SEL2        0.0000 
     23 N          17.5320    6.2680   22.5310 N.am      3 SEP2        0.0000 
     24 N          18.8715    9.0505   23.2565 N.am      1 SEC2        0.0000 
     25 N          18.6690    9.6750   24.4350 N.am      3 SEP2        0.0000 
     26 CA         24.3245   12.1173   16.6910 C.3       2 GLC5        0.0000 
     27 CA         23.0080   12.4420   15.3320 C.3       6 GLL5        0.0000 
     28 CA         21.4387   11.5626   14.7425 C.3       2 GLC5        0.0000 
     29 CA         22.0480   12.6050   16.5620 C.3       6 GLL5        0.0000 
     30 CA         20.3690   10.0440   14.2630 C.3       4 GLP5        0.0000 
     31 CA         23.2583    8.1587   18.1412 C.3       2 GLC5        0.0000 
     32 CA         22.3380   10.3250   17.6190 C.3       6 GLL5        0.0000 
     33 CA         24.0730    6.4240   18.0290 C.3       4 GLP5        0.0000 
     34 CA         24.2898   10.1418   17.6377 C.3       2 GLC5        0.0000 
     35 CA         26.1360   10.3900   17.0220 C.3       4 GLP5        0.0000 
     36 CA         21.3443   10.5452   16.0018 C.3       2 GLC5        0.0000 
@<TRIPOS>BOND
@<TRIPOS>SUBSTRUCTURE
     1 SEC2       21 GROUP        1 X    SEC  0     ROOT SEC X 2
     2 GLC5        1 GROUP        1 X    GLC  0     **** GLC X 6
     3 SEP2       23 GROUP        1 Y    SEP  0     ROOT SEP Y 9
     4 GLP5        3 GROUP        1 Y    GLP  0     **** GLP Y 13
     5 SEL2       22 GROUP        1 Z    SEL  0     ROOT SEL Z 16
     6 GLL5        2 GROUP        1 Z    GLL  0     **** GLL Z 20
@<TRIPOS>SET

