#    Name: 1h62_ANB_1_ligand
#    Modification time : Tue Mar 25 04:45:29 2014

@<TRIPOS>MOLECULE
1h62_ANB_1_ligand
   45    48     1     0     0
SMALL
NO_CHARGES


@<TRIPOS>ATOM
      1 C1         20.4160   11.6840   21.3750 C.2       1 ANB501      0.0000 
      2 C10        21.4620   11.3680   20.3070 C.3       1 ANB501      0.0000 
      3 C11        21.1220   13.6310   19.1580 C.3       1 ANB501      0.0000 
      4 C12        20.8530   14.3810   17.8010 C.3       1 ANB501      0.0000 
      5 C13        22.0170   14.1080   16.8370 C.3       1 ANB501      0.0000 
      6 C14        22.0480   12.6050   16.5620 C.3       1 ANB501      0.0000 
      7 C15        23.0080   12.4420   15.3320 C.3       1 ANB501      0.0000 
      8 C16        22.4890   13.6390   14.4970 C.3       1 ANB501      0.0000 
      9 C17        21.8480   14.7210   15.4410 C.2       1 ANB501      0.0000 
     10 C18        23.3880   14.6970   17.3790 C.3       1 ANB501      0.0000 
     11 C19        22.8520   11.8150   20.9410 C.3       1 ANB501      0.0000 
     12 C2         19.6430   10.7440   21.9520 C.2       1 ANB501      0.0000 
     13 C3         19.7660    9.3090   21.5690 C.2       1 ANB501      0.0000 
     14 C4         20.7410    8.9630   20.5510 C.2       1 ANB501      0.0000 
     15 C5         21.5560    9.8730   19.9330 C.2       1 ANB501      0.0000 
     16 C6         22.5490    9.4620   18.8880 C.3       1 ANB501      0.0000 
     17 C7         22.3380   10.3250   17.6190 C.3       1 ANB501      0.0000 
     18 C8         22.3010   11.7680   17.8620 C.3       1 ANB501      0.0000 
     19 C9         21.1840   12.1630   18.9690 C.3       1 ANB501      0.0000 
     20 O1         19.0740    8.4260   22.0780 O.2       1 ANB501      0.0000 
     21 O2         21.3690   15.7320   15.1630 O.2       1 ANB501      0.0000 
     22 H          20.3546   12.6928   21.6168 H         1 ANB501      0.0000 
     23 H          20.3176   13.9039   19.8460 H         1 ANB501      0.0000 
     24 H          22.0630   14.0143   19.5611 H         1 ANB501      0.0000 
     25 H          20.7831   15.4352   18.0030 H         1 ANB501      0.0000 
     26 H          19.9348   14.0085   17.3826 H         1 ANB501      0.0000 
     27 H          21.0247   12.3579   16.1858 H         1 ANB501      0.0000 
     28 H          22.7952   11.5553   14.8496 H         1 ANB501      0.0000 
     29 H          23.9793   12.6154   15.6333 H         1 ANB501      0.0000 
     30 H          21.7355   13.2964   13.8053 H         1 ANB501      0.0000 
     31 H          23.3113   14.0908   13.9647 H         1 ANB501      0.0000 
     32 H          18.9408   10.9558   22.6720 H         1 ANB501      0.0000 
     33 H          20.7993    7.9455   20.2965 H         1 ANB501      0.0000 
     34 H          22.4097    8.4217   18.6219 H         1 ANB501      0.0000 
     35 H          23.5596    9.6178   19.2441 H         1 ANB501      0.0000 
     36 H          21.3956    9.9840   17.1406 H         1 ANB501      0.0000 
     37 H          23.1501   10.0684   16.9063 H         1 ANB501      0.0000 
     38 H          23.2520   12.1166   18.2838 H         1 ANB501      0.0000 
     39 H          20.2375   11.7892   18.5663 H         1 ANB501      0.0000 
     40 H          24.1436   14.5194   16.7485 H         1 ANB501      0.0000 
     41 H          23.3412   15.6874   17.5088 H         1 ANB501      0.0000 
     42 H          23.6414   14.2975   18.2600 H         1 ANB501      0.0000 
     43 H          23.6148   11.6537   20.3148 H         1 ANB501      0.0000 
     44 H          22.8604   12.7887   21.1685 H         1 ANB501      0.0000 
     45 H          23.0537   11.3154   21.7835 H         1 ANB501      0.0000 
@<TRIPOS>BOND
     1    2    1 1    
     2   12    1 2    
     3   22    1 1    
     4   11    2 1    
     5   15    2 1    
     6   19    2 1    
     7    4    3 1    
     8   19    3 1    
     9   23    3 1    
    10   24    3 1    
    11    5    4 1    
    12   25    4 1    
    13   26    4 1    
    14    6    5 1    
    15    9    5 1    
    16   10    5 1    
    17    7    6 1    
    18   18    6 1    
    19   27    6 1    
    20    8    7 1    
    21   28    7 1    
    22   29    7 1    
    23    9    8 1    
    24   30    8 1    
    25   31    8 1    
    26   21    9 2    
    27   40   10 1    
    28   41   10 1    
    29   42   10 1    
    30   43   11 1    
    31   44   11 1    
    32   45   11 1    
    33   13   12 1    
    34   32   12 1    
    35   14   13 1    
    36   20   13 2    
    37   15   14 2    
    38   33   14 1    
    39   16   15 1    
    40   17   16 1    
    41   34   16 1    
    42   35   16 1    
    43   18   17 1    
    44   36   17 1    
    45   37   17 1    
    46   19   18 1    
    47   38   18 1    
    48   39   19 1    
@<TRIPOS>SUBSTRUCTURE
     1 ANB501      1 GROUP   
@<TRIPOS>SET

