#    Name: 2fes_3SP_1_INTS_M
#    Modification time : Tue Mar 25 12:29:34 2014

@<TRIPOS>MOLECULE
2fes_3SP_1_INTS_M
   68     0     9     0     0
SMALL
NO_CHARGES


@<TRIPOS>ATOM
      1 N          15.7730   20.9210   24.1755 N.am      2 SEC2        0.0000 
      2 N          16.6170   20.3080   23.1680 N.am      8 SEL2        0.0000 
      3 N          14.9290   21.5340   25.1830 N.am      5 SEP2        0.0000 
      4 CA         17.8080   19.6965   26.1535 C.3       3 GLC5        0.0000 
      5 CA         18.3360   18.3100   24.6380 C.3       9 GLL5        0.0000 
      6 CA         17.2800   21.0830   27.6690 C.3       6 GLP5        0.0000 
      7 CA         18.6550   20.8505   24.7395 C.3       3 GLC5        0.0000 
      8 CA         19.7330   18.9520   24.6680 C.3       9 GLL5        0.0000 
      9 CA         17.5770   22.7490   24.8110 C.3       6 GLP5        0.0000 
     10 CA         20.1580   18.6790   28.0240 C.3       3 GLC5        0.0000 
     11 CA         20.0560   19.4310   26.0940 C.3       9 GLL5        0.0000 
     12 CA         20.2600   17.9270   29.9540 C.3       6 GLP5        0.0000 
     13 CA         18.6680   20.2570   26.8815 C.3       3 GLC5        0.0000 
     14 CA         21.8630   21.6975   24.8880 C.3       3 GLC5        0.0000 
     15 CA         21.4420   20.1250   26.1110 C.3       9 GLL5        0.0000 
     16 CA         22.2840   23.2700   23.6650 C.3       6 GLP5        0.0000 
     17 CA         21.4300   20.1235   28.2305 C.3       3 GLC5        0.0000 
     18 CA         21.4180   20.1220   30.3500 C.3       6 GLP5        0.0000 
     19 CA         19.6645   21.2200   26.7525 C.3       3 GLC5        0.0000 
     20 CA         17.8870   22.3150   27.3940 C.3       6 GLP5        0.0000 
     21 CA         22.0125   18.1985   27.4990 C.3       3 GLC5        0.0000 
     22 CA         22.5430   19.1530   25.6190 C.3       9 GLL5        0.0000 
     23 CA         21.4820   17.2440   29.3790 C.3       6 GLP5        0.0000 
     24 CA         22.8750   18.9770   22.1095 C.3       3 GLC5        0.0000 
     25 CA         22.2030   18.6110   24.2080 C.3       9 GLL5        0.0000 
     26 CA         23.5470   19.3430   20.0110 C.3       6 GLP5        0.0000 
     27 N          12.9665   16.3750   23.8765 N.am      2 SEC2        0.0000 
     28 N          14.0980   16.3020   23.1370 N.am      8 SEL2        0.0000 
     29 N          11.8350   16.4480   24.6160 N.am      5 SEP2        0.0000 
     30 CA         17.8130   22.1290   22.9080 C.3       3 GLC5        0.0000 
     31 CA         18.0490   21.5090   21.0050 C.3       9 GLL5        0.0000 
     32 CA         19.0445   20.1725   18.2415 C.3       3 GLC5        0.0000 
     33 CA         19.0900   21.6240   19.8540 C.3       9 GLL5        0.0000 
     34 CA         18.9990   18.7210   16.6290 C.3       6 GLP5        0.0000 
     35 CA         10.5495   19.9990   21.8450 C.3       3 GLC5        0.0000 
     36 CA         12.3400   20.9380   22.4630 C.3       9 GLL5        0.0000 
     37 CA          8.7590   19.0600   21.2270 C.3       6 GLP5        0.0000 
     38 CA         12.7310   25.3195   21.8780 C.3       3 GLC5        0.0000 
     39 CA         12.8240   23.4510   22.2520 C.3       9 GLL5        0.0000 
     40 CA         12.6380   27.1880   21.5040 C.3       6 GLP5        0.0000 
     41 O           9.1645   21.4730   25.2010 O.2       1 ALC1        0.0000 
     42 O          10.3540   21.3350   24.6170 O.2       7 ALL1        0.0000 
     43 O           7.9750   21.6110   25.7850 O.2       4 ALP1        0.0000 
     44 O          10.3790   19.8795   24.2360 O.2       1 ALC1        0.0000 
     45 O          10.4040   18.4240   23.8550 O.2       4 ALP1        0.0000 
     46 CA         14.9685   24.4785   18.8970 C.3       3 GLC5        0.0000 
     47 CA         14.5280   22.8060   20.2700 C.3       9 GLL5        0.0000 
     48 CA         15.4090   26.1510   17.5240 C.3       6 GLP5        0.0000 
     49 O          16.4865   23.7895   21.5520 O.2       1 ALC1        0.0000 
     50 O          15.8550   22.6880   20.7500 O.2       7 ALL1        0.0000 
     51 O          17.1180   24.8910   22.3540 O.2       4 ALP1        0.0000 
     52 CA         23.1692   20.7995   26.9325 C.3       3 GLC5        0.0000 
     53 CA         24.3460   21.9600   28.0000 C.3       6 GLP5        0.0000 
     54 CA         18.9432   23.1043   19.3433 C.3       3 GLC5        0.0000 
     55 CA         19.3170   24.6420   18.2570 C.3       6 GLP5        0.0000 
     56 CA         21.6485   19.6852   20.2952 C.3       3 GLC5        0.0000 
     57 CA         20.1650   20.5760   20.2440 C.3       9 GLL5        0.0000 
     58 CA         19.2225   18.9387   19.1343 C.3       3 GLC5        0.0000 
     59 CA         18.6950   17.8500   17.6890 C.3       6 GLP5        0.0000 
     60 CA         20.1126   22.1751   21.7439 C.3       3 GLC5        0.0000 
     61 CA         20.8580   23.2790   23.1510 C.3       6 GLP5        0.0000 
     62 CA         10.5777   21.8747   21.4340 C.3       3 GLC5        0.0000 
     63 CA          8.9920   22.1890   20.1330 C.3       6 GLP5        0.0000 
     64 CA         13.0503   21.1987   24.3570 C.3       3 GLC5        0.0000 
     65 CA         11.9870   22.1830   23.0070 C.3       9 GLL5        0.0000 
     66 CA         13.9370   20.8370   25.9790 C.3       6 GLP5        0.0000 
     67 CA         14.7365   23.1590   23.0767 C.3       3 GLC5        0.0000 
     68 CA         16.2340   23.3920   24.4250 C.3       6 GLP5        0.0000 
@<TRIPOS>BOND
@<TRIPOS>SUBSTRUCTURE
     1 ALC1       41 GROUP        1 X    ALC  0     ROOT ALC X 1
     2 SEC2        1 GROUP        1 X    SEC  0     **** SEC X 2
     3 GLC5        4 GROUP        1 X    GLC  0     **** GLC X 6
     4 ALP1       43 GROUP        1 Y    ALP  0     ROOT ALP Y 8
     5 SEP2        3 GROUP        1 Y    SEP  0     **** SEP Y 9
     6 GLP5        6 GROUP        1 Y    GLP  0     **** GLP Y 13
     7 ALL1       42 GROUP        1 Z    ALL  0     ROOT ALL Z 15
     8 SEL2        2 GROUP        1 Z    SEL  0     **** SEL Z 16
     9 GLL5        5 GROUP        1 Z    GLL  0     **** GLL Z 20
@<TRIPOS>SET

