#    Name: 2fes_3SP_1_ligand
#    Modification time : Tue Mar 25 12:29:35 2014

@<TRIPOS>MOLECULE
2fes_3SP_1_ligand
   63    65     1     0     0
SMALL
NO_CHARGES


@<TRIPOS>ATOM
      1 C18        17.5080   19.6480   22.6620 C.2       1 3SP1        0.0000 
      2 O19        16.6170   20.3080   23.1680 O.2       1 3SP1        0.0000 
      3 C20        17.7870   18.2500   23.1910 C.3       1 3SP1        0.0000 
      4 C24        18.3360   18.3100   24.6380 C.3       1 3SP1        0.0000 
      5 C25        19.7330   18.9520   24.6680 C.3       1 3SP1        0.0000 
      6 C26        20.0560   19.4310   26.0940 C.3       1 3SP1        0.0000 
      7 C27        21.4420   20.1250   26.1110 C.3       1 3SP1        0.0000 
      8 C28        22.5430   19.1530   25.6190 C.3       1 3SP1        0.0000 
      9 C29        22.2030   18.6110   24.2080 C.3       1 3SP1        0.0000 
     10 C30        20.8070   17.9330   24.2120 C.3       1 3SP1        0.0000 
     11 N21        16.5380   17.4770   23.1680 N.3       1 3SP1        0.0000 
     12 C22        15.9690   17.0420   21.8790 C.3       1 3SP1        0.0000 
     13 C23        14.5150   16.6700   22.0490 C.2       1 3SP1        0.0000 
     14 O31        14.0980   16.3020   23.1370 O.3       1 3SP1        0.0000 
     15 O32        13.7530   16.7330   21.0900 O.2       1 3SP1        0.0000 
     16 N17        18.2390   20.1610   21.6210 N.am      1 3SP1        0.0000 
     17 C13        18.0490   21.5090   21.0050 C.3       1 3SP1        0.0000 
     18 C11        16.6420   21.6020   20.4500 C.2       1 3SP1        0.0000 
     19 O12        16.2130   20.6880   19.7550 O.2       1 3SP1        0.0000 
     20 C14        19.0900   21.6240   19.8540 C.3       1 3SP1        0.0000 
     21 C15        20.1650   20.5760   20.2440 C.3       1 3SP1        0.0000 
     22 C16        19.3350   19.4790   20.9150 C.3       1 3SP1        0.0000 
     23 C1         11.9870   22.1830   23.0070 C.2       1 3SP1        0.0000 
     24 C2         12.3400   20.9380   22.4630 C.2       1 3SP1        0.0000 
     25 C3         13.2930   21.0600   21.4330 C.2       1 3SP1        0.0000 
     26 C4         13.6540   22.4010   21.2050 C.2       1 3SP1        0.0000 
     27 S5         12.8240   23.4510   22.2520 S.3       1 3SP1        0.0000 
     28 C6         11.0020   22.3810   24.0950 C.2       1 3SP1        0.0000 
     29 N7         10.3540   21.3350   24.6170 N.pl3     1 3SP1        0.0000 
     30 N8         10.7540   23.6110   24.5520 N.2       1 3SP1        0.0000 
     31 C9         14.5280   22.8060   20.2700 C.3       1 3SP1        0.0000 
     32 N10        15.8550   22.6880   20.7500 N.am      1 3SP1        0.0000 
     33 H          18.5263   17.7824   22.5688 H         1 3SP1        0.0000 
     34 H          18.3952   17.3010   25.0340 H         1 3SP1        0.0000 
     35 H          17.6569   18.8976   25.2480 H         1 3SP1        0.0000 
     36 H          19.7507   19.7915   24.0067 H         1 3SP1        0.0000 
     37 H          20.0793   18.5824   26.7622 H         1 3SP1        0.0000 
     38 H          19.3047   20.1379   26.4152 H         1 3SP1        0.0000 
     39 H          21.6697   20.4365   27.1228 H         1 3SP1        0.0000 
     40 H          21.4136   20.9888   25.4586 H         1 3SP1        0.0000 
     41 H          22.6169   18.3217   26.3098 H         1 3SP1        0.0000 
     42 H          23.4888   19.6797   25.5780 H         1 3SP1        0.0000 
     43 H          22.9486   17.8830   23.9178 H         1 3SP1        0.0000 
     44 H          22.1949   19.4325   23.5042 H         1 3SP1        0.0000 
     45 H          20.5753   17.5950   23.2139 H         1 3SP1        0.0000 
     46 H          20.8205   17.1000   24.8976 H         1 3SP1        0.0000 
     47 H          16.5142   16.1739   21.4965 H         1 3SP1        0.0000 
     48 H          16.0450   17.8450   21.1397 H         1 3SP1        0.0000 
     49 H          18.2292   22.2681   21.7080 H         1 3SP1        0.0000 
     50 H          19.5148   22.5864   19.8602 H         1 3SP1        0.0000 
     51 H          18.6392   21.3475   18.9445 H         1 3SP1        0.0000 
     52 H          20.8316   21.0027   20.9385 H         1 3SP1        0.0000 
     53 H          20.6209   20.2034   19.3711 H         1 3SP1        0.0000 
     54 H          18.9545   18.8197   20.1534 H         1 3SP1        0.0000 
     55 H          19.9651   18.9423   21.6038 H         1 3SP1        0.0000 
     56 H          11.9726   20.0924   22.7595 H         1 3SP1        0.0000 
     57 H          13.6558   20.3107   20.9412 H         1 3SP1        0.0000 
     58 H           9.6918   21.5423   25.3370 H         1 3SP1        0.0000 
     59 H          10.5896   20.4390   24.2406 H         1 3SP1        0.0000 
     60 H          14.3465   23.8677   19.9587 H         1 3SP1        0.0000 
     61 H          14.4302   22.2163   19.3215 H         1 3SP1        0.0000 
     62 H          16.2285   23.4549   21.3455 H         1 3SP1        0.0000 
     63 H          14.1740   15.3050   23.1195 H         1 3SP1        0.0000 
@<TRIPOS>BOND
     1    2    1 2    
     2    3    1 1    
     3   16    1 am   
     4    4    3 1    
     5   11    3 1    
     6   33    3 1    
     7    5    4 1    
     8   34    4 1    
     9   35    4 1    
    10    6    5 1    
    11   10    5 1    
    12   36    5 1    
    13    7    6 1    
    14   37    6 1    
    15   38    6 1    
    16    8    7 1    
    17   39    7 1    
    18   40    7 1    
    19    9    8 1    
    20   41    8 1    
    21   42    8 1    
    22   10    9 1    
    23   43    9 1    
    24   44    9 1    
    25   45   10 1    
    26   46   10 1    
    27   12   11 1    
    28   13   12 1    
    29   47   12 1    
    30   48   12 1    
    31   14   13 1    
    32   15   13 2    
    33   63   14 1    
    34   17   16 1    
    35   22   16 1    
    36   18   17 1    
    37   20   17 1    
    38   49   17 1    
    39   19   18 2    
    40   32   18 am   
    41   21   20 1    
    42   50   20 1    
    43   51   20 1    
    44   22   21 1    
    45   52   21 1    
    46   53   21 1    
    47   54   22 1    
    48   55   22 1    
    49   24   23 2    
    50   27   23 1    
    51   28   23 1    
    52   25   24 1    
    53   56   24 1    
    54   26   25 2    
    55   57   25 1    
    56   27   26 1    
    57   31   26 1    
    58   29   28 1    
    59   30   28 2    
    60   58   29 1    
    61   59   29 1    
    62   32   31 1    
    63   60   31 1    
    64   61   31 1    
    65   62   32 1    
@<TRIPOS>SUBSTRUCTURE
     1 3SP1        1 GROUP   
@<TRIPOS>SET

