#    Name: 3cqw_CQW_1_INTS_M
#    Modification time : Mon Mar 24 22:12:28 2014

@<TRIPOS>MOLECULE
3cqw_CQW_1_INTS_M
   61     0     9     0     0
SMALL
NO_CHARGES


@<TRIPOS>ATOM
      1 CA          2.1310    4.9165   14.5765 C.3       3 GLC5        0.0000 
      2 CA          3.5050    3.6640   15.7790 C.3       9 GLL5        0.0000 
      3 CA          0.7570    6.1690   13.3740 C.3       6 GLP5        0.0000 
      4 CA          2.3325    5.1385   16.9860 C.3       3 GLC5        0.0000 
      5 CA          1.1600    6.6130   18.1930 C.3       6 GLP5        0.0000 
      6 CA          5.7900    6.2265   14.6095 C.3       3 GLC5        0.0000 
      7 CA          4.6600    5.6530   16.1330 C.3       9 GLL5        0.0000 
      8 CA          6.9200    6.8000   13.0860 C.3       6 GLP5        0.0000 
      9 CA          4.3245    4.6865   14.2725 C.3       3 GLC5        0.0000 
     10 CA          3.9890    3.7200   12.4120 C.3       6 GLP5        0.0000 
     11 CA          2.9100    6.1330   17.1630 C.3       3 GLC5        0.0000 
     12 CA          5.0330    6.0165   17.7145 C.3       3 GLC5        0.0000 
     13 CA          5.4060    6.3800   19.2960 C.3       6 GLP5        0.0000 
     14 CA          8.1075    4.8360   21.0575 C.3       3 GLC5        0.0000 
     15 CA          8.1540    3.3920   19.3700 C.3       9 GLL5        0.0000 
     16 CA          8.0610    6.2800   22.7450 C.3       6 GLP5        0.0000 
     17 O           1.2775    3.1695   14.8865 O.2       1 ALC1        0.0000 
     18 O           2.4620    2.7910   15.5040 O.2       7 ALL1        0.0000 
     19 O           0.0930    3.5480   14.2690 O.2       4 ALP1        0.0000 
     20 CA          6.9270    5.3980   18.8060 C.3       3 GLC5        0.0000 
     21 CA          8.4480    4.4160   18.3160 C.3       9 GLL5        0.0000 
     22 CA          7.8320    6.3660   17.7130 C.3       3 GLC5        0.0000 
     23 CA          7.2160    8.3160   17.1100 C.3       6 GLP5        0.0000 
     24 CA          7.1400    0.3830   15.1865 C.3       3 GLC5        0.0000 
     25 CA          5.1890    0.0340   16.0180 C.3       9 GLL5        0.0000 
     26 CA          9.0910    0.7320   14.3550 C.3       6 GLP5        0.0000 
     27 CA          6.3605   -1.4865   15.8505 C.3       3 GLC5        0.0000 
     28 CA          7.5320   -3.0070   15.6830 C.3       6 GLP5        0.0000 
     29 CA          4.4230    0.1240   18.0765 C.3       3 GLC5        0.0000 
     30 CA          3.6570    0.2140   20.1350 C.3       6 GLP5        0.0000 
     31 CA          1.3360    0.7730   16.0140 C.3       3 GLC5        0.0000 
     32 CA          2.9290    1.5050   15.5760 C.3       9 GLL5        0.0000 
     33 CA         -0.2570    0.0410   16.4520 C.3       6 GLP5        0.0000 
     34 N           2.3330    5.8820   15.7620 N.am      2 SEC2        0.0000 
     35 N           3.5360    4.9980   15.8130 N.am      8 SEL2        0.0000 
     36 N           1.1300    6.7660   15.7110 N.am      5 SEP2        0.0000 
     37 CA          6.6755    2.9610   14.8045 C.3       3 GLC5        0.0000 
     38 CA          5.8100    3.6280   16.4240 C.3       9 GLL5        0.0000 
     39 CA          7.5410    2.2940   13.1850 C.3       6 GLP5        0.0000 
     40 CA          8.1275    1.3055   15.9955 C.3       3 GLC5        0.0000 
     41 CA          7.1640    1.8790   17.6360 C.3       9 GLL5        0.0000 
     42 O           9.2230    4.2075   21.3080 O.2       1 ALC1        0.0000 
     43 O           8.5560    3.3120   20.6860 O.2       7 ALL1        0.0000 
     44 O           9.8900    5.1030   21.9300 O.2       4 ALP1        0.0000 
     45 CA          8.7460    5.1950   15.4195 C.3       3 GLC5        0.0000 
     46 CA          8.2690    3.8790   16.8780 C.3       9 GLL5        0.0000 
     47 CA          9.2230    6.5110   13.9610 C.3       6 GLP5        0.0000 
     48 CA          8.6305    2.9360   15.1935 C.3       3 GLC5        0.0000 
     49 CA          8.9920    1.9930   13.5090 C.3       6 GLP5        0.0000 
     50 CA          5.9938    2.2430   14.5800 C.3       3 GLC5        0.0000 
     51 CA          4.6550    2.8970   16.0700 C.3       9 GLL5        0.0000 
     52 CA          3.7862    2.6080   14.0700 C.3       3 GLC5        0.0000 
     53 CA          4.2380    1.4870   15.8800 C.3       9 GLL5        0.0000 
     54 CA          3.7906   -0.1246   14.6848 C.3       3 GLC5        0.0000 
     55 CA          3.7600   -1.3820   13.6070 C.3       6 GLP5        0.0000 
     56 CA          3.3159    1.6252   17.7082 C.3       3 GLC5        0.0000 
     57 CA          2.9440    1.4020   19.6410 C.3       6 GLP5        0.0000 
     58 CA          4.4670    3.5871   14.2931 C.3       3 GLC5        0.0000 
     59 CA          4.8530    4.0551   17.9561 C.3       3 GLC5        0.0000 
     60 CA          4.7610    4.6560   19.7380 C.3       6 GLP5        0.0000 
     61 CA          6.1405    3.4986   19.0795 C.3       3 GLC5        0.0000 
@<TRIPOS>BOND
@<TRIPOS>SUBSTRUCTURE
     1 ALC1       17 GROUP        1 X    ALC  0     ROOT ALC X 1
     2 SEC2       34 GROUP        1 X    SEC  0     **** SEC X 2
     3 GLC5        1 GROUP        1 X    GLC  0     **** GLC X 6
     4 ALP1       19 GROUP        1 Y    ALP  0     ROOT ALP Y 8
     5 SEP2       36 GROUP        1 Y    SEP  0     **** SEP Y 9
     6 GLP5        3 GROUP        1 Y    GLP  0     **** GLP Y 13
     7 ALL1       18 GROUP        1 Z    ALL  0     ROOT ALL Z 15
     8 SEL2       35 GROUP        1 Z    SEL  0     **** SEL Z 16
     9 GLL5        2 GROUP        1 Z    GLL  0     **** GLL Z 20
@<TRIPOS>SET

