#    Name: 3cqw_CQW_1_ligand
#    Modification time : Mon Mar 24 22:12:28 2014

@<TRIPOS>MOLECULE
3cqw_CQW_1_ligand
   30    33     1     0     0
SMALL
NO_CHARGES


@<TRIPOS>ATOM
      1 C7          3.5050    3.6640   15.7790 C.ar      1 CQW999      0.0000 
      2 C9          4.6600    5.6530   16.1330 C.ar      1 CQW999      0.0000 
      3 C13         4.6550    2.8970   16.0700 C.ar      1 CQW999      0.0000 
      4 C21         8.1540    3.3920   19.3700 C.2       1 CQW999      0.0000 
      5 N5          2.4620    2.7910   15.5040 N.pl3     1 CQW999      0.0000 
      6 C18         8.4480    4.4160   18.3160 C.3       1 CQW999      0.0000 
      7 CL1         5.1890    0.0340   16.0180 Cl        1 CQW999      0.0000 
      8 C2          4.2380    1.4870   15.8800 C.2       1 CQW999      0.0000 
      9 C3          2.9290    1.5050   15.5760 C.2       1 CQW999      0.0000 
     10 N8          3.5360    4.9980   15.8130 N.ar      1 CQW999      0.0000 
     11 C12         5.8100    3.6280   16.4240 C.ar      1 CQW999      0.0000 
     12 N11         5.7690    4.9660   16.3990 N.ar      1 CQW999      0.0000 
     13 N14         7.0580    3.0390   16.7200 N.3       1 CQW999      0.0000 
     14 C28         7.1640    1.8790   17.6360 C.3       1 CQW999      0.0000 
     15 C27         7.5980    2.2150   19.0420 C.2       1 CQW999      0.0000 
     16 N26         7.6210    1.4130   20.1620 N.2       1 CQW999      0.0000 
     17 C24         8.1940    2.0980   21.1470 C.2       1 CQW999      0.0000 
     18 N22         8.5560    3.3120   20.6860 N.pl3     1 CQW999      0.0000 
     19 C15         8.2690    3.8790   16.8780 C.3       1 CQW999      0.0000 
     20 H           4.6624    6.6963   16.1725 H         1 CQW999      0.0000 
     21 H           1.5649    3.0546   15.2984 H         1 CQW999      0.0000 
     22 H           9.4825    4.7766   18.4204 H         1 CQW999      0.0000 
     23 H           7.7853    5.2856   18.4416 H         1 CQW999      0.0000 
     24 H           2.3721    0.7147   15.4239 H         1 CQW999      0.0000 
     25 H           7.8781    1.1352   17.2145 H         1 CQW999      0.0000 
     26 H           6.1837    1.3524   17.6856 H         1 CQW999      0.0000 
     27 H           8.3345    1.7832   22.0578 H         1 CQW999      0.0000 
     28 H           9.0077    4.0012   21.1676 H         1 CQW999      0.0000 
     29 H           9.1715    3.3039   16.6170 H         1 CQW999      0.0000 
     30 H           8.2277    4.7436   16.1968 H         1 CQW999      0.0000 
@<TRIPOS>BOND
     1    3    1 ar   
     2    5    1 1    
     3   10    1 ar   
     4   10    2 ar   
     5   12    2 ar   
     6   20    2 1    
     7    8    3 1    
     8   11    3 ar   
     9    6    4 1    
    10   15    4 2    
    11   18    4 1    
    12    9    5 1    
    13   21    5 1    
    14   19    6 1    
    15   22    6 1    
    16   23    6 1    
    17    8    7 1    
    18    9    8 2    
    19   24    9 1    
    20   12   11 ar   
    21   13   11 1    
    22   14   13 1    
    23   19   13 1    
    24   15   14 1    
    25   25   14 1    
    26   26   14 1    
    27   16   15 1    
    28   17   16 2    
    29   18   17 1    
    30   27   17 1    
    31   28   18 1    
    32   29   19 1    
    33   30   19 1    
@<TRIPOS>SUBSTRUCTURE
     1 CQW999      1 GROUP   
@<TRIPOS>SET

