#    Name: 2uzh_CDP_3_INTS_M
#    Modification time : Tue Mar 25 00:34:56 2014

@<TRIPOS>MOLECULE
2uzh_CDP_3_INTS_M
   41     0     9     0     0
SMALL
NO_CHARGES


@<TRIPOS>ATOM
      1 N          42.8135   53.0035   20.1865 N.am      2 SEC2        0.0000 
      2 N          42.9090   54.6200   19.8630 N.am      8 SEL2        0.0000 
      3 N          42.7180   51.3870   20.5100 N.am      5 SEP2        0.0000 
      4 N          41.8230   52.4285   19.6160 N.am      2 SEC2        0.0000 
      5 N          40.9280   53.4700   18.7220 N.am      8 SEL2        0.0000 
      6 N          41.2550   52.4375   18.2095 N.am      2 SEC2        0.0000 
      7 N          41.5820   51.4050   17.6970 N.am      5 SEP2        0.0000 
      8 N          40.5650   58.7540   23.4760 N.am      2 SEC2        0.0000 
      9 N          41.0860   57.5110   22.9590 N.am      8 SEL2        0.0000 
     10 N          40.0440   59.9970   23.9930 N.am      5 SEP2        0.0000 
     11 O          42.3435   57.1935   23.3700 O.2       1 ALC1        0.0000 
     12 O          41.0860   57.5110   22.9590 O.2       7 ALL1        0.0000 
     13 O          43.6010   56.8760   23.7810 O.2       4 ALP1        0.0000 
     14 O          39.8305   57.5650   25.7890 O.2       1 ALC1        0.0000 
     15 O          39.1430   56.9240   24.7960 O.2       7 ALL1        0.0000 
     16 O          40.5180   58.2060   26.7820 O.2       4 ALP1        0.0000 
     17 O          40.2800   56.5960   25.9530 O.2       1 ALC1        0.0000 
     18 O          41.4170   56.2680   27.1100 O.2       4 ALP1        0.0000 
     19 N          37.1485   51.8635   26.4335 N.am      2 SEC2        0.0000 
     20 N          37.7240   53.3150   25.6490 N.am      8 SEL2        0.0000 
     21 N          36.5730   50.4120   27.2180 N.am      5 SEP2        0.0000 
     22 N          36.9695   53.1405   26.8740 N.am      2 SEC2        0.0000 
     23 N          36.2150   52.9660   28.0990 N.am      5 SEP2        0.0000 
     24 N          37.5340   50.8735   26.0490 N.am      2 SEC2        0.0000 
     25 N          38.4950   51.3350   24.8800 N.am      8 SEL2        0.0000 
     26 O          40.1005   48.5815   23.0050 O.2       1 ALC1        0.0000 
     27 O          39.3150   49.2950   24.0620 O.2       7 ALL1        0.0000 
     28 O          40.8860   47.8680   21.9480 O.2       4 ALP1        0.0000 
     29 O          38.2175   48.3665   24.7530 O.2       1 ALC1        0.0000 
     30 O          37.1200   47.4380   25.4440 O.2       4 ALP1        0.0000 
     31 CA         39.1735   57.9673   23.5860 C.3       3 GLC5        0.0000 
     32 CA         39.1700   56.4010   21.9140 C.3       9 GLL5        0.0000 
     33 CA         38.5800   59.8710   23.9260 C.3       6 GLP5        0.0000 
     34 CA         40.5295   51.9892   24.5708 C.3       3 GLC5        0.0000 
     35 CA         39.5740   52.6840   22.6860 C.3       9 GLL5        0.0000 
     36 CA         41.4060   51.9880   26.3930 C.3       6 GLP5        0.0000 
     37 CA         41.5685   52.2422   22.6538 C.3       3 GLC5        0.0000 
     38 CA         39.7320   51.2970   22.8110 C.3       9 GLL5        0.0000 
     39 CA         43.4840   52.4940   22.5590 C.3       6 GLP5        0.0000 
     40 CA         39.9280   51.0962   21.0318 C.3       3 GLC5        0.0000 
     41 CA         40.2030   50.2020   19.3150 C.3       6 GLP5        0.0000 
@<TRIPOS>BOND
@<TRIPOS>SUBSTRUCTURE
     1 ALC1       11 GROUP        1 X    ALC  0     ROOT ALC X 1
     2 SEC2        1 GROUP        1 X    SEC  0     **** SEC X 2
     3 GLC5       31 GROUP        1 X    GLC  0     **** GLC X 6
     4 ALP1       13 GROUP        1 Y    ALP  0     ROOT ALP Y 8
     5 SEP2        3 GROUP        1 Y    SEP  0     **** SEP Y 9
     6 GLP5       33 GROUP        1 Y    GLP  0     **** GLP Y 13
     7 ALL1       12 GROUP        1 Z    ALL  0     ROOT ALL Z 15
     8 SEL2        2 GROUP        1 Z    SEL  0     **** SEL Z 16
     9 GLL5       32 GROUP        1 Z    GLL  0     **** GLL Z 20
@<TRIPOS>SET

