#    Name: 2uzh_CDP_3_ligand
#    Modification time : Tue Mar 25 00:34:56 2014

@<TRIPOS>MOLECULE
2uzh_CDP_3_ligand
   37    38     1     0     0
SMALL
NO_CHARGES


@<TRIPOS>ATOM
      1 O3B        45.2090   55.6350   20.2100 O.co2     1 CDP1158     0.0000 
      2 PB         44.2370   55.1600   19.1600 P.3       1 CDP1158     0.0000 
      3 O1B        43.8310   56.6370   18.5090 O.co2     1 CDP1158     0.0000 
      4 O2B        44.8150   54.2360   18.1170 O.co2     1 CDP1158     0.0000 
      5 O3A        42.9090   54.6200   19.8630 O.3       1 CDP1158     0.0000 
      6 PA         41.4420   54.7580   19.1970 P.3       1 CDP1158     0.0000 
      7 O1A        41.4400   55.9200   18.2530 O.co2     1 CDP1158     0.0000 
      8 O2A        40.9280   53.4700   18.7220 O.co2     1 CDP1158     0.0000 
      9 O5'        40.5200   55.0470   20.4630 O.3       1 CDP1158     0.0000 
     10 C5'        39.5680   56.1160   20.4720 C.3       1 CDP1158     0.0000 
     11 C4'        39.1700   56.4010   21.9140 C.3       1 CDP1158     0.0000 
     12 O4'        38.3480   55.2730   22.2420 O.3       1 CDP1158     0.0000 
     13 C3'        40.3920   56.2550   22.8200 C.3       1 CDP1158     0.0000 
     14 O3'        41.0860   57.5110   22.9590 O.3       1 CDP1158     0.0000 
     15 C2'        39.7530   55.7990   24.1250 C.3       1 CDP1158     0.0000 
     16 O2'        39.1430   56.9240   24.7960 O.3       1 CDP1158     0.0000 
     17 C1'        38.6360   54.8810   23.6150 C.3       1 CDP1158     0.0000 
     18 N1         38.8530   53.4060   23.6750 N.am      1 CDP1158     0.0000 
     19 C2         38.3280   52.7150   24.7730 C.2       1 CDP1158     0.0000 
     20 O2         37.7240   53.3150   25.6490 O.2       1 CDP1158     0.0000 
     21 N3         38.4950   51.3350   24.8800 N.2       1 CDP1158     0.0000 
     22 C4         39.1860   50.6190   23.9080 C.2       1 CDP1158     0.0000 
     23 N4         39.3150   49.2950   24.0620 N.pl3     1 CDP1158     0.0000 
     24 C5         39.7320   51.2970   22.8110 C.2       1 CDP1158     0.0000 
     25 C6         39.5740   52.6840   22.6860 C.2       1 CDP1158     0.0000 
     26 H          38.6644   55.8575   19.9167 H         1 CDP1158     0.0000 
     27 H          39.9846   57.0320   20.0489 H         1 CDP1158     0.0000 
     28 H          38.7115   57.2898   22.0182 H         1 CDP1158     0.0000 
     29 H          40.9873   55.4695   22.4438 H         1 CDP1158     0.0000 
     30 H          40.4190   55.2578   24.6830 H         1 CDP1158     0.0000 
     31 H          37.7258   55.1266   24.2123 H         1 CDP1158     0.0000 
     32 H          38.5941   48.8406   24.5853 H         1 CDP1158     0.0000 
     33 H          40.1207   48.8793   23.6399 H         1 CDP1158     0.0000 
     34 H          40.2510   50.7756   22.0941 H         1 CDP1158     0.0000 
     35 H          39.9726   53.1823   21.8897 H         1 CDP1158     0.0000 
     36 H          41.9997   57.2671   23.2842 H         1 CDP1158     0.0000 
     37 H          39.8142   57.2131   25.4786 H         1 CDP1158     0.0000 
@<TRIPOS>BOND
     1    2    1 ar   
     2    3    2 ar   
     3    4    2 ar   
     4    5    2 1    
     5    6    5 1    
     6    7    6 ar   
     7    8    6 ar   
     8    9    6 1    
     9   10    9 1    
    10   11   10 1    
    11   26   10 1    
    12   27   10 1    
    13   12   11 1    
    14   13   11 1    
    15   28   11 1    
    16   17   12 1    
    17   14   13 1    
    18   15   13 1    
    19   29   13 1    
    20   36   14 1    
    21   16   15 1    
    22   17   15 1    
    23   30   15 1    
    24   37   16 1    
    25   18   17 1    
    26   31   17 1    
    27   19   18 am   
    28   25   18 1    
    29   20   19 2    
    30   21   19 1    
    31   22   21 2    
    32   23   22 1    
    33   24   22 1    
    34   32   23 1    
    35   33   23 1    
    36   25   24 2    
    37   34   24 1    
    38   35   25 1    
@<TRIPOS>SUBSTRUCTURE
     1 CDP1158     1 GROUP   
@<TRIPOS>SET

