#    Name: 2z6q_SAH_2_INTS_M
#    Modification time : Mon Apr  7 18:35:31 2014

@<TRIPOS>MOLECULE
2z6q_SAH_2_INTS_M
   70     0     9     0     0
SMALL
NO_CHARGES


@<TRIPOS>ATOM
      1 O         -16.8420   27.0790   78.6100 O.2       1 ALC1        0.0000 
      2 O         -16.5710   28.3570   79.6760 O.2       7 ALL1        0.0000 
      3 O         -17.1130   25.8010   77.5440 O.2       4 ALP1        0.0000 
      4 CA        -17.8555   26.6725   82.1715 C.3       3 GLC5        0.0000 
      5 CA        -17.3700   28.3080   80.9750 C.3       9 GLL5        0.0000 
      6 CA        -18.3410   25.0370   83.3680 C.3       6 GLP5        0.0000 
      7 CA        -18.9080   30.3480   81.8485 C.3       3 GLC5        0.0000 
      8 CA        -17.1690   29.3690   81.9870 C.3       9 GLL5        0.0000 
      9 CA        -20.6470   31.3270   81.7100 C.3       6 GLP5        0.0000 
     10 CA        -17.1855   31.3325   85.1025 C.3       3 GLC5        0.0000 
     11 CA        -15.9120   29.8830   84.2930 C.3       9 GLL5        0.0000 
     12 CA        -18.4590   32.7820   85.9120 C.3       6 GLP5        0.0000 
     13 N         -19.8280   27.0635   78.4930 N.am      2 SEC2        0.0000 
     14 N         -19.2260   28.1980   79.3930 N.am      8 SEL2        0.0000 
     15 N         -20.4300   25.9290   77.5930 N.am      5 SEP2        0.0000 
     16 N         -20.5875   28.9790   79.8900 N.am      2 SEC2        0.0000 
     17 N         -21.9490   29.7600   80.3870 N.am      5 SEP2        0.0000 
     18 N         -20.1070   26.6455   81.9150 N.am      2 SEC2        0.0000 
     19 N         -19.7230   28.1710   81.5760 N.am      8 SEL2        0.0000 
     20 N         -20.4910   25.1200   82.2540 N.am      5 SEP2        0.0000 
     21 N         -20.8360   28.9655   80.9815 N.am      2 SEC2        0.0000 
     22 CA        -12.7720   30.9310   85.1895 C.3       3 GLC5        0.0000 
     23 CA        -14.3050   29.4680   84.7900 C.3       9 GLL5        0.0000 
     24 CA        -11.2390   32.3940   85.5890 C.3       6 GLP5        0.0000 
     25 O         -15.8695   25.7535   85.7790 O.2       1 ALC1        0.0000 
     26 O         -16.2560   26.9780   86.3950 O.2       7 ALL1        0.0000 
     27 O         -15.4830   24.5290   85.1630 O.2       4 ALP1        0.0000 
     28 O         -15.6830   25.4975   86.8325 O.2       1 ALC1        0.0000 
     29 O         -15.1100   24.0170   87.2700 O.2       4 ALP1        0.0000 
     30 N         -13.3670   25.7610   89.4625 N.am      2 SEC2        0.0000 
     31 N         -14.6050   26.3040   88.5560 N.am      8 SEL2        0.0000 
     32 N         -12.1290   25.2180   90.3690 N.am      5 SEP2        0.0000 
     33 O         -14.8575   25.1605   87.9130 O.2       1 ALC1        0.0000 
     34 O         -14.6050   26.3040   88.5560 O.2       7 ALL1        0.0000 
     35 CA        -11.6265   26.7765   85.2950 C.3       3 GLC5        0.0000 
     36 CA        -13.0060   26.6730   86.7080 C.3       9 GLL5        0.0000 
     37 CA        -10.2470   26.8800   83.8820 C.3       6 GLP5        0.0000 
     38 CA        -10.1610   23.0825   88.6495 C.3       3 GLC5        0.0000 
     39 CA         -8.8820   24.4870   87.7650 C.3       9 GLL5        0.0000 
     40 CA        -11.4400   21.6780   89.5340 C.3       6 GLP5        0.0000 
     41 CA         -8.2460   22.5340   88.2230 C.3       3 GLC5        0.0000 
     42 CA         -7.6100   20.5810   88.6810 C.3       6 GLP5        0.0000 
     43 CA         -7.5820   24.2630   86.3730 C.3       3 GLC5        0.0000 
     44 CA         -6.2820   24.0390   84.9810 C.3       6 GLP5        0.0000 
     45 O          -6.6195   23.4715   88.9270 O.2       1 ALC1        0.0000 
     46 O          -7.6890   24.5950   88.3770 O.2       7 ALL1        0.0000 
     47 O          -5.5500   22.3480   89.4770 O.2       4 ALP1        0.0000 
     48 N          -8.0720   22.4070   86.8305 N.am      2 SEC2        0.0000 
     49 N          -9.2630   23.3310   87.1170 N.am      8 SEL2        0.0000 
     50 N          -6.8810   21.4830   86.5440 N.am      5 SEP2        0.0000 
     51 CA        -12.0495   22.3285   85.9025 C.3       3 GLC5        0.0000 
     52 CA        -10.4630   23.1880   86.4910 C.3       9 GLL5        0.0000 
     53 CA        -13.6360   21.4690   85.3140 C.3       6 GLP5        0.0000 
     54 CA        -10.9515   22.4330   88.0125 C.3       3 GLC5        0.0000 
     55 CA         -9.0365   21.8845   87.5860 C.3       3 GLC5        0.0000 
     56 CA         -8.5270   22.9300   85.4430 C.3       3 GLC5        0.0000 
     57 CA         -6.5910   22.6720   84.3950 C.3       6 GLP5        0.0000 
     58 N         -12.1995   22.9180   87.0410 N.am      2 SEC2        0.0000 
     59 N         -11.4250   24.1800   86.4390 N.am      8 SEL2        0.0000 
     60 N         -12.9740   21.6560   87.6430 N.am      5 SEP2        0.0000 
     61 CA        -11.2435   23.5000   88.3060 C.3       3 GLC5        0.0000 
     62 CA        -11.0470   25.3220   87.0780 C.3       9 GLL5        0.0000 
     63 CA        -13.2045   27.7550   83.6292 C.3       3 GLC5        0.0000 
     64 CA        -14.3270   27.9980   85.3770 C.3       9 GLL5        0.0000 
     65 CA        -12.0930   26.7770   82.1750 C.3       6 GLP5        0.0000 
     66 CA        -12.9887   25.4927   88.4670 C.3       3 GLC5        0.0000 
     67 CA        -12.4420   24.0310   89.7580 C.3       6 GLP5        0.0000 
     68 CA         -8.2467   26.6255   87.2230 C.3       3 GLC5        0.0000 
     69 CA         -9.8550   25.5410   87.7270 C.3       9 GLL5        0.0000 
     70 CA         -7.1250   28.2370   86.7000 C.3       6 GLP5        0.0000 
@<TRIPOS>BOND
@<TRIPOS>SUBSTRUCTURE
     1 ALC1        1 GROUP        1 X    ALC  0     ROOT ALC X 1
     2 SEC2       13 GROUP        1 X    SEC  0     **** SEC X 2
     3 GLC5        4 GROUP        1 X    GLC  0     **** GLC X 6
     4 ALP1        3 GROUP        1 Y    ALP  0     ROOT ALP Y 8
     5 SEP2       15 GROUP        1 Y    SEP  0     **** SEP Y 9
     6 GLP5        6 GROUP        1 Y    GLP  0     **** GLP Y 13
     7 ALL1        2 GROUP        1 Z    ALL  0     ROOT ALL Z 15
     8 SEL2       14 GROUP        1 Z    SEL  0     **** SEL Z 16
     9 GLL5        5 GROUP        1 Z    GLL  0     **** GLL Z 20
@<TRIPOS>SET

