#    Name: 2z6q_SAH_2_ligand
#    Modification time : Mon Apr  7 18:35:31 2014

@<TRIPOS>MOLECULE
2z6q_SAH_2_ligand
   46    48     1     0     0
SMALL
NO_CHARGES


@<TRIPOS>ATOM
      1 N         -16.5710   28.3570   79.6760 N.4       1 SAH328      0.0000 
      2 CA        -17.3700   28.3080   80.9750 C.3       1 SAH328      0.0000 
      3 CB        -17.1690   29.3690   81.9870 C.3       1 SAH328      0.0000 
      4 CG        -15.7810   29.6500   82.4890 C.3       1 SAH328      0.0000 
      5 SD        -15.9120   29.8830   84.2930 S.3       1 SAH328      0.0000 
      6 C         -18.9000   28.2180   80.5880 C.2       1 SAH328      0.0000 
      7 O         -19.2260   28.1980   79.3930 O.co2     1 SAH328      0.0000 
      8 OXT       -19.7230   28.1710   81.5760 O.co2     1 SAH328      0.0000 
      9 C5'       -14.3050   29.4680   84.7900 C.3       1 SAH328      0.0000 
     10 C4'       -14.3270   27.9980   85.3770 C.3       1 SAH328      0.0000 
     11 O4'       -12.9890   27.7900   85.7770 O.3       1 SAH328      0.0000 
     12 C3'       -15.1330   27.8120   86.6340 C.3       1 SAH328      0.0000 
     13 O3'       -16.2560   26.9780   86.3950 O.3       1 SAH328      0.0000 
     14 C2'       -14.0650   27.2360   87.6440 C.3       1 SAH328      0.0000 
     15 O2'       -14.6050   26.3040   88.5560 O.3       1 SAH328      0.0000 
     16 C1'       -13.0060   26.6730   86.7080 C.3       1 SAH328      0.0000 
     17 N9        -11.7880   26.5180   87.2140 N.pl3     1 SAH328      0.0000 
     18 C8        -10.9640   27.3480   87.9360 C.2       1 SAH328      0.0000 
     19 N7         -9.8300   26.8430   88.2630 N.2       1 SAH328      0.0000 
     20 C5         -9.8550   25.5410   87.7270 C.ar      1 SAH328      0.0000 
     21 C6         -8.8820   24.4870   87.7650 C.ar      1 SAH328      0.0000 
     22 N6         -7.6890   24.5950   88.3770 N.pl3     1 SAH328      0.0000 
     23 N1         -9.2630   23.3310   87.1170 N.ar      1 SAH328      0.0000 
     24 C2        -10.4630   23.1880   86.4910 C.ar      1 SAH328      0.0000 
     25 N3        -11.4250   24.1800   86.4390 N.ar      1 SAH328      0.0000 
     26 C4        -11.0470   25.3220   87.0780 C.ar      1 SAH328      0.0000 
     27 H         -17.1666   27.3101   81.4464 H         1 SAH328      0.0000 
     28 H         -17.8278   29.1495   82.8837 H         1 SAH328      0.0000 
     29 H         -17.6011   30.3398   81.5907 H         1 SAH328      0.0000 
     30 H         -15.3818   30.5720   82.1805 H         1 SAH328      0.0000 
     31 H         -15.1184   28.8367   82.4237 H         1 SAH328      0.0000 
     32 H         -14.0526   30.1714   85.5310 H         1 SAH328      0.0000 
     33 H         -13.7210   29.5216   83.9161 H         1 SAH328      0.0000 
     34 H         -14.6122   27.3342   84.6235 H         1 SAH328      0.0000 
     35 H         -15.3894   28.7945   86.9968 H         1 SAH328      0.0000 
     36 H         -13.6304   28.1132   88.1201 H         1 SAH328      0.0000 
     37 H         -13.4421   25.8450   86.2039 H         1 SAH328      0.0000 
     38 H         -11.2734   28.2887   88.1717 H         1 SAH328      0.0000 
     39 H          -7.0999   23.7879   88.3381 H         1 SAH328      0.0000 
     40 H          -7.4977   25.4728   88.8162 H         1 SAH328      0.0000 
     41 H         -10.6812   22.2667   86.0132 H         1 SAH328      0.0000 
     42 H         -15.5859   28.3235   79.8444 H         1 SAH328      0.0000 
     43 H         -16.7919   27.5889   79.0749 H         1 SAH328      0.0000 
     44 H         -16.7519   29.1943   79.1601 H         1 SAH328      0.0000 
     45 H         -15.8788   26.1471   85.9861 H         1 SAH328      0.0000 
     46 H         -14.7781   25.4819   88.0137 H         1 SAH328      0.0000 
@<TRIPOS>BOND
     1    2    1 1    
     2   42    1 1    
     3   43    1 1    
     4   44    1 1    
     5    3    2 1    
     6    6    2 1    
     7   27    2 1    
     8    4    3 1    
     9   28    3 1    
    10   29    3 1    
    11    5    4 1    
    12   30    4 1    
    13   31    4 1    
    14    9    5 1    
    15    7    6 ar   
    16    8    6 ar   
    17   10    9 1    
    18   32    9 1    
    19   33    9 1    
    20   11   10 1    
    21   12   10 1    
    22   34   10 1    
    23   16   11 1    
    24   13   12 1    
    25   14   12 1    
    26   35   12 1    
    27   45   13 1    
    28   15   14 1    
    29   16   14 1    
    30   36   14 1    
    31   46   15 1    
    32   17   16 1    
    33   37   16 1    
    34   18   17 1    
    35   26   17 1    
    36   19   18 2    
    37   38   18 1    
    38   20   19 1    
    39   21   20 ar   
    40   26   20 ar   
    41   22   21 1    
    42   23   21 ar   
    43   39   22 1    
    44   40   22 1    
    45   24   23 ar   
    46   25   24 ar   
    47   41   24 1    
    48   26   25 ar   
@<TRIPOS>SUBSTRUCTURE
     1 SAH328      1 GROUP   
@<TRIPOS>SET

