#    Name: 2pr5_FMN_2_INTS_M
#    Modification time : Mon Mar 24 19:18:30 2014

@<TRIPOS>MOLECULE
2pr5_FMN_2_INTS_M
   93     0    12     0     0
SMALL
NO_CHARGES


@<TRIPOS>ATOM
      1 N           8.2910    7.1595    5.9690 N.am      2 SEC2        0.0000 
      2 N           9.2200    8.5140    6.3870 N.am     10 SEL2        0.0000 
      3 N           7.3620    5.8050    5.5510 N.am      6 SEP2        0.0000 
      4 N           7.2340    7.2855    5.5990 N.am      2 SEC2        0.0000 
      5 N           7.1060    8.7660    5.6470 N.am     10 SEL2        0.0000 
      6 N           5.8700    9.5790    5.2715 N.am      2 SEC2        0.0000 
      7 N           4.6340   10.3920    4.8960 N.am      6 SEP2        0.0000 
      8 O           6.8860   11.3165    6.2885 O.2       1 ALC1        0.0000 
      9 O           8.0720   10.6060    6.5670 O.2       9 ALL1        0.0000 
     10 O           5.7000   12.0270    6.0100 O.2       5 ALP1        0.0000 
     11 N           8.2810   13.3500    6.4220 N.am      2 SEC2        0.0000 
     12 N           9.0800   12.4490    7.3950 N.am     10 SEL2        0.0000 
     13 N           7.4820   14.2510    5.4490 N.am      6 SEP2        0.0000 
     14 N          10.0435   13.3150    8.2375 N.am      2 SEC2        0.0000 
     15 N          11.0070   14.1810    9.0800 N.am      6 SEP2        0.0000 
     16 N          11.2000   12.6140    8.5140 N.am      2 SEC2        0.0000 
     17 N          11.3930   11.0470    7.9480 N.am     10 SEL2        0.0000 
     18 CA         12.2725   11.8400    6.7540 C.3       4 GLC5        0.0000 
     19 CA         12.5360   10.2970    8.1520 C.3      12 GLL5        0.0000 
     20 CA         12.0090   13.3830    5.3560 C.3       8 GLP5        0.0000 
     21 CA         16.8405   10.7115    7.6245 C.3       4 GLC5        0.0000 
     22 CA         16.0050   10.8680    9.5220 C.3      12 GLL5        0.0000 
     23 CA         17.6760   10.5550    5.7270 C.3       8 GLP5        0.0000 
     24 CA         17.7155   10.1815    9.4470 C.3       4 GLC5        0.0000 
     25 CA         19.4260    9.4950    9.3720 C.3       8 GLP5        0.0000 
     26 CA         17.5275   12.4655    9.6740 C.3       4 GLC5        0.0000 
     27 CA         19.0500   14.0630    9.8260 C.3       8 GLP5        0.0000 
     28 CA         16.9205    7.4035    7.2610 C.3       4 GLC5        0.0000 
     29 CA         16.0820    7.9940    8.8720 C.3      12 GLL5        0.0000 
     30 CA         17.7590    6.8130    5.6500 C.3       8 GLP5        0.0000 
     31 CA         16.8790    9.2745    7.2995 C.3       4 GLC5        0.0000 
     32 CA         17.7540    8.7445    9.1220 C.3       4 GLC5        0.0000 
     33 CA         14.9615    6.6360    7.1945 C.3       4 GLC5        0.0000 
     34 CA         13.7350    8.2100    7.9990 C.3      12 GLL5        0.0000 
     35 CA         16.1880    5.0620    6.3900 C.3       8 GLP5        0.0000 
     36 CA         12.5135    6.8115    5.0415 C.3       4 GLC5        0.0000 
     37 CA         11.4960    7.0040    6.5770 C.3      12 GLL5        0.0000 
     38 CA         13.5310    6.6190    3.5060 C.3       8 GLP5        0.0000 
     39 CA         10.7535    7.3830    9.0425 C.3       4 GLC5        0.0000 
     40 CA         11.0640    5.8940    7.5420 C.3      12 GLL5        0.0000 
     41 CA         10.4430    8.8720   10.5430 C.3       8 GLP5        0.0000 
     42 CA          9.2895    5.0540    8.3215 C.3       4 GLC5        0.0000 
     43 CA          7.5150    4.2140    9.1010 C.3       8 GLP5        0.0000 
     44 O          11.0130    5.2345    9.7790 O.2       1 ALC1        0.0000 
     45 O          11.5690    6.1230    8.8530 O.2       9 ALL1        0.0000 
     46 O          10.4570    4.3460   10.7050 O.2       5 ALP1        0.0000 
     47 CA         12.2085    5.3495    4.6225 C.3       4 GLC5        0.0000 
     48 CA         10.8860    4.0800    5.7390 C.3      12 GLL5        0.0000 
     49 N           8.4260    4.8600    5.7370 N.am      2 SEC2        0.0000 
     50 N           9.4900    3.9150    5.9230 N.am     10 SEL2        0.0000 
     51 CA         12.7425    1.9340    3.8335 C.3       4 GLC5        0.0000 
     52 CA         11.4650    2.7840    5.1640 C.3      12 GLL5        0.0000 
     53 CA         14.0200    1.0840    2.5030 C.3       8 GLP5        0.0000 
     54 NZ          8.9280    1.3680    8.1950 N.4       3 LYC4        0.0000 
     55 NZ          9.2540    1.3940    6.8120 N.4      11 LYL4        0.0000 
     56 NZ          9.4570    1.0170   10.5470 N.4       7 LYP4        0.0000 
     57 N           8.9280    1.3680    8.1950 N.am      2 SEC2        0.0000 
     58 N           9.2540    1.3940    6.8120 N.am     10 SEL2        0.0000 
     59 N           8.6020    1.3420    9.5780 N.am      6 SEP2        0.0000 
     60 NZ         10.8650    0.2010    8.8715 N.4       3 LYC4        0.0000 
     61 NZ         11.0410   -0.2200    7.5080 N.4      11 LYL4        0.0000 
     62 N          10.8650    0.2010    8.8715 N.am      2 SEC2        0.0000 
     63 N          11.0410   -0.2200    7.5080 N.am     10 SEL2        0.0000 
     64 N          10.6890    0.6220   10.2350 N.am      6 SEP2        0.0000 
     65 NZ         10.1485   -0.3595    3.7530 N.4       3 LYC4        0.0000 
     66 NZ         10.2660   -0.1080    5.1390 N.4      11 LYL4        0.0000 
     67 NZ         11.3180   -0.9140    2.2470 N.4       7 LYP4        0.0000 
     68 N          11.1795   -0.5400    4.2340 N.am      2 SEC2        0.0000 
     69 N          10.2660   -0.1080    5.1390 N.am     10 SEL2        0.0000 
     70 N          12.0930   -0.9720    3.3290 N.am      6 SEP2        0.0000 
     71 N          10.1485   -0.3595    3.7530 N.am      2 SEC2        0.0000 
     72 N          10.0310   -0.6110    2.3670 N.am      6 SEP2        0.0000 
     73 CA         12.4202   10.1463    9.9437 C.3       4 GLC5        0.0000 
     74 CA         11.7520    9.7000   11.4400 C.3       8 GLP5        0.0000 
     75 CA         13.6430    9.7658    6.3960 C.3       4 GLC5        0.0000 
     76 CA         14.7350    9.9070    4.8290 C.3       8 GLP5        0.0000 
     77 CA         14.8078   10.8897    6.9710 C.3       4 GLC5        0.0000 
     78 CA         13.6410   10.8880    8.7430 C.3      12 GLL5        0.0000 
     79 CA         15.3920   11.2550    5.0930 C.3       8 GLP5        0.0000 
     80 CA         15.4187    9.8117   10.9992 C.3       4 GLC5        0.0000 
     81 CA         15.4320    9.1090   12.7600 C.3       8 GLP5        0.0000 
     82 CA         13.2910    9.5930   10.1060 C.3       4 GLC5        0.0000 
     83 CA         14.8060   10.1610    8.9550 C.3      12 GLL5        0.0000 
     84 CA         14.3536   11.9656   10.4267 C.3       4 GLC5        0.0000 
     85 CA         13.5930   13.2350   11.6680 C.3       8 GLP5        0.0000 
     86 CA         15.3406   12.5606    8.7677 C.3       4 GLC5        0.0000 
     87 CA         15.5670   14.4250    8.3500 C.3       8 GLP5        0.0000 
     88 CA         15.4500    8.7558   10.7452 C.3       4 GLC5        0.0000 
     89 CA         14.8540    8.8110    8.5890 C.3      12 GLL5        0.0000 
     90 CA         14.5147    9.2088    6.5615 C.3       4 GLC5        0.0000 
     91 CA         11.7967    8.7265    9.2147 C.3       4 GLC5        0.0000 
     92 CA          9.8637    3.0290    4.1117 C.3       4 GLC5        0.0000 
     93 CA          8.5520    2.6260    2.7720 C.3       8 GLP5        0.0000 
@<TRIPOS>BOND
@<TRIPOS>SUBSTRUCTURE
     1 ALC1        8 GROUP        1 X    ALC  0     ROOT ALC X 1
     2 SEC2        1 GROUP        1 X    SEC  0     **** SEC X 2
     3 LYC4       54 GROUP        1 X    LYC  0     **** LYC X 4
     4 GLC5       18 GROUP        1 X    GLC  0     **** GLC X 6
     5 ALP1       10 GROUP        1 Y    ALP  0     ROOT ALP Y 8
     6 SEP2        3 GROUP        1 Y    SEP  0     **** SEP Y 9
     7 LYP4       56 GROUP        1 Y    LYP  0     **** LYP Y 11
     8 GLP5       20 GROUP        1 Y    GLP  0     **** GLP Y 13
     9 ALL1        9 GROUP        1 Z    ALL  0     ROOT ALL Z 15
    10 SEL2        2 GROUP        1 Z    SEL  0     **** SEL Z 16
    11 LYL4       55 GROUP        1 Z    LYL  0     **** LYL Z 18
    12 GLL5       19 GROUP        1 Z    GLL  0     **** GLL Z 20
@<TRIPOS>SET

