#    Name: 2pr5_FMN_2_ligand
#    Modification time : Mon Mar 24 19:18:30 2014

@<TRIPOS>MOLECULE
2pr5_FMN_2_ligand
   50    52     1     0     0
SMALL
NO_CHARGES


@<TRIPOS>ATOM
      1 N1          9.2200    8.5140    6.3870 N.2       1 FMN501      0.0000 
      2 C2          8.0950    9.2740    6.1970 C.2       1 FMN501      0.0000 
      3 O2          7.1060    8.7660    5.6470 O.2       1 FMN501      0.0000 
      4 N3          8.0720   10.6060    6.5670 N.am      1 FMN501      0.0000 
      5 C4          9.1350   11.2350    7.1590 C.2       1 FMN501      0.0000 
      6 O4          9.0800   12.4490    7.3950 O.2       1 FMN501      0.0000 
      7 C4A        10.2820   10.4730    7.3740 C.2       1 FMN501      0.0000 
      8 N5         11.3930   11.0470    7.9480 N.2       1 FMN501      0.0000 
      9 C5A        12.5360   10.2970    8.1520 C.ar      1 FMN501      0.0000 
     10 C6         13.6410   10.8880    8.7430 C.ar      1 FMN501      0.0000 
     11 C7         14.8060   10.1610    8.9550 C.ar      1 FMN501      0.0000 
     12 C7M        16.0050   10.8680    9.5220 C.3       1 FMN501      0.0000 
     13 C8         14.8540    8.8110    8.5890 C.ar      1 FMN501      0.0000 
     14 C8M        16.0820    7.9940    8.8720 C.3       1 FMN501      0.0000 
     15 C9         13.7350    8.2100    7.9990 C.ar      1 FMN501      0.0000 
     16 C9A        12.5660    8.9520    7.7740 C.ar      1 FMN501      0.0000 
     17 N10        11.4410    8.3780    7.1900 N.pl3     1 FMN501      0.0000 
     18 C10        10.3080    9.1280    6.9770 C.2       1 FMN501      0.0000 
     19 C1'        11.4960    7.0040    6.5770 C.3       1 FMN501      0.0000 
     20 C2'        11.0640    5.8940    7.5420 C.3       1 FMN501      0.0000 
     21 O2'        11.5690    6.1230    8.8530 O.3       1 FMN501      0.0000 
     22 C3'        11.5450    4.5250    7.0510 C.3       1 FMN501      0.0000 
     23 O3'        12.9610    4.6010    6.8980 O.3       1 FMN501      0.0000 
     24 C4'        10.8860    4.0800    5.7390 C.3       1 FMN501      0.0000 
     25 O4'         9.4900    3.9150    5.9230 O.3       1 FMN501      0.0000 
     26 C5'        11.4650    2.7840    5.1640 C.3       1 FMN501      0.0000 
     27 O5'        11.6450    1.8030    6.1660 O.3       1 FMN501      0.0000 
     28 P          10.5320    0.6660    6.4010 P.3       1 FMN501      0.0000 
     29 O1P         9.2540    1.3940    6.8120 O.co2     1 FMN501      0.0000 
     30 O2P        11.0410   -0.2200    7.5080 O.co2     1 FMN501      0.0000 
     31 O3P        10.2660   -0.1080    5.1390 O.co2     1 FMN501      0.0000 
     32 H           7.1932   11.1584    6.3827 H         1 FMN501      0.0000 
     33 H          13.6001   11.8808    9.0301 H         1 FMN501      0.0000 
     34 H          13.7695    7.2192    7.7288 H         1 FMN501      0.0000 
     35 H          12.5214    6.7920    6.2366 H         1 FMN501      0.0000 
     36 H          10.8452    6.9689    5.6897 H         1 FMN501      0.0000 
     37 H           9.9729    5.8679    7.5495 H         1 FMN501      0.0000 
     38 H          11.2944    3.7950    7.8221 H         1 FMN501      0.0000 
     39 H          11.0679    4.8724    4.9956 H         1 FMN501      0.0000 
     40 H          12.4166    3.0437    4.6644 H         1 FMN501      0.0000 
     41 H          10.7763    2.4417    4.3697 H         1 FMN501      0.0000 
     42 H          16.7841   10.2503    9.6291 H         1 FMN501      0.0000 
     43 H          16.3053   11.6194    8.9345 H         1 FMN501      0.0000 
     44 H          15.8144   11.2584   10.4227 H         1 FMN501      0.0000 
     45 H          16.8895    8.3665    8.4146 H         1 FMN501      0.0000 
     46 H          16.2885    7.9604    9.8499 H         1 FMN501      0.0000 
     47 H          15.9791    7.0490    8.5615 H         1 FMN501      0.0000 
     48 H          11.5173    5.2345    9.3090 H         1 FMN501      0.0000 
     49 H          13.3209    4.6270    7.8306 H         1 FMN501      0.0000 
     50 H           9.3271    2.9358    5.8018 H         1 FMN501      0.0000 
@<TRIPOS>BOND
     1    2    1 1    
     2   18    1 2    
     3    3    2 2    
     4    4    2 am   
     5    5    4 am   
     6   32    4 1    
     7    6    5 2    
     8    7    5 1    
     9    8    7 2    
    10   18    7 1    
    11    9    8 1    
    12   10    9 ar   
    13   16    9 ar   
    14   11   10 ar   
    15   33   10 1    
    16   12   11 1    
    17   13   11 ar   
    18   42   12 1    
    19   43   12 1    
    20   44   12 1    
    21   14   13 1    
    22   15   13 ar   
    23   45   14 1    
    24   46   14 1    
    25   47   14 1    
    26   16   15 ar   
    27   34   15 1    
    28   17   16 1    
    29   18   17 1    
    30   19   17 1    
    31   20   19 1    
    32   35   19 1    
    33   36   19 1    
    34   21   20 1    
    35   22   20 1    
    36   37   20 1    
    37   48   21 1    
    38   23   22 1    
    39   24   22 1    
    40   38   22 1    
    41   49   23 1    
    42   25   24 1    
    43   26   24 1    
    44   39   24 1    
    45   50   25 1    
    46   27   26 1    
    47   40   26 1    
    48   41   26 1    
    49   28   27 1    
    50   29   28 ar   
    51   30   28 ar   
    52   31   28 ar   
@<TRIPOS>SUBSTRUCTURE
     1 FMN501      1 GROUP   
@<TRIPOS>SET

