#    Name: 2w6n_OA2_1_INTS_M
#    Modification time : Tue Mar 25 03:42:51 2014

@<TRIPOS>MOLECULE
2w6n_OA2_1_INTS_M
   47     0     9     0     0
SMALL
NO_CHARGES


@<TRIPOS>ATOM
      1 N           4.8780  -25.6485   22.7755 N.am      2 SEC2        0.0000 
      2 N           4.7780  -24.3280   23.2950 N.am      8 SEL2        0.0000 
      3 N           4.9780  -26.9690   22.2560 N.am      5 SEP2        0.0000 
      4 CA          3.3460  -25.6035   22.7210 C.3       3 GLC5        0.0000 
      5 CA          2.6920  -24.4920   24.3020 C.3       9 GLL5        0.0000 
      6 CA          4.0000  -26.7150   21.1400 C.3       6 GLP5        0.0000 
      7 O           2.6225  -28.4620   23.9345 O.2       1 ALC1        0.0000 
      8 O           1.6810  -27.7340   24.7320 O.2       7 ALL1        0.0000 
      9 O           3.5640  -29.1900   23.1370 O.2       4 ALP1        0.0000 
     10 O           0.4650  -28.3425   25.0095 O.2       1 ALC1        0.0000 
     11 O          -0.7510  -28.9510   25.2870 O.2       4 ALP1        0.0000 
     12 N          -0.2680  -25.7165   26.0910 N.am      2 SEC2        0.0000 
     13 N           0.9390  -25.5240   25.2090 N.am      8 SEL2        0.0000 
     14 N          -1.4750  -25.9090   26.9730 N.am      5 SEP2        0.0000 
     15 CA          6.2320  -21.0775   21.3865 C.3       3 GLC5        0.0000 
     16 CA          4.9510  -21.6090   23.0110 C.3       9 GLL5        0.0000 
     17 CA          7.5130  -20.5460   19.7620 C.3       6 GLP5        0.0000 
     18 CA          4.5815  -22.2965   21.3315 C.3       3 GLC5        0.0000 
     19 CA          4.2120  -22.9840   19.6520 C.3       6 GLP5        0.0000 
     20 CA          4.8615  -20.3710   26.1720 C.3       3 GLC5        0.0000 
     21 CA          6.3940  -21.4260   25.0660 C.3       9 GLL5        0.0000 
     22 CA          3.3290  -19.3160   27.2780 C.3       6 GLP5        0.0000 
     23 CA          1.3450  -24.3743   22.6112 C.3       3 GLC5        0.0000 
     24 CA          1.4700  -24.2950   24.9650 C.3       9 GLL5        0.0000 
     25 CA          0.6090  -24.3550   20.5890 C.3       6 GLP5        0.0000 
     26 CA          3.0740  -25.0172   25.9307 C.3       3 GLC5        0.0000 
     27 CA          4.0670  -25.6410   27.2280 C.3       6 GLP5        0.0000 
     28 CA          7.3495  -16.9688   26.0633 C.3       3 GLC5        0.0000 
     29 CA          6.6590  -18.6640   24.7270 C.3       9 GLL5        0.0000 
     30 CA          7.7240  -14.9580   26.8670 C.3       6 GLP5        0.0000 
     31 CA          4.7894  -19.3498   25.7979 C.3       3 GLC5        0.0000 
     32 CA          8.5147  -20.4953   27.2243 C.3       3 GLC5        0.0000 
     33 CA          7.2910  -19.2950   25.7920 C.3       9 GLL5        0.0000 
     34 CA          9.8040  -21.0070   28.5690 C.3       6 GLP5        0.0000 
     35 CA          6.4432  -19.3098   27.5892 C.3       3 GLC5        0.0000 
     36 CA          7.1600  -20.6720   25.9670 C.3       9 GLL5        0.0000 
     37 CA          5.6610  -18.6360   29.2990 C.3       6 GLP5        0.0000 
     38 CA          6.2675  -22.5150   26.7598 C.3       3 GLC5        0.0000 
     39 CA          5.7580  -23.9810   28.0030 C.3       6 GLP5        0.0000 
     40 CA          0.9578  -22.7235   21.1300 C.3       3 GLC5        0.0000 
     41 CA          1.7350  -21.4000   22.1220 C.3       9 GLL5        0.0000 
     42 CA          2.7592  -22.0380   20.6615 C.3       3 GLC5        0.0000 
     43 CA         -1.1225  -21.1433   21.0988 C.3       3 GLC5        0.0000 
     44 CA          0.8780  -20.7840   21.2200 C.3       9 GLL5        0.0000 
     45 CA         -2.8260  -22.1120   20.8170 C.3       6 GLP5        0.0000 
     46 CA          2.6385  -19.8297   25.5155 C.3       3 GLC5        0.0000 
     47 CA          1.4250  -19.5760   23.6570 C.3       9 GLL5        0.0000 
@<TRIPOS>BOND
@<TRIPOS>SUBSTRUCTURE
     1 ALC1        7 GROUP        1 X    ALC  0     ROOT ALC X 1
     2 SEC2        1 GROUP        1 X    SEC  0     **** SEC X 2
     3 GLC5        4 GROUP        1 X    GLC  0     **** GLC X 6
     4 ALP1        9 GROUP        1 Y    ALP  0     ROOT ALP Y 8
     5 SEP2        3 GROUP        1 Y    SEP  0     **** SEP Y 9
     6 GLP5        6 GROUP        1 Y    GLP  0     **** GLP Y 13
     7 ALL1        8 GROUP        1 Z    ALL  0     ROOT ALL Z 15
     8 SEL2        2 GROUP        1 Z    SEL  0     **** SEL Z 16
     9 GLL5        5 GROUP        1 Z    GLL  0     **** GLL Z 20
@<TRIPOS>SET

