#    Name: 2w6n_OA2_1_ligand
#    Modification time : Tue Mar 25 03:42:51 2014

@<TRIPOS>MOLECULE
2w6n_OA2_1_ligand
   40    42     1     0     0
SMALL
NO_CHARGES


@<TRIPOS>ATOM
      1 O2          4.7780  -24.3280   23.2950 O.2       1 OA21446     0.0000 
      2 C1          3.8310  -23.6740   23.7420 C.2       1 OA21446     0.0000 
      3 C3          2.6920  -24.4920   24.3020 C.2       1 OA21446     0.0000 
      4 O4          2.9270  -25.8280   24.1360 O.3       1 OA21446     0.0000 
      5 C6          1.8280  -26.3890   24.6940 C.2       1 OA21446     0.0000 
      6 N8          1.6810  -27.7340   24.7320 N.pl3     1 OA21446     0.0000 
      7 N7          0.9390  -25.5240   25.2090 N.2       1 OA21446     0.0000 
      8 C5          1.4700  -24.2950   24.9650 C.2       1 OA21446     0.0000 
      9 N13         3.8840  -22.3260   23.7160 N.am      1 OA21446     0.0000 
     10 C10         4.9510  -21.6090   23.0110 C.3       1 OA21446     0.0000 
     11 C9          5.7770  -20.7960   23.9920 C.ar      1 OA21446     0.0000 
     12 C11         5.9040  -19.4100   23.8250 C.ar      1 OA21446     0.0000 
     13 C14         6.6590  -18.6640   24.7270 C.ar      1 OA21446     0.0000 
     14 C17         7.2910  -19.2950   25.7920 C.ar      1 OA21446     0.0000 
     15 C15         7.1600  -20.6720   25.9670 C.ar      1 OA21446     0.0000 
     16 C12         6.3940  -21.4260   25.0660 C.ar      1 OA21446     0.0000 
     17 C16         2.9350  -21.4250   24.3540 C.3       1 OA21446     0.0000 
     18 C18         2.0070  -20.7970   23.3440 C.ar      1 OA21446     0.0000 
     19 C19         1.7350  -21.4000   22.1220 C.ar      1 OA21446     0.0000 
     20 C21         0.8780  -20.7840   21.2200 C.ar      1 OA21446     0.0000 
     21 C23         0.2840  -19.5650   21.5410 C.ar      1 OA21446     0.0000 
     22 C22         0.5620  -18.9610   22.7560 C.ar      1 OA21446     0.0000 
     23 C20         1.4250  -19.5760   23.6570 C.ar      1 OA21446     0.0000 
     24 H           2.4321  -28.2698   24.3464 H         1 OA21446     0.0000 
     25 H           0.8342  -28.0727   25.1423 H         1 OA21446     0.0000 
     26 H           1.1048  -23.4519   25.1894 H         1 OA21446     0.0000 
     27 H           4.5305  -20.9294   22.2630 H         1 OA21446     0.0000 
     28 H           5.6139  -22.3120   22.4966 H         1 OA21446     0.0000 
     29 H           5.4383  -18.9477   23.0353 H         1 OA21446     0.0000 
     30 H           6.7479  -17.6475   24.6039 H         1 OA21446     0.0000 
     31 H           7.8568  -18.7468   26.4534 H         1 OA21446     0.0000 
     32 H           7.6235  -21.1382   26.7553 H         1 OA21446     0.0000 
     33 H           6.2934  -22.4359   25.2040 H         1 OA21446     0.0000 
     34 H           3.4639  -20.6209   24.8899 H         1 OA21446     0.0000 
     35 H           2.3279  -21.9648   25.0980 H         1 OA21446     0.0000 
     36 H           2.1687  -22.3025   21.8863 H         1 OA21446     0.0000 
     37 H           0.6797  -21.2264   20.3125 H         1 OA21446     0.0000 
     38 H          -0.3586  -19.1181   20.8749 H         1 OA21446     0.0000 
     39 H           0.1314  -18.0573   22.9947 H         1 OA21446     0.0000 
     40 H           1.6321  -19.1233   24.5586 H         1 OA21446     0.0000 
@<TRIPOS>BOND
     1    2    1 2    
     2    3    2 1    
     3    9    2 am   
     4    4    3 1    
     5    8    3 2    
     6    5    4 1    
     7    6    5 1    
     8    7    5 2    
     9   24    6 1    
    10   25    6 1    
    11    8    7 1    
    12   26    8 1    
    13   10    9 1    
    14   17    9 1    
    15   11   10 1    
    16   27   10 1    
    17   28   10 1    
    18   12   11 ar   
    19   16   11 ar   
    20   13   12 ar   
    21   29   12 1    
    22   14   13 ar   
    23   30   13 1    
    24   15   14 ar   
    25   31   14 1    
    26   16   15 ar   
    27   32   15 1    
    28   33   16 1    
    29   18   17 1    
    30   34   17 1    
    31   35   17 1    
    32   19   18 ar   
    33   23   18 ar   
    34   20   19 ar   
    35   36   19 1    
    36   21   20 ar   
    37   37   20 1    
    38   22   21 ar   
    39   38   21 1    
    40   23   22 ar   
    41   39   22 1    
    42   40   23 1    
@<TRIPOS>SUBSTRUCTURE
     1 OA21446     1 GROUP   
@<TRIPOS>SET

