#    Name: 4gsy_0Y5_1_INTS_M
#    Modification time : Mon Mar 24 23:37:47 2014

@<TRIPOS>MOLECULE
4gsy_0Y5_1_INTS_M
   81     0    12     0     0
SMALL
NO_CHARGES


@<TRIPOS>ATOM
      1 CA         12.3260    2.4230   26.2370 C.3       4 GLC5        0.0000 
      2 CA         12.1160    0.3760   26.9800 C.3      12 GLL5        0.0000 
      3 CA         12.5360    4.4700   25.4940 C.3       8 GLP5        0.0000 
      4 CA         14.2295   -0.4245   27.0625 C.3       4 GLC5        0.0000 
      5 CA         12.2990   -0.6310   26.0460 C.3      12 GLL5        0.0000 
      6 CA         16.1600   -0.2180   28.0790 C.3       8 GLP5        0.0000 
      7 CA          2.2480    1.2970   27.4125 C.3       4 GLC5        0.0000 
      8 CA          3.5580    0.6920   28.5700 C.3      12 GLL5        0.0000 
      9 CA          0.9380    1.9020   26.2550 C.3       8 GLP5        0.0000 
     10 CA          4.0070   -1.9540   27.3425 C.3       4 GLC5        0.0000 
     11 CA          4.0370   -0.0500   27.3240 C.3      12 GLL5        0.0000 
     12 CA          3.9770   -3.8580   27.3610 C.3       8 GLP5        0.0000 
     13 CA          2.2445    0.2775   26.8290 C.3       4 GLC5        0.0000 
     14 CA          0.4520    0.6050   26.3340 C.3       8 GLP5        0.0000 
     15 CA          7.4990    1.6605   25.8265 C.3       4 GLC5        0.0000 
     16 CA          6.0520    1.4770   27.2550 C.3      12 GLL5        0.0000 
     17 CA          8.9460    1.8440   24.3980 C.3       8 GLP5        0.0000 
     18 CA          3.2280    1.5860   25.7525 C.3       4 GLC5        0.0000 
     19 CA          4.9600    0.8100   26.4490 C.3      12 GLL5        0.0000 
     20 CA          1.4960    2.3620   25.0560 C.3       8 GLP5        0.0000 
     21 CA          8.3995   -1.7125   23.9305 C.3       4 GLC5        0.0000 
     22 CA          7.1030   -3.2620   24.5520 C.3      12 GLL5        0.0000 
     23 CA          9.6960   -0.1630   23.3090 C.3       8 GLP5        0.0000 
     24 CA          5.8860   -4.5890   25.3435 C.3       4 GLC5        0.0000 
     25 CA          4.6690   -5.9160   26.1350 C.3       8 GLP5        0.0000 
     26 CA         11.5370   -0.3255   24.1690 C.3       4 GLC5        0.0000 
     27 CA         13.3780   -0.4880   25.0290 C.3      12 GLL5        0.0000 
     28 O           5.6930    0.7265   21.8330 O.2       1 ALC1        0.0000 
     29 O           5.8600   -0.0090   23.0080 O.2       9 ALL1        0.0000 
     30 O           5.5260    1.4620   20.6580 O.2       5 ALP1        0.0000 
     31 N           7.2520   -3.2375   21.8235 N.am      2 SEC2        0.0000 
     32 N           6.8100   -1.8800   22.0620 N.am     10 SEL2        0.0000 
     33 N           7.6940   -4.5950   21.5850 N.am      6 SEP2        0.0000 
     34 N           6.6970   -1.7815   20.7350 N.am      2 SEC2        0.0000 
     35 N           6.5840   -1.6830   19.4080 N.am      6 SEP2        0.0000 
     36 N           5.4830    2.6700   22.8090 N.am      2 SEC2        0.0000 
     37 N           5.0370    1.9130   23.9200 N.am     10 SEL2        0.0000 
     38 N           5.9290    3.4270   21.6980 N.am      6 SEP2        0.0000 
     39 NZ         12.6075    0.5540   33.0640 N.4       3 LYC4        0.0000 
     40 NZ         11.2560    0.9120   32.6250 N.4      11 LYL4        0.0000 
     41 NZ         14.7640   -0.1130   32.4940 N.4       7 LYP4        0.0000 
     42 N          12.6075    0.5540   33.0640 N.am      2 SEC2        0.0000 
     43 N          11.2560    0.9120   32.6250 N.am     10 SEL2        0.0000 
     44 N          13.9590    0.1960   33.5030 N.am      6 SEP2        0.0000 
     45 NZ         12.7675   -0.6500   31.1805 N.4       3 LYC4        0.0000 
     46 NZ         11.2710   -0.6930   30.9910 N.4      11 LYL4        0.0000 
     47 N          12.7675   -0.6500   31.1805 N.am      2 SEC2        0.0000 
     48 N          11.2710   -0.6930   30.9910 N.am     10 SEL2        0.0000 
     49 N          14.2640   -0.6070   31.3700 N.am      6 SEP2        0.0000 
     50 CA         12.2645   -0.7340   22.2585 C.3       4 GLC5        0.0000 
     51 CA         12.9850   -0.8360   23.7730 C.3      12 GLL5        0.0000 
     52 CA         11.5440   -0.6320   20.7440 C.3       8 GLP5        0.0000 
     53 CA         14.0470    2.2745   24.3430 C.3       4 GLC5        0.0000 
     54 CA         13.8170    0.7830   24.8620 C.3      12 GLL5        0.0000 
     55 CA         14.2770    3.7660   23.8240 C.3       8 GLP5        0.0000 
     56 CA         15.0155   -2.6775   26.7415 C.3       4 GLC5        0.0000 
     57 CA         14.4680   -1.2260   25.3200 C.3      12 GLL5        0.0000 
     58 CA         15.5630   -4.1290   28.1630 C.3       8 GLP5        0.0000 
     59 CA         15.3140   -0.7220   26.6995 C.3       4 GLC5        0.0000 
     60 CA         12.5050   -2.9565   27.4340 C.3       4 GLC5        0.0000 
     61 CA         11.4580   -1.7330   26.0560 C.3      12 GLL5        0.0000 
     62 CA         14.0630   -4.1220   28.3520 C.3       8 GLP5        0.0000 
     63 CA         13.4467    0.2575   28.3477 C.3       4 GLC5        0.0000 
     64 CA         11.0990    0.2680   27.8950 C.3      12 GLL5        0.0000 
     65 CA         15.2860    0.1930   29.2580 C.3       8 GLP5        0.0000 
     66 CA         10.8926    2.9143   30.0884 C.3       4 GLC5        0.0000 
     67 CA          9.8450    1.4950   29.5070 C.3      12 GLL5        0.0000 
     68 CA         12.2550    4.3810   30.1600 C.3       8 GLP5        0.0000 
     69 CA          7.8013   -0.5012   24.6910 C.3       4 GLC5        0.0000 
     70 CA          6.0440   -1.1570   25.4220 C.3      12 GLL5        0.0000 
     71 CA          9.3200    0.5220   24.4680 C.3       8 GLP5        0.0000 
     72 CA          5.1297   -2.6913   26.1375 C.3       4 GLC5        0.0000 
     73 CA          6.5210   -1.8920   24.4060 C.3      12 GLL5        0.0000 
     74 CA          4.9479   -2.9466   24.0150 C.3       4 GLC5        0.0000 
     75 CA          3.2030   -3.5000   23.2970 C.3       8 GLP5        0.0000 
     76 CA         15.0147    0.5292   26.0132 C.3       4 GLC5        0.0000 
     77 CA         16.4320    0.9110   27.0810 C.3       8 GLP5        0.0000 
     78 CA         15.4303   -0.0684   23.7094 C.3       4 GLC5        0.0000 
     79 CA         16.8770    0.4460   22.4430 C.3       8 GLP5        0.0000 
     80 CA         14.2724   -2.1055   23.7987 C.3       4 GLC5        0.0000 
     81 CA         14.7200   -3.2670   22.7370 C.3       8 GLP5        0.0000 
@<TRIPOS>BOND
@<TRIPOS>SUBSTRUCTURE
     1 ALC1       28 GROUP        1 X    ALC  0     ROOT ALC X 1
     2 SEC2       31 GROUP        1 X    SEC  0     **** SEC X 2
     3 LYC4       39 GROUP        1 X    LYC  0     **** LYC X 4
     4 GLC5        1 GROUP        1 X    GLC  0     **** GLC X 6
     5 ALP1       30 GROUP        1 Y    ALP  0     ROOT ALP Y 8
     6 SEP2       33 GROUP        1 Y    SEP  0     **** SEP Y 9
     7 LYP4       41 GROUP        1 Y    LYP  0     **** LYP Y 11
     8 GLP5        3 GROUP        1 Y    GLP  0     **** GLP Y 13
     9 ALL1       29 GROUP        1 Z    ALL  0     ROOT ALL Z 15
    10 SEL2       32 GROUP        1 Z    SEL  0     **** SEL Z 16
    11 LYL4       40 GROUP        1 Z    LYL  0     **** LYL Z 18
    12 GLL5        2 GROUP        1 Z    GLL  0     **** GLL Z 20
@<TRIPOS>SET

