#    Name: 4gsy_0Y5_1_ligand
#    Modification time : Mon Mar 24 23:37:47 2014

@<TRIPOS>MOLECULE
4gsy_0Y5_1_ligand
   60    63     1     0     0
SMALL
NO_CHARGES


@<TRIPOS>ATOM
      1 C26        10.4360   -1.8490   26.9760 C.ar      1 0Y5301      0.0000 
      2 C19         8.5930    1.3120   31.5470 C.ar      1 0Y5301      0.0000 
      3 C27        11.4580   -1.7330   26.0560 C.ar      1 0Y5301      0.0000 
      4 C18         7.5450    1.9700   30.9520 C.ar      1 0Y5301      0.0000 
      5 C25        10.2620   -0.8360   27.9070 C.ar      1 0Y5301      0.0000 
      6 C22         8.7880    2.1430   28.9040 C.ar      1 0Y5301      0.0000 
      7 C29        12.1160    0.3760   26.9800 C.ar      1 0Y5301      0.0000 
      8 C20         9.7440    1.0760   30.8280 C.ar      1 0Y5301      0.0000 
      9 C17         7.6270    2.3630   29.6260 C.ar      1 0Y5301      0.0000 
     10 C28        12.2990   -0.6310   26.0460 C.ar      1 0Y5301      0.0000 
     11 C24        11.0990    0.2680   27.8950 C.ar      1 0Y5301      0.0000 
     12 C21         9.8450    1.4950   29.5070 C.ar      1 0Y5301      0.0000 
     13 C3          6.0440   -1.1570   25.4220 C.2       1 0Y5301      0.0000 
     14 C2          6.5210   -1.8920   24.4060 C.2       1 0Y5301      0.0000 
     15 C8          6.4170   -1.2840   23.0520 C.2       1 0Y5301      0.0000 
     16 C5          5.4290    0.7530   24.0690 C.2       1 0Y5301      0.0000 
     17 C34        10.8300    0.4440   31.5790 C.2       1 0Y5301      0.0000 
     18 C12         3.5580    0.6920   28.5700 C.3       1 0Y5301      0.0000 
     19 C11         4.0370   -0.0500   27.3240 C.3       1 0Y5301      0.0000 
     20 C13         4.7240    1.3610   29.2750 C.3       1 0Y5301      0.0000 
     21 C15         6.0520    1.4770   27.2550 C.3       1 0Y5301      0.0000 
     22 C10         4.9600    0.8100   26.4490 C.3       1 0Y5301      0.0000 
     23 C1          7.1030   -3.2620   24.5520 C.3       1 0Y5301      0.0000 
     24 C16         6.4640    3.0610   28.9950 C.3       1 0Y5301      0.0000 
     25 C30        13.3780   -0.4880   25.0290 C.3       1 0Y5301      0.0000 
     26 N7          5.8600   -0.0090   23.0080 N.am      1 0Y5301      0.0000 
     27 N4          5.5030    0.1180   25.3030 N.am      1 0Y5301      0.0000 
     28 N14         5.4320    2.2550   28.3390 N.4       1 0Y5301      0.0000 
     29 O9          6.8100   -1.8800   22.0620 O.2       1 0Y5301      0.0000 
     30 O6          5.0370    1.9130   23.9200 O.2       1 0Y5301      0.0000 
     31 O35        11.2560    0.9120   32.6250 O.co2     1 0Y5301      0.0000 
     32 O36        11.2710   -0.6930   30.9910 O.co2     1 0Y5301      0.0000 
     33 O23        11.0090    1.3360   28.7760 O.3       1 0Y5301      0.0000 
     34 F31        12.9850   -0.8360   23.7730 F         1 0Y5301      0.0000 
     35 F32        13.8170    0.7830   24.8620 F         1 0Y5301      0.0000 
     36 F33        14.4680   -1.2260   25.3200 F         1 0Y5301      0.0000 
     37 H           9.8190   -2.6626   26.9739 H         1 0Y5301      0.0000 
     38 H           8.5209    0.9959   32.5252 H         1 0Y5301      0.0000 
     39 H          11.6027   -2.4871   25.3539 H         1 0Y5301      0.0000 
     40 H           6.6870    2.1760   31.4922 H         1 0Y5301      0.0000 
     41 H           9.5100   -0.9049   28.6074 H         1 0Y5301      0.0000 
     42 H           8.8582    2.4601   27.9304 H         1 0Y5301      0.0000 
     43 H          12.7390    1.1933   26.9825 H         1 0Y5301      0.0000 
     44 H           6.0739   -1.5688   26.4121 H         1 0Y5301      0.0000 
     45 H           3.0819   -0.0163   29.2464 H         1 0Y5301      0.0000 
     46 H           2.8284    1.4459   28.2782 H         1 0Y5301      0.0000 
     47 H           3.1693   -0.3559   26.7306 H         1 0Y5301      0.0000 
     48 H           4.5760   -0.9534   27.6272 H         1 0Y5301      0.0000 
     49 H           5.3987    0.5878   29.6484 H         1 0Y5301      0.0000 
     50 H           4.3411    1.9265   30.1272 H         1 0Y5301      0.0000 
     51 H           6.6284    2.1265   26.5991 H         1 0Y5301      0.0000 
     52 H           6.7091    0.7106   27.6615 H         1 0Y5301      0.0000 
     53 H           4.3100    1.6563   26.0662 H         1 0Y5301      0.0000 
     54 H           6.8704    3.8188   28.2557 H         1 0Y5301      0.0000 
     55 H           5.9794    3.7158   29.7839 H         1 0Y5301      0.0000 
     56 H           5.7567    0.4281   22.0219 H         1 0Y5301      0.0000 
     57 H           4.6960    2.9363   27.8818 H         1 0Y5301      0.0000 
     58 H           7.4006   -3.6347   23.6731 H         1 0Y5301      0.0000 
     59 H           7.8997   -3.2646   25.1564 H         1 0Y5301      0.0000 
     60 H           6.4422   -3.9073   24.9353 H         1 0Y5301      0.0000 
@<TRIPOS>BOND
     1    3    1 ar   
     2    5    1 ar   
     3   37    1 1    
     4    4    2 ar   
     5    8    2 ar   
     6   38    2 1    
     7   10    3 ar   
     8   39    3 1    
     9    9    4 ar   
    10   40    4 1    
    11   11    5 ar   
    12   41    5 1    
    13    9    6 ar   
    14   12    6 ar   
    15   42    6 1    
    16   10    7 ar   
    17   11    7 ar   
    18   43    7 1    
    19   12    8 ar   
    20   17    8 1    
    21   24    9 1    
    22   25   10 1    
    23   33   11 1    
    24   33   12 1    
    25   14   13 2    
    26   27   13 1    
    27   44   13 1    
    28   15   14 1    
    29   23   14 1    
    30   26   15 am   
    31   29   15 2    
    32   26   16 am   
    33   27   16 am   
    34   30   16 2    
    35   31   17 ar   
    36   32   17 ar   
    37   19   18 1    
    38   20   18 1    
    39   45   18 1    
    40   46   18 1    
    41   22   19 1    
    42   47   19 1    
    43   48   19 1    
    44   28   20 1    
    45   49   20 1    
    46   50   20 1    
    47   22   21 1    
    48   28   21 1    
    49   51   21 1    
    50   52   21 1    
    51   27   22 1    
    52   53   22 1    
    53   58   23 1    
    54   59   23 1    
    55   60   23 1    
    56   28   24 1    
    57   54   24 1    
    58   55   24 1    
    59   34   25 1    
    60   35   25 1    
    61   36   25 1    
    62   56   26 1    
    63   57   28 1    
@<TRIPOS>SUBSTRUCTURE
     1 0Y5301      1 GROUP   
@<TRIPOS>SET

