#    Name: 1ohk_COP_1_INTS_M
#    Modification time : Mon Mar 24 20:10:34 2014

@<TRIPOS>MOLECULE
1ohk_COP_1_INTS_M
   79     0    12     0     0
SMALL
NO_CHARGES


@<TRIPOS>ATOM
      1 CA          4.1110   -4.6005   34.9515 C.3       4 GLC5        0.0000 
      2 CA          2.2250   -5.3250   34.8750 C.3      12 GLL5        0.0000 
      3 CA          5.9970   -3.8760   35.0280 C.3       8 GLP5        0.0000 
      4 CA          1.7300   -3.8890   33.3005 C.3       4 GLC5        0.0000 
      5 CA          1.2350   -2.4530   31.7260 C.3       8 GLP5        0.0000 
      6 CA          0.9525   -6.1765   33.6605 C.3       4 GLC5        0.0000 
      7 CA         -0.3200   -7.0280   32.4460 C.3       8 GLP5        0.0000 
      8 CA          3.4660   -5.9165   36.6430 C.3       4 GLC5        0.0000 
      9 CA          4.7070   -6.5080   38.4110 C.3       8 GLP5        0.0000 
     10 CA          3.2960   -2.3355   35.5385 C.3       4 GLC5        0.0000 
     11 CA          1.3480   -3.3900   35.6880 C.3      12 GLL5        0.0000 
     12 CA          5.2440   -1.2810   35.3890 C.3       8 GLP5        0.0000 
     13 CA          1.2915   -2.9215   33.7070 C.3       4 GLC5        0.0000 
     14 CA          0.0655   -6.2620   34.4205 C.3       4 GLC5        0.0000 
     15 CA          0.4510   -5.4960   36.3950 C.3      12 GLL5        0.0000 
     16 CA         -3.4180   -4.7830   38.3225 C.3       4 GLC5        0.0000 
     17 CA         -2.2180   -3.1470   38.6950 C.3      12 GLL5        0.0000 
     18 CA         -4.6180   -6.4190   37.9500 C.3       8 GLP5        0.0000 
     19 CA         -2.4510   -1.1440   39.1750 C.3       4 GLC5        0.0000 
     20 CA         -2.6840    0.8590   39.6550 C.3       8 GLP5        0.0000 
     21 CA         -2.6155   -2.9860   36.8670 C.3       4 GLC5        0.0000 
     22 CA         -3.0130   -2.8250   35.0390 C.3       8 GLP5        0.0000 
     23 CA         -3.3920   -5.3450   39.3495 C.3       4 GLC5        0.0000 
     24 CA         -2.1660   -4.2710   40.7490 C.3      12 GLL5        0.0000 
     25 CA         -4.4515   -3.8520   41.9315 C.3       4 GLC5        0.0000 
     26 CA         -2.6330   -5.0910   41.7680 C.3      12 GLL5        0.0000 
     27 CA         -6.2700   -2.6130   42.0950 C.3       8 GLP5        0.0000 
     28 CA         -2.8635   -5.7620   44.6580 C.3       4 GLC5        0.0000 
     29 CA         -1.7260   -5.5640   42.7520 C.3      12 GLL5        0.0000 
     30 CA         -4.0010   -5.9600   46.5640 C.3       8 GLP5        0.0000 
     31 CA          2.8245   -4.2020   45.0655 C.3       4 GLC5        0.0000 
     32 CA          3.0430   -6.1970   44.5170 C.3      12 GLL5        0.0000 
     33 CA          2.6060   -2.2070   45.6140 C.3       8 GLP5        0.0000 
     34 CA          2.1910   -8.0955   42.1895 C.3       4 GLC5        0.0000 
     35 CA          3.3890   -7.4410   43.7100 C.3      12 GLL5        0.0000 
     36 CA          0.9930   -8.7500   40.6690 C.3       8 GLP5        0.0000 
     37 CA          3.8815   -6.1205   41.9745 C.3       4 GLC5        0.0000 
     38 CA          4.3740   -4.8000   40.2390 C.3       8 GLP5        0.0000 
     39 CA          2.9635  -10.2540   42.4030 C.3       4 GLC5        0.0000 
     40 CA          3.3650   -9.7910   43.9740 C.3      12 GLL5        0.0000 
     41 CA          2.5620  -10.7170   40.8320 C.3       8 GLP5        0.0000 
     42 N           1.3090   -7.6060   35.5330 N.am      2 SEC2        0.0000 
     43 N           1.3830   -6.1050   35.5780 N.am     10 SEL2        0.0000 
     44 N           1.2350   -9.1070   35.4880 N.am      6 SEP2        0.0000 
     45 O           3.0265   -7.0530   34.3050 O.2       1 ALC1        0.0000 
     46 O           3.1470   -5.7980   34.0740 O.2       9 ALL1        0.0000 
     47 O           2.9060   -8.3080   34.5360 O.2       5 ALP1        0.0000 
     48 O           1.8000   -1.3340   34.7650 O.2       1 ALC1        0.0000 
     49 O           1.2050   -2.0650   35.8410 O.2       9 ALL1        0.0000 
     50 O           2.3950   -0.6030   33.6890 O.2       5 ALP1        0.0000 
     51 O           0.7325   -0.7635   34.7745 O.2       1 ALC1        0.0000 
     52 O           0.2600    0.5380   33.7080 O.2       5 ALP1        0.0000 
     53 NZ          6.3025   -4.2695   45.4625 N.4       3 LYC4        0.0000 
     54 NZ          5.1700   -5.4480   45.4020 N.4      11 LYL4        0.0000 
     55 NZ          7.1880   -2.3320   44.4870 N.4       7 LYP4        0.0000 
     56 N           6.3025   -4.2695   45.4625 N.am      2 SEC2        0.0000 
     57 N           5.1700   -5.4480   45.4020 N.am     10 SEL2        0.0000 
     58 N           7.4350   -3.0910   45.5230 N.am      6 SEP2        0.0000 
     59 NZ          5.6665   -3.8850   43.3110 N.4       3 LYC4        0.0000 
     60 NZ          4.5920   -5.0400   43.2990 N.4      11 LYL4        0.0000 
     61 N           5.6665   -3.8850   43.3110 N.am      2 SEC2        0.0000 
     62 N           4.5920   -5.0400   43.2990 N.am     10 SEL2        0.0000 
     63 N           6.7410   -2.7300   43.3230 N.am      6 SEP2        0.0000 
     64 CA          3.8095  -15.9150   44.0935 C.3       4 GLC5        0.0000 
     65 CA          3.4050  -15.1750   45.6070 C.3      12 GLL5        0.0000 
     66 CA          4.2140  -16.6550   42.5800 C.3       8 GLP5        0.0000 
     67 CA         -2.9340   -5.5757   37.9075 C.3       4 GLC5        0.0000 
     68 CA         -1.2610   -5.4220   37.8360 C.3      12 GLL5        0.0000 
     69 CA         -2.2702   -3.2285   42.6262 C.3       4 GLC5        0.0000 
     70 CA         -2.1410   -1.7760   43.9940 C.3       8 GLP5        0.0000 
     71 CA         -1.5953   -3.5747   43.3790 C.3       4 GLC5        0.0000 
     72 CA         -0.6380   -2.5628   42.4000 C.3       4 GLC5        0.0000 
     73 CA          0.0380   -4.3460   41.7620 C.3      12 GLL5        0.0000 
     74 CA         -0.8900   -1.0060   43.5440 C.3       8 GLP5        0.0000 
     75 CA          5.5412   -7.6632   43.4190 C.3       4 GLC5        0.0000 
     76 CA          7.5280   -7.3370   42.6700 C.3       8 GLP5        0.0000 
     77 CA          2.4402  -14.4685   43.3880 C.3       4 GLC5        0.0000 
     78 CA          2.0170  -13.2150   45.0610 C.3      12 GLL5        0.0000 
     79 CA          2.2890  -15.3310   41.8130 C.3       8 GLP5        0.0000 
@<TRIPOS>BOND
@<TRIPOS>SUBSTRUCTURE
     1 ALC1       45 GROUP        1 X    ALC  0     ROOT ALC X 1
     2 SEC2       42 GROUP        1 X    SEC  0     **** SEC X 2
     3 LYC4       53 GROUP        1 X    LYC  0     **** LYC X 4
     4 GLC5        1 GROUP        1 X    GLC  0     **** GLC X 6
     5 ALP1       47 GROUP        1 Y    ALP  0     ROOT ALP Y 8
     6 SEP2       44 GROUP        1 Y    SEP  0     **** SEP Y 9
     7 LYP4       55 GROUP        1 Y    LYP  0     **** LYP Y 11
     8 GLP5        3 GROUP        1 Y    GLP  0     **** GLP Y 13
     9 ALL1       46 GROUP        1 Z    ALL  0     ROOT ALL Z 15
    10 SEL2       43 GROUP        1 Z    SEL  0     **** SEL Z 16
    11 LYL4       54 GROUP        1 Z    LYL  0     **** LYL Z 18
    12 GLL5        2 GROUP        1 Z    GLL  0     **** GLL Z 20
@<TRIPOS>SET

