#    Name: 1ohk_COP_1_ligand
#    Modification time : Mon Mar 24 20:10:34 2014

@<TRIPOS>MOLECULE
1ohk_COP_1_ligand
   67    70     1     0     0
SMALL
NO_CHARGES


@<TRIPOS>ATOM
      1 C3          2.2250   -5.3250   34.8750 C.ar      1 COP188      0.0000 
      2 C1          1.3480   -3.3900   35.6880 C.ar      1 COP188      0.0000 
      3 C10         0.4340   -4.1000   36.4580 C.ar      1 COP188      0.0000 
      4 C8         -1.2390   -4.0430   37.8940 C.ar      1 COP188      0.0000 
      5 C7         -1.2610   -5.4220   37.8360 C.ar      1 COP188      0.0000 
      6 C5          0.4510   -5.4960   36.3950 C.ar      1 COP188      0.0000 
      7 C11        -2.2180   -3.1470   38.6950 C.3       1 COP188      0.0000 
      8 C13        -2.1660   -4.2710   40.7490 C.ar      1 COP188      0.0000 
      9 C18        -2.6330   -5.0910   41.7680 C.ar      1 COP188      0.0000 
     10 C17        -1.7260   -5.5640   42.7520 C.ar      1 COP188      0.0000 
     11 C16        -0.3730   -5.1830   42.7760 C.ar      1 COP188      0.0000 
     12 C15         0.0380   -4.3460   41.7620 C.ar      1 COP188      0.0000 
     13 C14        -0.8100   -3.8930   40.7500 C.ar      1 COP188      0.0000 
     14 C19         0.5240   -5.7050   43.8320 C.2       1 COP188      0.0000 
     15 C21         3.0430   -6.1970   44.5170 C.3       1 COP188      0.0000 
     16 C24         4.4050   -5.5000   44.4170 C.2       1 COP188      0.0000 
     17 C27         3.3890   -7.4410   43.7100 C.3       1 COP188      0.0000 
     18 C28         3.7200   -8.5380   44.6260 C.3       1 COP188      0.0000 
     19 C29         3.3650   -9.7910   43.9740 C.3       1 COP188      0.0000 
     20 N4          1.3830   -6.1050   35.5780 N.ar      1 COP188      0.0000 
     21 N3          3.1470   -5.7980   34.0740 N.pl3     1 COP188      0.0000 
     22 N2          2.1740   -4.0430   34.9330 N.ar      1 COP188      0.0000 
     23 N1          1.2050   -2.0650   35.8410 N.pl3     1 COP188      0.0000 
     24 N9         -0.3870   -3.3480   37.1780 N.ar      1 COP188      0.0000 
     25 N6         -0.4110   -6.1480   37.1100 N.ar      1 COP188      0.0000 
     26 N12        -3.0020   -3.7660   39.7400 N.pl3     1 COP188      0.0000 
     27 N20         1.8330   -5.6030   43.9580 N.am      1 COP188      0.0000 
     28 O19        -0.0690   -6.3340   44.7260 O.2       1 COP188      0.0000 
     29 O24         5.1700   -5.4480   45.4020 O.co2     1 COP188      0.0000 
     30 O25         4.5920   -5.0400   43.2990 O.co2     1 COP188      0.0000 
     31 N30         2.2500  -10.6470   44.7620 N.am      1 COP188      0.0000 
     32 C31         1.7430  -11.9360   44.2980 C.2       1 COP188      0.0000 
     33 O32         1.0960  -11.9930   43.2280 O.2       1 COP188      0.0000 
     34 C33         2.0170  -13.2150   45.0610 C.ar      1 COP188      0.0000 
     35 C38         3.1660  -13.9970   44.8650 C.ar      1 COP188      0.0000 
     36 C37         3.4050  -15.1750   45.6070 C.ar      1 COP188      0.0000 
     37 C36         2.5090  -15.5700   46.6090 C.ar      1 COP188      0.0000 
     38 C35         1.4150  -14.8210   46.8100 C.ar      1 COP188      0.0000 
     39 C34         1.1410  -13.6580   46.0620 C.ar      1 COP188      0.0000 
     40 C39         4.2020  -13.6820   43.7970 C.2       1 COP188      0.0000 
     41 O40         4.8510  -14.8410   43.4180 O.co2     1 COP188      0.0000 
     42 O41         4.3270  -12.5330   43.3580 O.co2     1 COP188      0.0000 
     43 H          -2.0089   -5.9172   38.4125 H         1 COP188      0.0000 
     44 H          -2.8891   -2.6483   37.9384 H         1 COP188      0.0000 
     45 H          -1.6072   -2.2947   39.1096 H         1 COP188      0.0000 
     46 H          -3.6153   -5.3585   41.8209 H         1 COP188      0.0000 
     47 H          -2.0805   -6.2155   43.4788 H         1 COP188      0.0000 
     48 H           1.0416   -4.0274   41.7427 H         1 COP188      0.0000 
     49 H          -0.4513   -3.2865   40.0072 H         1 COP188      0.0000 
     50 H           2.9249   -6.5472   45.5297 H         1 COP188      0.0000 
     51 H           4.2342   -7.2098   43.0615 H         1 COP188      0.0000 
     52 H           2.5318   -7.7009   43.0886 H         1 COP188      0.0000 
     53 H           3.1625   -8.4245   45.5579 H         1 COP188      0.0000 
     54 H           4.7871   -8.5199   44.8567 H         1 COP188      0.0000 
     55 H           4.2356  -10.4595   43.8652 H         1 COP188      0.0000 
     56 H           2.9583   -9.6275   42.9617 H         1 COP188      0.0000 
     57 H           3.6805   -5.1200   33.5682 H         1 COP188      0.0000 
     58 H           3.2331   -6.7938   34.0415 H         1 COP188      0.0000 
     59 H           1.0197   -1.5434   35.0082 H         1 COP188      0.0000 
     60 H           1.2965   -1.7174   36.7741 H         1 COP188      0.0000 
     61 H          -3.9514   -3.8132   39.7253 H         1 COP188      0.0000 
     62 H           2.2230   -4.6043   43.3730 H         1 COP188      0.0000 
     63 H           1.9218  -10.2187   45.6157 H         1 COP188      0.0000 
     64 H           4.2368  -15.7383   45.4081 H         1 COP188      0.0000 
     65 H           2.7089  -16.4101   47.1562 H         1 COP188      0.0000 
     66 H           0.7151  -15.0879   47.5493 H         1 COP188      0.0000 
     67 H           0.2792  -13.1254   46.2573 H         1 COP188      0.0000 
@<TRIPOS>BOND
     1   20    1 ar   
     2   21    1 1    
     3   22    1 ar   
     4    3    2 ar   
     5   22    2 ar   
     6   23    2 1    
     7    6    3 ar   
     8   24    3 ar   
     9    5    4 ar   
    10    7    4 1    
    11   24    4 ar   
    12   25    5 ar   
    13   43    5 1    
    14   20    6 ar   
    15   25    6 ar   
    16   26    7 1    
    17   44    7 1    
    18   45    7 1    
    19    9    8 ar   
    20   13    8 ar   
    21   26    8 1    
    22   10    9 ar   
    23   46    9 1    
    24   11   10 ar   
    25   47   10 1    
    26   12   11 ar   
    27   14   11 1    
    28   13   12 ar   
    29   48   12 1    
    30   49   13 1    
    31   27   14 am   
    32   28   14 2    
    33   16   15 1    
    34   17   15 1    
    35   27   15 1    
    36   50   15 1    
    37   29   16 ar   
    38   30   16 ar   
    39   18   17 1    
    40   51   17 1    
    41   52   17 1    
    42   19   18 1    
    43   53   18 1    
    44   54   18 1    
    45   31   19 1    
    46   55   19 1    
    47   56   19 1    
    48   57   21 1    
    49   58   21 1    
    50   59   23 1    
    51   60   23 1    
    52   61   26 1    
    53   62   27 1    
    54   32   31 am   
    55   63   31 1    
    56   33   32 2    
    57   34   32 1    
    58   35   34 ar   
    59   39   34 ar   
    60   36   35 ar   
    61   40   35 1    
    62   37   36 ar   
    63   64   36 1    
    64   38   37 ar   
    65   65   37 1    
    66   39   38 ar   
    67   66   38 1    
    68   67   39 1    
    69   41   40 ar   
    70   42   40 ar   
@<TRIPOS>SUBSTRUCTURE
     1 COP188      1 GROUP   
@<TRIPOS>SET

