#    Name: 4nbt_NAD_2_INTS_M
#    Modification time : Tue Mar 25 12:56:52 2014

@<TRIPOS>MOLECULE
4nbt_NAD_2_INTS_M
   92     0     9     0     0
SMALL
NO_CHARGES


@<TRIPOS>ATOM
      1 CA         -7.8155  -60.4340   73.8775 C.3       3 GLC5        0.0000 
      2 CA         -6.1540  -59.4440   74.2880 C.3       9 GLL5        0.0000 
      3 CA         -9.4770  -61.4240   73.4670 C.3       6 GLP5        0.0000 
      4 CA         -5.2250  -57.4840   76.4675 C.3       3 GLC5        0.0000 
      5 CA         -5.9530  -59.2440   75.7290 C.3       9 GLL5        0.0000 
      6 CA         -4.4970  -55.7240   77.2060 C.3       6 GLP5        0.0000 
      7 O          -7.8345  -60.0815   77.1635 O.2       1 ALC1        0.0000 
      8 O          -7.1500  -58.7760   76.3250 O.2       7 ALL1        0.0000 
      9 O          -8.5190  -61.3870   78.0020 O.2       4 ALP1        0.0000 
     10 O          -8.2460  -59.4530   76.3675 O.2       1 ALC1        0.0000 
     11 O          -9.3420  -60.1300   76.4100 O.2       4 ALP1        0.0000 
     12 O          -7.2495  -61.0945   77.8120 O.2       1 ALC1        0.0000 
     13 O          -5.9800  -60.8020   77.6220 O.2       7 ALL1        0.0000 
     14 CA         -7.7035  -61.4585   74.3730 C.3       3 GLC5        0.0000 
     15 CA         -5.9300  -61.4930   75.2790 C.3       9 GLL5        0.0000 
     16 CA         -4.3840  -65.8260   74.0610 C.3       3 GLC5        0.0000 
     17 CA         -5.4960  -65.1010   75.7580 C.3       9 GLL5        0.0000 
     18 CA         -3.2720  -66.5510   72.3640 C.3       6 GLP5        0.0000 
     19 CA         -7.4305  -67.6855   76.9055 C.3       3 GLC5        0.0000 
     20 CA         -6.0520  -66.3580   75.9670 C.3       9 GLL5        0.0000 
     21 CA         -8.8090  -69.0130   77.8440 C.3       6 GLP5        0.0000 
     22 CA         -6.4020  -67.4670   74.5045 C.3       3 GLC5        0.0000 
     23 CA         -6.7520  -68.5760   73.0420 C.3       6 GLP5        0.0000 
     24 O          -5.7050  -68.6730   76.9600 O.2       1 ALC1        0.0000 
     25 O          -5.2390  -67.5040   76.1660 O.2       7 ALL1        0.0000 
     26 O          -6.1710  -69.8420   77.7540 O.2       4 ALP1        0.0000 
     27 N          -7.8995  -67.9180   75.7280 N.am      2 SEC2        0.0000 
     28 N          -7.4050  -66.4980   75.9820 N.am      8 SEL2        0.0000 
     29 N          -8.3940  -69.3380   75.4740 N.am      5 SEP2        0.0000 
     30 CA         -9.6165  -64.1940   76.7550 C.3       3 GLC5        0.0000 
     31 CA         -8.2170  -65.4260   75.8360 C.3       9 GLL5        0.0000 
     32 CA        -11.0160  -62.9620   77.6740 C.3       6 GLP5        0.0000 
     33 CA         -7.4475  -65.2470   77.6380 C.3       3 GLC5        0.0000 
     34 CA         -6.6780  -65.0680   79.4400 C.3       6 GLP5        0.0000 
     35 CA         -8.5130  -67.2195   76.8400 C.3       3 GLC5        0.0000 
     36 CA         -8.7020  -66.7480   74.3640 C.3       3 GLC5        0.0000 
     37 CA         -9.1870  -68.0700   72.8920 C.3       6 GLP5        0.0000 
     38 CA         -7.7575  -64.8625   73.9130 C.3       3 GLC5        0.0000 
     39 CA         -7.2980  -64.2990   71.9900 C.3       6 GLP5        0.0000 
     40 N          -2.6525  -53.6355   70.3580 N.am      2 SEC2        0.0000 
     41 N          -3.0600  -55.0920   69.9630 N.am      8 SEL2        0.0000 
     42 N          -2.2450  -52.1790   70.7530 N.am      5 SEP2        0.0000 
     43 N          -6.5850  -54.9365   70.4195 N.am      2 SEC2        0.0000 
     44 N          -5.4440  -55.6580   70.6850 N.am      8 SEL2        0.0000 
     45 N          -7.7260  -54.2150   70.1540 N.am      5 SEP2        0.0000 
     46 CA         -6.5500  -56.5825   68.4765 C.3       3 GLC5        0.0000 
     47 CA         -5.3010  -58.0450   69.1020 C.3       9 GLL5        0.0000 
     48 CA         -7.7990  -55.1200   67.8510 C.3       6 GLP5        0.0000 
     49 CA         -5.4050  -57.1025   67.1330 C.3       3 GLC5        0.0000 
     50 CA         -4.9350  -59.0110   68.0550 C.3       9 GLL5        0.0000 
     51 CA         -5.8750  -55.1940   66.2110 C.3       6 GLP5        0.0000 
     52 CA         -5.3775  -59.3625   66.1430 C.3       3 GLC5        0.0000 
     53 CA         -5.8200  -59.7140   64.2310 C.3       6 GLP5        0.0000 
     54 CA         -3.4870  -61.5110   69.4490 C.3       3 GLC5        0.0000 
     55 CA         -3.8490  -59.9650   68.3470 C.3       9 GLL5        0.0000 
     56 CA         -3.1250  -63.0570   70.5510 C.3       6 GLP5        0.0000 
     57 N          -3.5480  -62.0585   66.6650 N.am      2 SEC2        0.0000 
     58 N          -4.1040  -61.2280   67.7080 N.am      8 SEL2        0.0000 
     59 N          -2.9920  -62.8890   65.6220 N.am      5 SEP2        0.0000 
     60 O          -5.3240  -61.3500   68.3420 O.2       1 ALC1        0.0000 
     61 O          -4.1040  -61.2280   67.7080 O.2       7 ALL1        0.0000 
     62 O          -6.5440  -61.4720   68.9760 O.2       4 ALP1        0.0000 
     63 O          -0.5730  -59.9630   66.8195 O.2       1 ALC1        0.0000 
     64 O          -1.4440  -60.1390   67.7260 O.2       7 ALL1        0.0000 
     65 O           0.2980  -59.7870   65.9130 O.2       4 ALP1        0.0000 
     66 CA         -4.5290  -56.9520   66.3580 C.3       3 GLC5        0.0000 
     67 CA         -3.1830  -58.7100   66.5050 C.3       9 GLL5        0.0000 
     68 CA         -4.5015  -59.2120   65.3680 C.3       3 GLC5        0.0000 
     69 N          -0.6960  -51.9620   65.5340 N.am      2 SEC2        0.0000 
     70 N          -0.5000  -53.2840   66.1560 N.am      8 SEL2        0.0000 
     71 N          -0.8920  -50.6400   64.9120 N.am      5 SEP2        0.0000 
     72 O          -2.1690  -52.9395   69.3150 O.2       1 ALC1        0.0000 
     73 O          -2.0930  -53.7000   67.8770 O.2       7 ALL1        0.0000 
     74 O          -2.2450  -52.1790   70.7530 O.2       4 ALP1        0.0000 
     75 CA         -3.9255  -58.7620   64.4465 C.3       3 GLC5        0.0000 
     76 CA         -2.0310  -57.8100   64.6620 C.3       9 GLL5        0.0000 
     77 CA         -3.0850  -57.5580   63.0830 C.3       3 GLC5        0.0000 
     78 CA         -4.1390  -57.3060   61.5040 C.3       6 GLP5        0.0000 
     79 CA         -6.6182  -64.4213   73.8362 C.3       3 GLC5        0.0000 
     80 CA         -5.6333  -64.8679   77.4954 C.3       3 GLC5        0.0000 
     81 CA         -6.3810  -63.9860   75.6070 C.3       9 GLL5        0.0000 
     82 CA         -5.1890  -64.8780   79.2560 C.3       6 GLP5        0.0000 
     83 CA         -2.2525  -60.9000   66.1873 C.3       3 GLC5        0.0000 
     84 CA         -2.7110  -59.4720   67.6360 C.3       9 GLL5        0.0000 
     85 CA         -1.5580  -62.7090   65.3040 C.3       6 GLP5        0.0000 
     86 CA         -3.9047  -55.5585   66.2615 C.3       3 GLC5        0.0000 
     87 CA         -2.2850  -56.4310   66.6340 C.3       9 GLL5        0.0000 
     88 CA         -0.7658  -58.4360   63.2450 C.3       3 GLC5        0.0000 
     89 CA         -1.3280  -56.8000   64.0480 C.3       9 GLL5        0.0000 
     90 CA          0.1480  -59.5670   62.1350 C.3       6 GLP5        0.0000 
     91 CA         -2.5747  -55.6100   63.4243 C.3       3 GLC5        0.0000 
     92 CA         -3.8120  -55.0660   62.1480 C.3       6 GLP5        0.0000 
@<TRIPOS>BOND
@<TRIPOS>SUBSTRUCTURE
     1 ALC1        7 GROUP        1 X    ALC  0     ROOT ALC X 1
     2 SEC2       27 GROUP        1 X    SEC  0     **** SEC X 2
     3 GLC5        1 GROUP        1 X    GLC  0     **** GLC X 6
     4 ALP1        9 GROUP        1 Y    ALP  0     ROOT ALP Y 8
     5 SEP2       29 GROUP        1 Y    SEP  0     **** SEP Y 9
     6 GLP5        3 GROUP        1 Y    GLP  0     **** GLP Y 13
     7 ALL1        8 GROUP        1 Z    ALL  0     ROOT ALL Z 15
     8 SEL2       28 GROUP        1 Z    SEL  0     **** SEL Z 16
     9 GLL5        2 GROUP        1 Z    GLL  0     **** GLL Z 20
@<TRIPOS>SET

