#    Name: 4nbt_NAD_2_ligand
#    Modification time : Tue Mar 25 12:56:52 2014

@<TRIPOS>MOLECULE
4nbt_NAD_2_ligand
   70    74     1     0     0
SMALL
NO_CHARGES


@<TRIPOS>ATOM
      1 PA         -3.7300  -56.6790   73.3600 P.3       1 NAD301      0.0000 
      2 O1A        -2.5480  -57.3440   74.0400 O.co2     1 NAD301      0.0000 
      3 O2A        -3.9700  -55.1990   73.7180 O.co2     1 NAD301      0.0000 
      4 O5B        -5.0580  -57.4810   73.6270 O.3       1 NAD301      0.0000 
      5 C5B        -5.0720  -58.8700   73.4680 C.3       1 NAD301      0.0000 
      6 C4B        -6.1540  -59.4440   74.2880 C.3       1 NAD301      0.0000 
      7 O4B        -6.1760  -60.8850   73.9910 O.3       1 NAD301      0.0000 
      8 C3B        -5.9530  -59.2440   75.7290 C.3       1 NAD301      0.0000 
      9 O3B        -7.1500  -58.7760   76.3250 O.3       1 NAD301      0.0000 
     10 C2B        -5.5170  -60.5130   76.2790 C.3       1 NAD301      0.0000 
     11 O2B        -5.9800  -60.8020   77.6220 O.3       1 NAD301      0.0000 
     12 C1B        -5.9300  -61.4930   75.2790 C.3       1 NAD301      0.0000 
     13 N9A        -5.5700  -62.8770   75.4380 N.pl3     1 NAD301      0.0000 
     14 C8A        -4.2750  -63.2950   75.4900 C.2       1 NAD301      0.0000 
     15 N7A        -4.2200  -64.6130   75.6650 N.2       1 NAD301      0.0000 
     16 C5A        -5.4960  -65.1010   75.7580 C.ar      1 NAD301      0.0000 
     17 C6A        -6.0520  -66.3580   75.9670 C.ar      1 NAD301      0.0000 
     18 N6A        -5.2390  -67.5040   76.1660 N.pl3     1 NAD301      0.0000 
     19 N1A        -7.4050  -66.4980   75.9820 N.ar      1 NAD301      0.0000 
     20 C2A        -8.2170  -65.4260   75.8360 C.ar      1 NAD301      0.0000 
     21 N3A        -7.7230  -64.1750   75.6480 N.ar      1 NAD301      0.0000 
     22 C4A        -6.3810  -63.9860   75.6070 C.ar      1 NAD301      0.0000 
     23 O3         -3.3580  -56.7990   71.8390 O.3       1 NAD301      0.0000 
     24 PN         -4.0380  -56.1470   70.5410 P.3       1 NAD301      0.0000 
     25 O1N        -3.0600  -55.0920   69.9630 O.co2     1 NAD301      0.0000 
     26 O2N        -5.4440  -55.6580   70.6850 O.co2     1 NAD301      0.0000 
     27 O5D        -4.0770  -57.3900   69.5110 O.3       1 NAD301      0.0000 
     28 C5D        -5.3010  -58.0450   69.1020 C.3       1 NAD301      0.0000 
     29 C4D        -4.9350  -59.0110   68.0550 C.3       1 NAD301      0.0000 
     30 O4D        -4.4880  -58.1710   66.9310 O.3       1 NAD301      0.0000 
     31 C3D        -3.8490  -59.9650   68.3470 C.3       1 NAD301      0.0000 
     32 O3D        -4.1040  -61.2280   67.7080 O.3       1 NAD301      0.0000 
     33 C2D        -2.7110  -59.4720   67.6360 C.3       1 NAD301      0.0000 
     34 O2D        -1.4440  -60.1390   67.7260 O.3       1 NAD301      0.0000 
     35 C1D        -3.1830  -58.7100   66.5050 C.3       1 NAD301      0.0000 
     36 N1N        -2.4490  -57.6440   65.9740 N.pl3     1 NAD301      0.0000 
     37 C2N        -2.2850  -56.4310   66.6340 C.ar      1 NAD301      0.0000 
     38 C3N        -1.5840  -55.4150   65.9900 C.ar      1 NAD301      0.0000 
     39 C7N        -1.3390  -54.0850   66.6550 C.2       1 NAD301      0.0000 
     40 O7N        -0.5000  -53.2840   66.1560 O.2       1 NAD301      0.0000 
     41 N7N        -2.0930  -53.7000   67.8770 N.am      1 NAD301      0.0000 
     42 C4N        -1.1100  -55.6010   64.7160 C.ar      1 NAD301      0.0000 
     43 C5N        -1.3280  -56.8000   64.0480 C.ar      1 NAD301      0.0000 
     44 C6N        -2.0310  -57.8100   64.6620 C.ar      1 NAD301      0.0000 
     45 H          -4.1157  -59.3257   73.7777 H         1 NAD301      0.0000 
     46 H          -5.2367  -59.1585   72.4156 H         1 NAD301      0.0000 
     47 H          -7.0992  -59.0182   73.9787 H         1 NAD301      0.0000 
     48 H          -5.1496  -58.5126   75.8518 H         1 NAD301      0.0000 
     49 H          -4.3991  -60.5041   76.2646 H         1 NAD301      0.0000 
     50 H          -7.1782  -61.5673   75.6615 H         1 NAD301      0.0000 
     51 H          -3.5043  -62.6958   75.4083 H         1 NAD301      0.0000 
     52 H          -4.2514  -67.3471   76.1730 H         1 NAD301      0.0000 
     53 H          -5.7225  -68.3716   76.2824 H         1 NAD301      0.0000 
     54 H          -9.2598  -65.5626   75.8686 H         1 NAD301      0.0000 
     55 H          -6.0097  -57.3225   68.7040 H         1 NAD301      0.0000 
     56 H          -5.7570  -58.5666   69.9403 H         1 NAD301      0.0000 
     57 H          -5.8226  -59.5395   67.7197 H         1 NAD301      0.0000 
     58 H          -3.6636  -60.0531   69.3572 H         1 NAD301      0.0000 
     59 H          -2.4803  -58.4590   68.4220 H         1 NAD301      0.0000 
     60 H          -3.4500  -59.4364   65.6867 H         1 NAD301      0.0000 
     61 H          -2.6679  -56.2886   67.5655 H         1 NAD301      0.0000 
     62 H          -1.8530  -52.8180   68.2825 H         1 NAD301      0.0000 
     63 H          -2.7793  -54.3541   68.1949 H         1 NAD301      0.0000 
     64 H          -0.5840  -54.8457   64.2410 H         1 NAD301      0.0000 
     65 H          -0.9605  -56.9258   63.0934 H         1 NAD301      0.0000 
     66 H          -2.2465  -58.6785   64.1597 H         1 NAD301      0.0000 
     67 H          -7.7986  -59.5312   76.2303 H         1 NAD301      0.0000 
     68 H          -6.9619  -60.9659   77.5274 H         1 NAD301      0.0000 
     69 H          -5.1004  -61.2975   67.6607 H         1 NAD301      0.0000 
     70 H          -1.1360  -60.2380   66.7798 H         1 NAD301      0.0000 
@<TRIPOS>BOND
     1    2    1 ar   
     2    3    1 ar   
     3    4    1 1    
     4   23    1 1    
     5    5    4 1    
     6    6    5 1    
     7   45    5 1    
     8   46    5 1    
     9    7    6 1    
    10    8    6 1    
    11   47    6 1    
    12   12    7 1    
    13    9    8 1    
    14   10    8 1    
    15   48    8 1    
    16   67    9 1    
    17   11   10 1    
    18   12   10 1    
    19   49   10 1    
    20   68   11 1    
    21   13   12 1    
    22   50   12 1    
    23   14   13 1    
    24   22   13 1    
    25   15   14 2    
    26   51   14 1    
    27   16   15 1    
    28   17   16 ar   
    29   22   16 ar   
    30   18   17 1    
    31   19   17 ar   
    32   52   18 1    
    33   53   18 1    
    34   20   19 ar   
    35   21   20 ar   
    36   54   20 1    
    37   22   21 ar   
    38   24   23 1    
    39   25   24 ar   
    40   26   24 ar   
    41   27   24 1    
    42   28   27 1    
    43   29   28 1    
    44   55   28 1    
    45   56   28 1    
    46   30   29 1    
    47   31   29 1    
    48   57   29 1    
    49   35   30 1    
    50   32   31 1    
    51   33   31 1    
    52   58   31 1    
    53   69   32 1    
    54   34   33 1    
    55   35   33 1    
    56   59   33 1    
    57   70   34 1    
    58   36   35 1    
    59   60   35 1    
    60   37   36 ar   
    61   44   36 ar   
    62   38   37 ar   
    63   61   37 1    
    64   39   38 1    
    65   42   38 ar   
    66   40   39 2    
    67   41   39 am   
    68   62   41 1    
    69   63   41 1    
    70   43   42 ar   
    71   64   42 1    
    72   44   43 ar   
    73   65   43 1    
    74   66   44 1    
@<TRIPOS>SUBSTRUCTURE
     1 NAD301      1 GROUP   
@<TRIPOS>SET

