#    Name: 1ypl_RA8_1_INTS_M
#    Modification time : Tue Mar 25 11:13:51 2014

@<TRIPOS>MOLECULE
1ypl_RA8_1_INTS_M
   72     0    12     0     0
SMALL
NO_CHARGES


@<TRIPOS>ATOM
      1 CA         17.8570  -13.8795   26.9840 C.3       4 GLC5        0.0000 
      2 CA         18.5930  -15.5680   26.3620 C.3      12 GLL5        0.0000 
      3 CA         17.1210  -12.1910   27.6060 C.3       8 GLP5        0.0000 
      4 CA         16.6755  -15.8385   27.3535 C.3       4 GLC5        0.0000 
      5 CA         14.7580  -16.1090   28.3450 C.3       8 GLP5        0.0000 
      6 O          15.9850  -15.1175   24.4590 O.2       1 ALC1        0.0000 
      7 O          17.3870  -15.7090   24.0980 O.2       9 ALL1        0.0000 
      8 O          14.5830  -14.5260   24.8200 O.2       5 ALP1        0.0000 
      9 N          15.8140  -12.6305   24.0060 N.am      2 SEC2        0.0000 
     10 N          16.8110  -13.4010   22.9660 N.am     10 SEL2        0.0000 
     11 N          14.8170  -11.8600   25.0460 N.am      6 SEP2        0.0000 
     12 CA         18.4915  -16.1790   19.8065 C.3       4 GLC5        0.0000 
     13 CA         17.3830  -16.1750   21.6410 C.3      12 GLL5        0.0000 
     14 CA         19.6000  -16.1830   17.9720 C.3       8 GLP5        0.0000 
     15 CA         18.5580  -17.3015   19.2520 C.3       4 GLC5        0.0000 
     16 CA         17.5160  -18.4200   20.5320 C.3      12 GLL5        0.0000 
     17 CA         17.9645  -11.3415   22.9895 C.3       4 GLC5        0.0000 
     18 CA         18.4070  -12.0600   21.2950 C.3      12 GLL5        0.0000 
     19 CA         17.5220  -10.6230   24.6840 C.3       8 GLP5        0.0000 
     20 O          16.9245   -9.6280   21.4200 O.2       1 ALC1        0.0000 
     21 O          16.4410  -10.6310   20.5150 O.2       9 ALL1        0.0000 
     22 O          17.4080   -8.6250   22.3250 O.2       5 ALP1        0.0000 
     23 CA         13.4095   -8.0470   21.0830 C.3       4 GLC5        0.0000 
     24 CA         14.1400   -9.9290   20.7520 C.3      12 GLL5        0.0000 
     25 CA         12.6790   -6.1650   21.4140 C.3       8 GLP5        0.0000 
     26 CA         10.6865   -8.6570   22.3745 C.3       4 GLC5        0.0000 
     27 CA         12.3270  -10.1480   22.4760 C.3      12 GLL5        0.0000 
     28 CA          9.0460   -7.1660   22.2730 C.3       8 GLP5        0.0000 
     29 CA         10.6490  -10.5680   21.2285 C.3       4 GLC5        0.0000 
     30 CA          8.9710  -10.9880   19.9810 C.3       8 GLP5        0.0000 
     31 CA         12.5030   -8.1565   21.9450 C.3       4 GLC5        0.0000 
     32 CA         13.0670  -11.3255   24.1785 C.3       4 GLC5        0.0000 
     33 CA         13.8070  -12.5030   25.8810 C.3       8 GLP5        0.0000 
     34 OD1         9.3300   -9.4640   25.0940 O.co2     3 ASC3        0.0000 
     35 OD1        10.7730  -10.7530   24.0890 O.co2    11 ASL3        0.0000 
     36 OD1         8.0650   -9.3570   25.6530 O.co2     7 ASP3        0.0000 
     37 OD1         9.0425  -11.6165   25.2475 O.co2     3 ASC3        0.0000 
     38 OD1         7.9100  -11.5290   25.7880 O.co2     7 ASP3        0.0000 
     39 O           9.3300   -9.4640   25.0940 O.2       1 ALC1        0.0000 
     40 O          10.5950   -9.5710   24.5350 O.2       9 ALL1        0.0000 
     41 O           8.0650   -9.3570   25.6530 O.2       5 ALP1        0.0000 
     42 O           9.1200  -10.5305   25.1800 O.2       1 ALC1        0.0000 
     43 O          10.1750  -11.7040   24.7070 O.2       9 ALL1        0.0000 
     44 O           9.0425  -11.6165   25.2475 O.2       1 ALC1        0.0000 
     45 O           7.9100  -11.5290   25.7880 O.2       5 ALP1        0.0000 
     46 O          10.2380  -13.1930   24.4580 O.2       1 ALC1        0.0000 
     47 O          10.3010  -14.6820   24.2090 O.2       5 ALP1        0.0000 
     48 CA         22.9000  -12.3395   26.2020 C.3       4 GLC5        0.0000 
     49 CA         20.9600  -12.8880   25.0870 C.3      12 GLL5        0.0000 
     50 CA         24.2700  -11.4210   27.4830 C.3       8 GLP5        0.0000 
     51 CA         21.8715  -11.5225   24.1490 C.3       4 GLC5        0.0000 
     52 CA         22.1000  -13.6280   24.7550 C.3      12 GLL5        0.0000 
     53 CA         22.2130   -9.7870   23.3770 C.3       8 GLP5        0.0000 
     54 CA         18.9605  -11.9117   25.0190 C.3       4 GLC5        0.0000 
     55 CA         20.3619  -15.2135   27.4376 C.3       4 GLC5        0.0000 
     56 CA         19.8380  -13.5130   25.6210 C.3      12 GLL5        0.0000 
     57 CA         20.7600  -15.9500   29.1810 C.3       8 GLP5        0.0000 
     58 CA         19.1663  -10.4520   19.5105 C.3       4 GLC5        0.0000 
     59 CA         19.2900   -8.9400   18.2410 C.3       8 GLP5        0.0000 
     60 CA         22.1500  -13.7812   20.4465 C.3       4 GLC5        0.0000 
     61 CA         20.7760  -12.9130   20.5840 C.3      12 GLL5        0.0000 
     62 CA         23.8510  -14.1300   19.8330 C.3       8 GLP5        0.0000 
     63 CA         20.4311  -10.9153   21.6425 C.3       4 GLC5        0.0000 
     64 CA         20.9530   -9.3920   22.6030 C.3       8 GLP5        0.0000 
     65 CA         19.5377  -14.1001   19.3571 C.3       4 GLC5        0.0000 
     66 CA         19.6780  -11.8680   20.2650 C.3      12 GLL5        0.0000 
     67 CA         18.9010  -15.0290   17.7340 C.3       8 GLP5        0.0000 
     68 CA         14.8825   -8.8687   18.7985 C.3       4 GLC5        0.0000 
     69 CA         15.1260  -10.7240   19.8560 C.3      12 GLL5        0.0000 
     70 CA         15.1320   -7.4110   17.2930 C.3       8 GLP5        0.0000 
     71 CA         14.6151  -10.1715   23.0368 C.3       4 GLC5        0.0000 
     72 CA         16.1800  -10.0580   24.2300 C.3       8 GLP5        0.0000 
@<TRIPOS>BOND
@<TRIPOS>SUBSTRUCTURE
     1 ALC1        6 GROUP        1 X    ALC  0     ROOT ALC X 1
     2 SEC2        9 GROUP        1 X    SEC  0     **** SEC X 2
     3 ASC3       34 GROUP        1 X    ASC  0     **** ASC X 3
     4 GLC5        1 GROUP        1 X    GLC  0     **** GLC X 6
     5 ALP1        8 GROUP        1 Y    ALP  0     ROOT ALP Y 8
     6 SEP2       11 GROUP        1 Y    SEP  0     **** SEP Y 9
     7 ASP3       36 GROUP        1 Y    ASP  0     **** ASP Y 10
     8 GLP5        3 GROUP        1 Y    GLP  0     **** GLP Y 13
     9 ALL1        7 GROUP        1 Z    ALL  0     ROOT ALL Z 15
    10 SEL2       10 GROUP        1 Z    SEL  0     **** SEL Z 16
    11 ASL3       35 GROUP        1 Z    ASL  0     **** ASL Z 17
    12 GLL5        2 GROUP        1 Z    GLL  0     **** GLL Z 20
@<TRIPOS>SET

