#    Name: 1ypl_RA8_1_ligand
#    Modification time : Tue Mar 25 11:13:51 2014

@<TRIPOS>MOLECULE
1ypl_RA8_1_ligand
   72    73     1     0     0
SMALL
NO_CHARGES


@<TRIPOS>ATOM
      1 C27        18.5930  -15.5680   26.3620 C.3       1 RA85555     0.0000 
      2 S26        17.8540  -16.6820   25.1500 S.o2      1 RA85555     0.0000 
      3 C30        19.8360  -14.8980   25.7950 C.ar      1 RA85555     0.0000 
      4 C31        20.9650  -15.6490   25.4560 C.ar      1 RA85555     0.0000 
      5 C32        22.0960  -15.0160   24.9340 C.ar      1 RA85555     0.0000 
      6 C33        22.1000  -13.6280   24.7550 C.ar      1 RA85555     0.0000 
      7 C34        20.9600  -12.8880   25.0870 C.ar      1 RA85555     0.0000 
      8 C35        19.8380  -13.5130   25.6210 C.ar      1 RA85555     0.0000 
      9 O15        16.7120  -17.2620   25.8250 O.2       1 RA85555     0.0000 
     10 O29        18.8900  -17.5160   24.5860 O.2       1 RA85555     0.0000 
     11 N25        17.3870  -15.7090   24.0980 N.pl3     1 RA85555     0.0000 
     12 C19        17.8900  -15.3410   22.8230 C.3       1 RA85555     0.0000 
     13 C18        17.8730  -13.9600   22.7300 C.2       1 RA85555     0.0000 
     14 O24        16.8110  -13.4010   22.9660 O.2       1 RA85555     0.0000 
     15 C20        17.3830  -16.1750   21.6410 C.3       1 RA85555     0.0000 
     16 C21        17.5400  -17.6880   21.8800 C.3       1 RA85555     0.0000 
     17 C22        17.5160  -18.4200   20.5320 C.3       1 RA85555     0.0000 
     18 C23        16.3640  -18.1860   22.7530 C.3       1 RA85555     0.0000 
     19 N16        18.6310  -13.4270   21.7400 N.am      1 RA85555     0.0000 
     20 C11        18.4070  -12.0600   21.2950 C.3       1 RA85555     0.0000 
     21 C5         17.0850  -11.9830   20.5700 C.2       1 RA85555     0.0000 
     22 O12        16.7450  -12.9060   19.8380 O.2       1 RA85555     0.0000 
     23 C13        19.6780  -11.8680   20.2650 C.3       1 RA85555     0.0000 
     24 C14        20.7760  -12.9130   20.5840 C.3       1 RA85555     0.0000 
     25 C17        20.1220  -13.9520   21.5360 C.3       1 RA85555     0.0000 
     26 N10        16.4410  -10.6310   20.5150 N.am      1 RA85555     0.0000 
     27 C9         15.1260  -10.7240   19.8560 C.3       1 RA85555     0.0000 
     28 C8         14.1400   -9.9290   20.7520 C.3       1 RA85555     0.0000 
     29 C7         13.4070  -10.9150   21.6700 C.3       1 RA85555     0.0000 
     30 C6         12.3270  -10.1480   22.4760 C.3       1 RA85555     0.0000 
     31 N4         11.6370  -11.1390   23.2540 N.pl3     1 RA85555     0.0000 
     32 C2         10.7730  -10.7530   24.0890 C.cat     1 RA85555     0.0000 
     33 N1         10.5950   -9.5710   24.5350 N.pl3     1 RA85555     0.0000 
     34 N3         10.1750  -11.7040   24.7070 N.pl3     1 RA85555     0.0000 
     35 H          18.7940  -16.2189   27.1823 H         1 RA85555     0.0000 
     36 H          17.7970  -14.8891   26.5679 H         1 RA85555     0.0000 
     37 H          20.9631  -16.6666   25.5907 H         1 RA85555     0.0000 
     38 H          22.9231  -15.5672   24.6819 H         1 RA85555     0.0000 
     39 H          22.9287  -13.1591   24.3849 H         1 RA85555     0.0000 
     40 H          20.9551  -11.8678   24.9327 H         1 RA85555     0.0000 
     41 H          19.0158  -12.9614   25.8861 H         1 RA85555     0.0000 
     42 H          16.4622  -15.1899   24.4088 H         1 RA85555     0.0000 
     43 H          19.0384  -15.6339   22.8829 H         1 RA85555     0.0000 
     44 H          17.9403  -15.8988   20.7414 H         1 RA85555     0.0000 
     45 H          16.3261  -15.9511   21.4706 H         1 RA85555     0.0000 
     46 H          18.4528  -17.8775   22.3773 H         1 RA85555     0.0000 
     47 H          18.5213  -11.3739   22.0465 H         1 RA85555     0.0000 
     48 H          20.0472  -10.8743   20.4111 H         1 RA85555     0.0000 
     49 H          19.2977  -12.0087   19.2747 H         1 RA85555     0.0000 
     50 H          21.5858  -12.4368   21.0846 H         1 RA85555     0.0000 
     51 H          21.0771  -13.3983   19.6858 H         1 RA85555     0.0000 
     52 H          20.0829  -14.8959   21.0703 H         1 RA85555     0.0000 
     53 H          20.6093  -13.9449   22.4698 H         1 RA85555     0.0000 
     54 H          16.8236   -9.8593   20.8494 H         1 RA85555     0.0000 
     55 H          14.7861  -11.7404   19.8026 H         1 RA85555     0.0000 
     56 H          15.1413  -10.2663   18.8856 H         1 RA85555     0.0000 
     57 H          13.4287   -9.4204   20.1242 H         1 RA85555     0.0000 
     58 H          14.6968   -9.2252   21.3465 H         1 RA85555     0.0000 
     59 H          14.1079  -11.3595   22.3580 H         1 RA85555     0.0000 
     60 H          12.9266  -11.6752   21.0755 H         1 RA85555     0.0000 
     61 H          11.6779   -9.6581   21.7690 H         1 RA85555     0.0000 
     62 H          12.8326   -9.4230   23.0924 H         1 RA85555     0.0000 
     63 H          11.9003  -12.1231   23.0737 H         1 RA85555     0.0000 
     64 H           9.5158  -11.4281   25.4065 H         1 RA85555     0.0000 
     65 H          10.4238  -12.6326   24.4317 H         1 RA85555     0.0000 
     66 H          18.2544  -18.1150   19.9305 H         1 RA85555     0.0000 
     67 H          17.6187  -19.4084   20.6442 H         1 RA85555     0.0000 
     68 H          16.6574  -18.2683   20.0422 H         1 RA85555     0.0000 
     69 H          16.4272  -19.1669   22.9367 H         1 RA85555     0.0000 
     70 H          16.3371  -17.7230   23.6390 H         1 RA85555     0.0000 
     71 H          15.4807  -18.0267   22.3121 H         1 RA85555     0.0000 
     72 H           9.6734   -9.5770   24.9230 H         1 RA85555     0.0000 
@<TRIPOS>BOND
     1    2    1 1    
     2    3    1 1    
     3   35    1 1    
     4   36    1 1    
     5    9    2 2    
     6   10    2 2    
     7   11    2 1    
     8    4    3 ar   
     9    8    3 ar   
    10    5    4 ar   
    11   37    4 1    
    12    6    5 ar   
    13   38    5 1    
    14    7    6 ar   
    15   39    6 1    
    16    8    7 ar   
    17   40    7 1    
    18   41    8 1    
    19   12   11 1    
    20   42   11 1    
    21   13   12 1    
    22   15   12 1    
    23   43   12 1    
    24   14   13 2    
    25   19   13 am   
    26   16   15 1    
    27   44   15 1    
    28   45   15 1    
    29   17   16 1    
    30   18   16 1    
    31   46   16 1    
    32   66   17 1    
    33   67   17 1    
    34   68   17 1    
    35   69   18 1    
    36   70   18 1    
    37   71   18 1    
    38   20   19 1    
    39   25   19 1    
    40   21   20 1    
    41   23   20 1    
    42   47   20 1    
    43   22   21 2    
    44   26   21 am   
    45   24   23 1    
    46   48   23 1    
    47   49   23 1    
    48   25   24 1    
    49   50   24 1    
    50   51   24 1    
    51   52   25 1    
    52   53   25 1    
    53   27   26 1    
    54   54   26 1    
    55   28   27 1    
    56   55   27 1    
    57   56   27 1    
    58   29   28 1    
    59   57   28 1    
    60   58   28 1    
    61   30   29 1    
    62   59   29 1    
    63   60   29 1    
    64   31   30 1    
    65   61   30 1    
    66   62   30 1    
    67   32   31 ar   
    68   63   31 1    
    69   33   32 ar   
    70   34   32 ar   
    71   72   33 1    
    72   64   34 1    
    73   65   34 1    
@<TRIPOS>SUBSTRUCTURE
     1 RA85555     1 GROUP   
@<TRIPOS>SET

