#    Name: 3k8x_B89_2_INTS_M
#    Modification time : Mon Mar 24 18:56:26 2014

@<TRIPOS>MOLECULE
3k8x_B89_2_INTS_M
   82     0     6     0     0
SMALL
NO_CHARGES


@<TRIPOS>ATOM
      1 CA         50.4370  -37.1265   18.8395 C.3       2 GLC5        0.0000 
      2 CA         50.4300  -35.2640   18.5270 C.3       6 GLL5        0.0000 
      3 CA         50.4440  -38.9890   19.1520 C.3       4 GLP5        0.0000 
      4 CA         49.7045  -36.2855   16.8365 C.3       2 GLC5        0.0000 
      5 CA         48.9790  -37.3070   15.1460 C.3       4 GLP5        0.0000 
      6 N          48.8015  -37.9205   20.6170 N.am      1 SEC2        0.0000 
      7 N          47.5200  -37.9020   19.9470 N.am      5 SEL2        0.0000 
      8 N          50.0830  -37.9390   21.2870 N.am      3 SEP2        0.0000 
      9 N          47.2420  -32.6850   17.2400 N.am      1 SEC2        0.0000 
     10 N          47.1550  -33.3670   18.3670 N.am      5 SEL2        0.0000 
     11 N          47.3290  -32.0030   16.1130 N.am      3 SEP2        0.0000 
     12 N          47.1730  -32.6970   19.7485 N.am      1 SEC2        0.0000 
     13 N          47.1910  -32.0270   21.1300 N.am      3 SEP2        0.0000 
     14 CA         52.8370  -31.2235   25.6210 C.3       2 GLC5        0.0000 
     15 CA         51.5550  -32.6770   25.9020 C.3       6 GLL5        0.0000 
     16 CA         54.1190  -29.7700   25.3400 C.3       4 GLP5        0.0000 
     17 CA         51.2545  -31.3065   24.1970 C.3       2 GLC5        0.0000 
     18 CA         50.9540  -29.9360   22.4920 C.3       4 GLP5        0.0000 
     19 CA         49.9590  -31.9315   26.0685 C.3       2 GLC5        0.0000 
     20 CA         48.3630  -31.1860   26.2350 C.3       4 GLP5        0.0000 
     21 CA         51.4560  -30.7180   26.8995 C.3       2 GLC5        0.0000 
     22 CA         51.3570  -28.7590   27.8970 C.3       4 GLP5        0.0000 
     23 CA         52.9895  -32.5310   27.4810 C.3       2 GLC5        0.0000 
     24 CA         54.4240  -32.3850   29.0600 C.3       4 GLP5        0.0000 
     25 CA         49.3170  -33.2165   26.0330 C.3       2 GLC5        0.0000 
     26 CA         50.5180  -33.9110   25.2160 C.3       6 GLL5        0.0000 
     27 CA         48.1160  -32.5220   26.8500 C.3       4 GLP5        0.0000 
     28 CA         51.3945  -32.9660   19.5995 C.3       2 GLC5        0.0000 
     29 CA         49.6990  -34.4190   19.5570 C.3       6 GLL5        0.0000 
     30 CA         53.0900  -31.5130   19.6420 C.3       4 GLP5        0.0000 
     31 CA         49.4880  -32.5355   20.1130 C.3       2 GLC5        0.0000 
     32 CA         49.2770  -30.6520   20.6690 C.3       4 GLP5        0.0000 
     33 CA         50.0565  -35.9175   21.0835 C.3       2 GLC5        0.0000 
     34 CA         50.4140  -37.4160   22.6100 C.3       4 GLP5        0.0000 
     35 CA         51.1795  -34.6305   23.0575 C.3       2 GLC5        0.0000 
     36 CA         48.9730  -34.5840   23.4900 C.3       6 GLL5        0.0000 
     37 CA         53.3860  -34.6770   22.6250 C.3       4 GLP5        0.0000 
     38 CA         44.2915  -38.6685   13.2405 C.3       2 GLC5        0.0000 
     39 CA         43.5120  -36.6800   13.7610 C.3       6 GLL5        0.0000 
     40 CA         45.0710  -40.6570   12.7200 C.3       4 GLP5        0.0000 
     41 CA         42.7165  -37.9435   12.3495 C.3       2 GLC5        0.0000 
     42 CA         41.9210  -39.2070   10.9380 C.3       4 GLP5        0.0000 
     43 CA         46.8445  -36.8240   14.9205 C.3       2 GLC5        0.0000 
     44 CA         44.7100  -36.3410   14.6950 C.3       6 GLL5        0.0000 
     45 CA         42.4275  -34.7795   17.7005 C.3       2 GLC5        0.0000 
     46 CA         43.0980  -36.2440   16.5980 C.3       6 GLL5        0.0000 
     47 CA         41.7570  -33.3150   18.8030 C.3       4 GLP5        0.0000 
     48 CA         43.7925  -38.3375   18.7030 C.3       2 GLC5        0.0000 
     49 CA         45.7480  -37.4630   18.3040 C.3       6 GLL5        0.0000 
     50 CA         41.8370  -39.2120   19.1020 C.3       4 GLP5        0.0000 
     51 CA         45.4480  -33.0460   17.2280 C.3       2 GLC5        0.0000 
     52 CA         45.6010  -35.0680   17.5000 C.3       6 GLL5        0.0000 
     53 CA         45.2950  -31.0240   16.9560 C.3       4 GLP5        0.0000 
     54 CA         43.6790  -34.1915   18.1515 C.3       2 GLC5        0.0000 
     55 CA         45.3875  -34.2255   19.3545 C.3       2 GLC5        0.0000 
     56 CA         45.1740  -33.3830   21.2090 C.3       4 GLP5        0.0000 
     57 CA         46.3005  -34.4940   20.1990 C.3       2 GLC5        0.0000 
     58 CA         47.4270  -35.6050   19.1890 C.3       6 GLL5        0.0000 
     59 CA         47.3055  -36.9125   16.1140 C.3       2 GLC5        0.0000 
     60 CA         45.6320  -36.5180   17.0820 C.3       6 GLL5        0.0000 
     61 CA         49.7348  -34.0288   17.4075 C.3       2 GLC5        0.0000 
     62 CA         49.4050  -33.2160   15.7730 C.3       4 GLP5        0.0000 
     63 CA         51.4688  -35.7732   18.1945 C.3       2 GLC5        0.0000 
     64 CA         52.8730  -36.7050   17.3470 C.3       4 GLP5        0.0000 
     65 CA         51.5207  -34.7557   20.1060 C.3       2 GLC5        0.0000 
     66 CA         52.9770  -34.6700   21.1700 C.3       4 GLP5        0.0000 
     67 CA         51.9528  -34.4735   26.4535 C.3       2 GLC5        0.0000 
     68 CA         52.8690  -35.6530   27.3480 C.3       4 GLP5        0.0000 
     69 CA         48.7585  -32.5782   22.7197 C.3       2 GLC5        0.0000 
     70 CA         48.1200  -31.0460   21.6690 C.3       4 GLP5        0.0000 
     71 CA         48.4000  -33.8093   24.9667 C.3       2 GLC5        0.0000 
     72 CA         49.8210  -33.6370   24.0510 C.3       6 GLL5        0.0000 
     73 CA         47.4030  -33.5080   26.1630 C.3       4 GLP5        0.0000 
     74 CA         51.9329  -33.3563   23.9875 C.3       2 GLC5        0.0000 
     75 CA         53.4370  -33.2470   23.1700 C.3       4 GLP5        0.0000 
     76 CA         49.9926  -35.7975   23.3359 C.3       2 GLC5        0.0000 
     77 CA         45.7820  -36.6052   13.1335 C.3       2 GLC5        0.0000 
     78 CA         47.4530  -36.7000   12.0390 C.3       4 GLP5        0.0000 
     79 CA         42.1902  -37.8623   17.6190 C.3       2 GLC5        0.0000 
     80 CA         45.0890  -38.6458   15.2895 C.3       2 GLC5        0.0000 
     81 CA         44.4360  -36.8340   16.1410 C.3       6 GLL5        0.0000 
     82 CA         45.6050  -40.7040   15.1610 C.3       4 GLP5        0.0000 
@<TRIPOS>BOND
@<TRIPOS>SUBSTRUCTURE
     1 SEC2        6 GROUP        1 X    SEC  0     ROOT SEC X 2
     2 GLC5        1 GROUP        1 X    GLC  0     **** GLC X 6
     3 SEP2        8 GROUP        1 Y    SEP  0     ROOT SEP Y 9
     4 GLP5        3 GROUP        1 Y    GLP  0     **** GLP Y 13
     5 SEL2        7 GROUP        1 Z    SEL  0     ROOT SEL Z 16
     6 GLL5        2 GROUP        1 Z    GLL  0     **** GLL Z 20
@<TRIPOS>SET

