#    Name: 3k8x_B89_2_ligand
#    Modification time : Mon Mar 24 18:56:27 2014

@<TRIPOS>MOLECULE
3k8x_B89_2_ligand
   46    47     1     0     0
SMALL
NO_CHARGES


@<TRIPOS>ATOM
      1 CAA        50.4300  -35.2640   18.5270 C.3       1 B892        0.0000 
      2 OAB        47.5200  -37.9020   19.9470 O.co2     1 B892        0.0000 
      3 OAC        47.1550  -33.3670   18.3670 O.2       1 B892        0.0000 
      4 CLAD       51.5550  -32.6770   25.9020 Cl        1 B892        0.0000 
      5 CAE        50.5180  -33.9110   25.2160 C.2       1 B892        0.0000 
      6 CAF        49.8210  -33.6370   24.0510 C.2       1 B892        0.0000 
      7 CAG        49.6990  -34.4190   19.5570 C.3       1 B892        0.0000 
      8 CAH        48.9730  -34.5840   23.4900 C.3       1 B892        0.0000 
      9 CAI        43.5120  -36.6800   13.7610 C.3       1 B892        0.0000 
     10 CAJ        41.9890  -36.7810   15.6740 C.3       1 B892        0.0000 
     11 CAK        44.7100  -36.3410   14.6950 C.3       1 B892        0.0000 
     12 CAL        43.0980  -36.2440   16.5980 C.3       1 B892        0.0000 
     13 CAM        45.7480  -37.4630   18.3040 C.3       1 B892        0.0000 
     14 CAN        45.6010  -35.0680   17.5000 C.3       1 B892        0.0000 
     15 NAO        48.2040  -35.1860   21.3340 N.2       1 B892        0.0000 
     16 OAP        42.2160  -36.3220   14.3390 O.3       1 B892        0.0000 
     17 OAQ        49.2110  -34.6210   22.0690 O.3       1 B892        0.0000 
     18 CAR        46.9280  -37.0370   19.1910 C.2       1 B892        0.0000 
     19 CAS        46.7700  -34.6980   18.3680 C.2       1 B892        0.0000 
     20 CAT        48.4070  -35.1270   20.0340 C.2       1 B892        0.0000 
     21 CAU        47.4270  -35.6050   19.1890 C.2       1 B892        0.0000 
     22 CAV        44.4360  -36.8340   16.1410 C.3       1 B892        0.0000 
     23 CAW        45.6320  -36.5180   17.0820 C.3       1 B892        0.0000 
     24 H          50.5399  -34.7192   25.7626 H         1 B892        0.0000 
     25 H          49.9317  -32.7164   23.5912 H         1 B892        0.0000 
     26 H          49.4290  -33.4597   19.1216 H         1 B892        0.0000 
     27 H          50.3414  -34.2510   20.4183 H         1 B892        0.0000 
     28 H          47.9127  -34.3394   23.6776 H         1 B892        0.0000 
     29 H          49.1479  -35.5872   23.9170 H         1 B892        0.0000 
     30 H          43.5621  -37.7597   13.5418 H         1 B892        0.0000 
     31 H          43.6791  -36.1511   12.8078 H         1 B892        0.0000 
     32 H          41.0319  -36.4297   16.0700 H         1 B892        0.0000 
     33 H          42.0059  -37.8726   15.7396 H         1 B892        0.0000 
     34 H          44.8543  -35.2682   14.7070 H         1 B892        0.0000 
     35 H          45.6000  -36.8276   14.3167 H         1 B892        0.0000 
     36 H          42.8957  -36.5499   17.6104 H         1 B892        0.0000 
     37 H          43.1330  -35.1704   16.5239 H         1 B892        0.0000 
     38 H          44.8303  -37.4126   18.8758 H         1 B892        0.0000 
     39 H          45.9076  -38.4743   17.9526 H         1 B892        0.0000 
     40 H          45.5980  -34.4337   16.6010 H         1 B892        0.0000 
     41 H          44.6651  -34.8694   18.0432 H         1 B892        0.0000 
     42 H          44.3235  -37.9226   16.0835 H         1 B892        0.0000 
     43 H          46.5557  -36.6608   16.4742 H         1 B892        0.0000 
     44 H          51.2660  -34.8184   18.2068 H         1 B892        0.0000 
     45 H          50.6957  -36.1539   18.8977 H         1 B892        0.0000 
     46 H          49.8642  -35.4392   17.7213 H         1 B892        0.0000 
@<TRIPOS>BOND
     1    7    1 1    
     2   44    1 1    
     3   45    1 1    
     4   46    1 1    
     5   18    2 ar   
     6   19    3 2    
     7    5    4 1    
     8    6    5 2    
     9   24    5 1    
    10    8    6 1    
    11   25    6 1    
    12   20    7 1    
    13   26    7 1    
    14   27    7 1    
    15   17    8 1    
    16   28    8 1    
    17   29    8 1    
    18   11    9 1    
    19   16    9 1    
    20   30    9 1    
    21   31    9 1    
    22   12   10 1    
    23   16   10 1    
    24   32   10 1    
    25   33   10 1    
    26   22   11 1    
    27   34   11 1    
    28   35   11 1    
    29   22   12 1    
    30   36   12 1    
    31   37   12 1    
    32   18   13 1    
    33   23   13 1    
    34   38   13 1    
    35   39   13 1    
    36   19   14 1    
    37   23   14 1    
    38   40   14 1    
    39   41   14 1    
    40   17   15 1    
    41   20   15 2    
    42   21   18 2    
    43   21   19 1    
    44   21   20 1    
    45   23   22 1    
    46   42   22 1    
    47   43   23 1    
@<TRIPOS>SUBSTRUCTURE
     1 B892        1 GROUP   
@<TRIPOS>SET

