#    Name: 1kzk_JE2_1_INTS_M
#    Modification time : Mon Apr  7 13:53:31 2014

@<TRIPOS>MOLECULE
1kzk_JE2_1_INTS_M
  108     0     9     0     0
SMALL
NO_CHARGES


@<TRIPOS>ATOM
      1 CA         26.4540    3.3925   20.1465 C.3       3 GLC5        0.0000 
      2 CA         24.5000    2.3990   20.4240 C.3       9 GLL5        0.0000 
      3 CA         28.4080    4.3860   19.8690 C.3       6 GLP5        0.0000 
      4 CA         25.9135    1.0700   21.4760 C.3       3 GLC5        0.0000 
      5 CA         27.3270   -0.2590   22.5280 C.3       6 GLP5        0.0000 
      6 CA         24.6900    1.3625   17.3430 C.3       3 GLC5        0.0000 
      7 CA         24.8990    0.3740   18.9300 C.3       9 GLL5        0.0000 
      8 CA         24.4810    2.3510   15.7560 C.3       6 GLP5        0.0000 
      9 CA         26.8445    0.1915   19.0930 C.3       3 GLC5        0.0000 
     10 CA         28.7900    0.0090   19.2560 C.3       6 GLP5        0.0000 
     11 CA         26.1130    0.0575   20.7290 C.3       3 GLC5        0.0000 
     12 CA         25.5005   -1.0845   17.4605 C.3       3 GLC5        0.0000 
     13 CA         26.1020   -2.5430   15.9910 C.3       6 GLP5        0.0000 
     14 CA         24.6040   -1.6195   19.4000 C.3       3 GLC5        0.0000 
     15 CA         24.3090   -3.6130   19.8700 C.3       6 GLP5        0.0000 
     16 O          26.3405    3.5740   21.0965 O.2       1 ALC1        0.0000 
     17 O          25.8560    2.4460   20.5620 O.2       7 ALL1        0.0000 
     18 O          26.8250    4.7020   21.6310 O.2       4 ALP1        0.0000 
     19 O          20.7800    2.0260   17.1305 O.2       1 ALC1        0.0000 
     20 O          20.9700    0.6590   17.7570 O.2       7 ALL1        0.0000 
     21 O          20.5900    3.3930   16.5040 O.2       4 ALP1        0.0000 
     22 N          18.4915   -0.8480   13.9795 N.am      2 SEC2        0.0000 
     23 N          19.2990   -1.8640   14.2880 N.am      8 SEL2        0.0000 
     24 N          17.6840    0.1680   13.6710 N.am      5 SEP2        0.0000 
     25 CA         20.4910    1.5430   14.8910 C.3       3 GLC5        0.0000 
     26 CA         20.8680   -0.5040   15.6030 C.3       9 GLL5        0.0000 
     27 CA         20.1140    3.5900   14.1790 C.3       6 GLP5        0.0000 
     28 N          19.1025    0.3750   14.2085 N.am      2 SEC2        0.0000 
     29 N          20.5210    0.5820   14.7460 N.am      8 SEL2        0.0000 
     30 O          21.2950    0.8230   13.7195 O.2       1 ALC1        0.0000 
     31 O          20.5210    0.5820   14.7460 O.2       7 ALL1        0.0000 
     32 O          22.0690    1.0640   12.6930 O.2       4 ALP1        0.0000 
     33 O          21.8950   -0.0435   14.1380 O.2       1 ALC1        0.0000 
     34 O          23.2690   -0.6690   13.5300 O.2       4 ALP1        0.0000 
     35 CA         17.4490    3.2120   17.2000 C.3       3 GLC5        0.0000 
     36 CA         18.0940    2.0320   18.5210 C.3       9 GLL5        0.0000 
     37 CA         16.8040    4.3920   15.8790 C.3       6 GLP5        0.0000 
     38 CA         23.5100   -4.1510   11.9190 C.3       3 GLC5        0.0000 
     39 CA         22.7450   -4.7600   13.3790 C.3       9 GLL5        0.0000 
     40 CA         24.2750   -3.5420   10.4590 C.3       6 GLP5        0.0000 
     41 CA         24.6650   -5.3595   13.1795 C.3       3 GLC5        0.0000 
     42 CA         26.5850   -5.9590   12.9800 C.3       6 GLP5        0.0000 
     43 CA         23.1260   -7.1825   15.7895 C.3       3 GLC5        0.0000 
     44 CA         21.5620   -6.6380   14.5150 C.3       9 GLL5        0.0000 
     45 CA         24.6900   -7.7270   17.0640 C.3       6 GLP5        0.0000 
     46 CA         21.2650   -6.9660   16.5220 C.3       3 GLC5        0.0000 
     47 CA         20.9680   -7.2940   18.5290 C.3       6 GLP5        0.0000 
     48 CA         23.7325   -6.2160   16.6040 C.3       3 GLC5        0.0000 
     49 CA         22.7750   -4.7050   16.1440 C.3       9 GLL5        0.0000 
     50 CA         21.8715   -5.9995   17.3365 C.3       3 GLC5        0.0000 
     51 O          18.6275   -6.0235   13.3420 O.2       1 ALC1        0.0000 
     52 O          18.5680   -5.5610   14.7910 O.2       7 ALL1        0.0000 
     53 O          18.6870   -6.4860   11.8930 O.2       4 ALP1        0.0000 
     54 CA         17.6930   -5.9770   17.5610 C.3       3 GLC5        0.0000 
     55 CA         17.4260   -6.2060   15.4830 C.3       9 GLL5        0.0000 
     56 CA         17.9600   -5.7480   19.6390 C.3       6 GLP5        0.0000 
     57 CA         13.7185   -8.3675   14.3740 C.3       3 GLC5        0.0000 
     58 CA         14.3650   -6.9590   13.3090 C.3       9 GLL5        0.0000 
     59 CA         13.0720   -9.7760   15.4390 C.3       6 GLP5        0.0000 
     60 CA         14.8255   -8.2135   15.2715 C.3       3 GLC5        0.0000 
     61 CA         15.5770   -7.0730   14.0280 C.3       9 GLL5        0.0000 
     62 CA         14.0740   -9.3540   16.5150 C.3       6 GLP5        0.0000 
     63 CA         15.3850   -3.6180   17.4035 C.3       3 GLC5        0.0000 
     64 CA         16.0130   -3.5750   15.4200 C.3       9 GLL5        0.0000 
     65 CA         14.7570   -3.6610   19.3870 C.3       6 GLP5        0.0000 
     66 CA         15.3540   -1.7870   16.1790 C.3       3 GLC5        0.0000 
     67 CA         14.6950    0.0010   16.9380 C.3       6 GLP5        0.0000 
     68 CA         23.6250    5.1255   20.2028 C.3       3 GLC5        0.0000 
     69 CA         22.3390    3.4320   20.7260 C.3       9 GLL5        0.0000 
     70 CA         24.2370    6.8110   19.5690 C.3       6 GLP5        0.0000 
     71 CA         22.7575    2.5918   17.9718 C.3       3 GLC5        0.0000 
     72 CA         21.7270    2.3540   20.0240 C.3       9 GLL5        0.0000 
     73 CA         23.3850    3.3330   16.2150 C.3       6 GLP5        0.0000 
     74 CA         23.8050    2.6058   18.1148 C.3       3 GLC5        0.0000 
     75 CA         23.9500    1.3580   19.6050 C.3       9 GLL5        0.0000 
     76 CA         16.2150    1.8813   18.9873 C.3       3 GLC5        0.0000 
     77 CA         14.3090    2.4280   19.6080 C.3       6 GLP5        0.0000 
     78 CA         16.1023    0.6330   22.0330 C.3       3 GLC5        0.0000 
     79 CA         17.3750    0.1040   20.4720 C.3       9 GLL5        0.0000 
     80 CA         14.8550    0.4840   23.4240 C.3       6 GLP5        0.0000 
     81 CA         15.9047    2.1810   19.9665 C.3       3 GLC5        0.0000 
     82 CA         17.3240    1.4600   20.8120 C.3       9 GLL5        0.0000 
     83 CA         16.4753    0.6124   17.4850 C.3       3 GLC5        0.0000 
     84 CA         18.9845   -0.8592   20.9737 C.3       3 GLC5        0.0000 
     85 CA         17.7970   -0.2950   19.2130 C.3       9 GLL5        0.0000 
     86 CA         20.3830   -1.6230   22.1050 C.3       6 GLP5        0.0000 
     87 CA         17.4680   -1.9263   20.4953 C.3       3 GLC5        0.0000 
     88 CA         17.3500   -3.7570   21.1480 C.3       6 GLP5        0.0000 
     89 CA         15.9475    1.1663   19.7252 C.3       3 GLC5        0.0000 
     90 CA         16.1405   -0.0473   18.3902 C.3       3 GLC5        0.0000 
     91 CA         24.3422   -3.1845   16.0120 C.3       3 GLC5        0.0000 
     92 CA         22.3900   -2.9470   15.9220 C.3       9 GLL5        0.0000 
     93 CA         23.4458   -3.7195   17.9515 C.3       3 GLC5        0.0000 
     94 CA         14.4010   -6.2035   15.8388 C.3       3 GLC5        0.0000 
     95 CA         16.1360   -5.9810   14.6820 C.3       9 GLL5        0.0000 
     96 CA         12.9940   -7.0510   17.0030 C.3       6 GLP5        0.0000 
     97 CA         13.4977   -6.1182   15.3202 C.3       3 GLC5        0.0000 
     98 CA         14.2670   -4.6240   13.9790 C.3       9 GLL5        0.0000 
     99 CA         13.1013   -6.5230   11.7152 C.3       3 GLC5        0.0000 
    100 CA         13.7360   -5.7470   13.2960 C.3       9 GLL5        0.0000 
    101 CA         12.1520   -6.6930   10.1280 C.3       6 GLP5        0.0000 
    102 CA         12.1357   -7.1275   13.4697 C.3       3 GLC5        0.0000 
    103 CA         10.2210   -7.9020   13.6370 C.3       6 GLP5        0.0000 
    104 CA         15.9291   -3.2296   13.3138 C.3       3 GLC5        0.0000 
    105 CA         15.4800   -4.7310   14.6670 C.3       9 GLL5        0.0000 
    106 CA         16.4150   -2.3330   11.7560 C.3       6 GLP5        0.0000 
    107 CA         13.6556   -3.5606   15.6287 C.3       3 GLC5        0.0000 
    108 CA         11.8680   -2.9950   16.3860 C.3       6 GLP5        0.0000 
@<TRIPOS>BOND
@<TRIPOS>SUBSTRUCTURE
     1 ALC1       16 GROUP        1 X    ALC  0     ROOT ALC X 1
     2 SEC2       22 GROUP        1 X    SEC  0     **** SEC X 2
     3 GLC5        1 GROUP        1 X    GLC  0     **** GLC X 6
     4 ALP1       18 GROUP        1 Y    ALP  0     ROOT ALP Y 8
     5 SEP2       24 GROUP        1 Y    SEP  0     **** SEP Y 9
     6 GLP5        3 GROUP        1 Y    GLP  0     **** GLP Y 13
     7 ALL1       17 GROUP        1 Z    ALL  0     ROOT ALL Z 15
     8 SEL2       23 GROUP        1 Z    SEL  0     **** SEL Z 16
     9 GLL5        2 GROUP        1 Z    GLL  0     **** GLL Z 20
@<TRIPOS>SET

