#    Name: 1kzk_JE2_1_ligand
#    Modification time : Mon Apr  7 13:53:31 2014

@<TRIPOS>MOLECULE
1kzk_JE2_1_ligand
   78    81     1     0     0
SMALL
NO_CHARGES


@<TRIPOS>ATOM
      1 C3         23.6870    3.4480   20.9470 C.ar      1 JE2701      0.0000 
      2 C4         22.3390    3.4320   20.7260 C.ar      1 JE2701      0.0000 
      3 C5         21.7270    2.3540   20.0240 C.ar      1 JE2701      0.0000 
      4 C6         22.5330    1.3470   19.4330 C.ar      1 JE2701      0.0000 
      5 C7         23.9500    1.3580   19.6050 C.ar      1 JE2701      0.0000 
      6 C1         24.5000    2.3990   20.4240 C.ar      1 JE2701      0.0000 
      7 C8         24.8990    0.3740   18.9300 C.3       1 JE2701      0.0000 
      8 C9         21.8480    0.2670   18.6660 C.2       1 JE2701      0.0000 
      9 O2         25.8560    2.4460   20.5620 O.3       1 JE2701      0.0000 
     10 O10        22.0690   -0.9900   18.9430 O.2       1 JE2701      0.0000 
     11 C22        20.3600   -1.7850   14.9420 C.2       1 JE2701      0.0000 
     12 N11        20.9700    0.6590   17.7570 N.am      1 JE2701      0.0000 
     13 O23        19.2990   -1.8640   14.2880 O.2       1 JE2701      0.0000 
     14 C20        20.8680   -0.5040   15.6030 C.3       1 JE2701      0.0000 
     15 C14        18.1480    0.6370   18.2120 C.ar      1 JE2701      0.0000 
     16 C13        18.6860    0.1940   16.8740 C.3       1 JE2701      0.0000 
     17 C17        17.3240    1.4600   20.8120 C.ar      1 JE2701      0.0000 
     18 C12        20.1730   -0.3620   16.9800 C.3       1 JE2701      0.0000 
     19 O21        20.5210    0.5820   14.7460 O.3       1 JE2701      0.0000 
     20 C15        18.0940    2.0320   18.5210 C.ar      1 JE2701      0.0000 
     21 C19        17.7970   -0.2950   19.2130 C.ar      1 JE2701      0.0000 
     22 C16        17.6770    2.4080   19.8380 C.ar      1 JE2701      0.0000 
     23 C18        17.3750    0.1040   20.4720 C.ar      1 JE2701      0.0000 
     24 C31        19.4740   -4.7460   15.4830 C.2       1 JE2701      0.0000 
     25 N24        21.1050   -2.9230   15.1300 N.am      1 JE2701      0.0000 
     26 O32        19.3600   -4.5020   16.7210 O.2       1 JE2701      0.0000 
     27 C30        20.6350   -4.2260   14.6100 C.3       1 JE2701      0.0000 
     28 C27        21.8980   -5.1370   14.5960 C.3       1 JE2701      0.0000 
     29 C25        22.3900   -2.9470   15.9220 C.3       1 JE2701      0.0000 
     30 C28        22.7450   -4.7600   13.3790 C.3       1 JE2701      0.0000 
     31 C29        21.5620   -6.6380   14.5150 C.3       1 JE2701      0.0000 
     32 S26        22.7750   -4.7050   16.1440 S.3       1 JE2701      0.0000 
     33 N33        18.5680   -5.5610   14.7910 N.am      1 JE2701      0.0000 
     34 C34        17.4260   -6.2060   15.4830 C.3       1 JE2701      0.0000 
     35 C35        16.1360   -5.9810   14.6820 C.ar      1 JE2701      0.0000 
     36 C36        15.4800   -4.7310   14.6670 C.ar      1 JE2701      0.0000 
     37 C37        14.2670   -4.6240   13.9790 C.ar      1 JE2701      0.0000 
     38 C38        13.7360   -5.7470   13.2960 C.ar      1 JE2701      0.0000 
     39 C39        14.3650   -6.9590   13.3090 C.ar      1 JE2701      0.0000 
     40 C40        15.5770   -7.0730   14.0280 C.ar      1 JE2701      0.0000 
     41 C41        16.0130   -3.5750   15.4200 C.3       1 JE2701      0.0000 
     42 H          24.1372    4.1966   21.4816 H         1 JE2701      0.0000 
     43 H          21.7340    4.1988   21.0617 H         1 JE2701      0.0000 
     44 H          20.7138    2.3086   19.9480 H         1 JE2701      0.0000 
     45 H          20.7704    1.6353   17.5193 H         1 JE2701      0.0000 
     46 H          21.9130   -0.5916   15.7531 H         1 JE2701      0.0000 
     47 H          18.7005    1.0275   16.1716 H         1 JE2701      0.0000 
     48 H          18.0702   -0.6036   16.4582 H         1 JE2701      0.0000 
     49 H          17.0391    1.7540   21.7395 H         1 JE2701      0.0000 
     50 H          20.1676   -1.2773   17.4882 H         1 JE2701      0.0000 
     51 H          18.3389    2.7219   17.8413 H         1 JE2701      0.0000 
     52 H          17.8605   -1.3079   18.9887 H         1 JE2701      0.0000 
     53 H          17.6382    3.4167   20.0690 H         1 JE2701      0.0000 
     54 H          17.0942   -0.6032   21.1700 H         1 JE2701      0.0000 
     55 H          20.3025   -4.1012   13.5978 H         1 JE2701      0.0000 
     56 H          22.2951   -2.6150   16.9072 H         1 JE2701      0.0000 
     57 H          23.2250   -2.6018   15.3989 H         1 JE2701      0.0000 
     58 H          18.6662   -5.7358   13.7893 H         1 JE2701      0.0000 
     59 H          17.2928   -5.7824   16.4774 H         1 JE2701      0.0000 
     60 H          17.5915   -7.2784   15.5760 H         1 JE2701      0.0000 
     61 H          13.7559   -3.7379   13.9636 H         1 JE2701      0.0000 
     62 H          12.8426   -5.6217   12.7777 H         1 JE2701      0.0000 
     63 H          13.9912   -7.7689   12.8233 H         1 JE2701      0.0000 
     64 H          16.0497   -7.9923   14.0620 H         1 JE2701      0.0000 
     65 H          25.8517    0.5450   19.1812 H         1 JE2701      0.0000 
     66 H          24.6946   -0.5718   19.1824 H         1 JE2701      0.0000 
     67 H          24.8442    0.4296   17.9331 H         1 JE2701      0.0000 
     68 H          23.0355   -3.8036   13.4106 H         1 JE2701      0.0000 
     69 H          23.5737   -5.3161   13.3166 H         1 JE2701      0.0000 
     70 H          22.2426   -4.8857   12.5235 H         1 JE2701      0.0000 
     71 H          22.3867   -7.2035   14.5116 H         1 JE2701      0.0000 
     72 H          21.0052   -6.9363   15.2902 H         1 JE2701      0.0000 
     73 H          21.0510   -6.8599   13.6845 H         1 JE2701      0.0000 
     74 H          16.9344   -3.3288   15.1193 H         1 JE2701      0.0000 
     75 H          15.4409   -2.7626   15.3072 H         1 JE2701      0.0000 
     76 H          16.0652   -3.7628   16.4008 H         1 JE2701      0.0000 
     77 H          26.0422    3.3317   20.9874 H         1 JE2701      0.0000 
     78 H          21.2156    0.5760   14.0266 H         1 JE2701      0.0000 
@<TRIPOS>BOND
     1    2    1 ar   
     2    6    1 ar   
     3   42    1 1    
     4    3    2 ar   
     5   43    2 1    
     6    4    3 ar   
     7   44    3 1    
     8    5    4 ar   
     9    8    4 1    
    10    6    5 ar   
    11    7    5 1    
    12    9    6 1    
    13   65    7 1    
    14   66    7 1    
    15   67    7 1    
    16   10    8 2    
    17   12    8 am   
    18   77    9 1    
    19   13   11 2    
    20   14   11 1    
    21   25   11 am   
    22   18   12 1    
    23   45   12 1    
    24   18   14 1    
    25   19   14 1    
    26   46   14 1    
    27   16   15 1    
    28   20   15 ar   
    29   21   15 ar   
    30   18   16 1    
    31   47   16 1    
    32   48   16 1    
    33   22   17 ar   
    34   23   17 ar   
    35   49   17 1    
    36   50   18 1    
    37   78   19 1    
    38   22   20 ar   
    39   51   20 1    
    40   23   21 ar   
    41   52   21 1    
    42   53   22 1    
    43   54   23 1    
    44   26   24 2    
    45   27   24 1    
    46   33   24 am   
    47   27   25 1    
    48   29   25 1    
    49   28   27 1    
    50   55   27 1    
    51   30   28 1    
    52   31   28 1    
    53   32   28 1    
    54   32   29 1    
    55   56   29 1    
    56   57   29 1    
    57   68   30 1    
    58   69   30 1    
    59   70   30 1    
    60   71   31 1    
    61   72   31 1    
    62   73   31 1    
    63   34   33 1    
    64   58   33 1    
    65   35   34 1    
    66   59   34 1    
    67   60   34 1    
    68   36   35 ar   
    69   40   35 ar   
    70   37   36 ar   
    71   41   36 1    
    72   38   37 ar   
    73   61   37 1    
    74   39   38 ar   
    75   62   38 1    
    76   40   39 ar   
    77   63   39 1    
    78   64   40 1    
    79   74   41 1    
    80   75   41 1    
    81   76   41 1    
@<TRIPOS>SUBSTRUCTURE
     1 JE2701      1 GROUP   
@<TRIPOS>SET

