#    Name: 2z3d_LEU_ALA_ALA_ACE_ECQ_OCQ_1_INTS_M
#    Modification time : Tue Mar 25 09:53:53 2014

@<TRIPOS>MOLECULE
2z3d_LEU_ALA_ALA_ACE_ECQ_OCQ_1_INTS_M
   68     0     6     0     0
SMALL
NO_CHARGES


@<TRIPOS>ATOM
      1 CA        -27.8535  -36.0215    8.1325 C.3       2 GLC5        0.0000 
      2 CA        -26.4260  -34.5840    8.3430 C.3       6 GLL5        0.0000 
      3 CA        -29.2810  -37.4590    7.9220 C.3       4 GLP5        0.0000 
      4 CA        -28.2585  -34.5095    9.2080 C.3       2 GLC5        0.0000 
      5 CA        -30.0910  -34.4350   10.0730 C.3       4 GLP5        0.0000 
      6 N         -21.5090  -37.9440    4.7340 N.am      1 SEC2        0.0000 
      7 N         -22.7860  -38.4990    4.2480 N.am      5 SEL2        0.0000 
      8 N         -20.2320  -37.3890    5.2200 N.am      3 SEP2        0.0000 
      9 CA        -22.7475  -40.0205    5.9940 C.3       2 GLC5        0.0000 
     10 CA        -23.9240  -40.9710    4.7480 C.3       6 GLL5        0.0000 
     11 CA        -21.5710  -39.0700    7.2400 C.3       4 GLP5        0.0000 
     12 CA        -24.6830  -44.0540    5.6245 C.3       2 GLC5        0.0000 
     13 CA        -24.8800  -42.0400    5.2170 C.3       6 GLL5        0.0000 
     14 CA        -24.4860  -46.0680    6.0320 C.3       4 GLP5        0.0000 
     15 CA        -26.2965  -42.2970    6.4280 C.3       2 GLC5        0.0000 
     16 CA        -27.7130  -42.5540    7.6390 C.3       4 GLP5        0.0000 
     17 CA        -23.3885  -31.0930    3.1790 C.3       2 GLC5        0.0000 
     18 CA        -24.4810  -32.2500    2.0510 C.3       6 GLL5        0.0000 
     19 CA        -22.2960  -29.9360    4.3070 C.3       4 GLP5        0.0000 
     20 N         -17.5555  -39.8135    3.1825 N.am      1 SEC2        0.0000 
     21 N         -18.1500  -38.8840    2.3140 N.am      5 SEL2        0.0000 
     22 N         -16.9610  -40.7430    4.0510 N.am      3 SEP2        0.0000 
     23 N         -20.3185  -44.2515   -0.4700 N.am      1 SEC2        0.0000 
     24 N         -20.5500  -44.0860    0.8190 N.am      5 SEL2        0.0000 
     25 N         -20.0870  -44.4170   -1.7590 N.am      3 SEP2        0.0000 
     26 N         -19.2125  -44.6495    1.5610 N.am      1 SEC2        0.0000 
     27 N         -17.8750  -45.2130    2.3030 N.am      3 SEP2        0.0000 
     28 CA        -23.2565  -45.2715    4.3555 C.3       2 GLC5        0.0000 
     29 CA        -22.0270  -44.4750    2.6790 C.3       6 GLL5        0.0000 
     30 N         -17.7265  -39.9590    3.3010 N.am      1 SEC2        0.0000 
     31 N         -18.4920  -39.1750    2.5510 N.am      5 SEL2        0.0000 
     32 CA        -20.2985  -41.8695   -0.5145 C.3       2 GLC5        0.0000 
     33 CA        -20.1240  -41.5260    1.6750 C.3       6 GLL5        0.0000 
     34 CA        -20.4730  -42.2130   -2.7040 C.3       4 GLP5        0.0000 
     35 N         -20.2410  -44.3720   -0.3180 N.am      1 SEC2        0.0000 
     36 N         -20.3950  -44.3270    1.1230 N.am      5 SEL2        0.0000 
     37 N         -19.1350  -44.7700    1.7130 N.am      1 SEC2        0.0000 
     38 N         -23.1130  -45.1585    4.7305 N.am      1 SEC2        0.0000 
     39 N         -22.9800  -44.8160    3.5820 N.am      5 SEL2        0.0000 
     40 N         -23.2460  -45.5010    5.8790 N.am      3 SEP2        0.0000 
     41 CA        -22.8687  -33.4073    6.0610 C.3       2 GLC5        0.0000 
     42 CA        -24.3630  -34.2770    5.3320 C.3       6 GLL5        0.0000 
     43 CA        -20.9070  -32.8990    6.3000 C.3       4 GLP5        0.0000 
     44 CA        -23.7777  -32.2242    6.2245 C.3       2 GLC5        0.0000 
     45 CA        -22.7250  -30.5330    6.6270 C.3       4 GLP5        0.0000 
     46 CA        -23.7395  -35.2712    9.0620 C.3       2 GLC5        0.0000 
     47 CA        -24.2910  -33.3050    8.5370 C.3       6 GLL5        0.0000 
     48 CA        -22.7670  -36.7940   10.0270 C.3       4 GLP5        0.0000 
     49 CA        -22.9610  -33.6653    8.8530 C.3       2 GLC5        0.0000 
     50 CA        -21.2100  -33.5820    9.6090 C.3       4 GLP5        0.0000 
     51 CA        -23.7185  -32.1407    7.3620 C.3       2 GLC5        0.0000 
     52 CA        -25.3775  -33.9921    9.9250 C.3       2 GLC5        0.0000 
     53 CA        -25.1860  -33.8180   11.6300 C.3       4 GLP5        0.0000 
     54 CA        -20.0230  -38.0033    2.4272 C.3       2 GLC5        0.0000 
     55 CA        -20.3310  -39.7180    1.6780 C.3       6 GLL5        0.0000 
     56 CA        -19.6330  -36.1290    3.2510 C.3       4 GLP5        0.0000 
     57 CA        -18.7260  -39.3532   -1.7470 C.3       2 GLC5        0.0000 
     58 CA        -20.2250  -38.5350   -0.4040 C.3       6 GLL5        0.0000 
     59 CA        -17.1950  -40.2310   -3.0210 C.3       4 GLP5        0.0000 
     60 CA        -19.9450  -37.3022    1.3890 C.3       2 GLC5        0.0000 
     61 CA        -18.2955  -41.7105    2.8973 C.3       2 GLC5        0.0000 
     62 CA        -16.5010  -42.0420    4.0830 C.3       4 GLP5        0.0000 
     63 CA        -21.2430  -44.2112    3.0870 C.3       2 GLC5        0.0000 
     64 CA        -20.8730  -43.6210    2.1390 C.3       6 GLL5        0.0000 
     65 CA        -20.4810  -44.1170    3.8510 C.3       4 GLP5        0.0000 
     66 CA        -20.6065  -40.5652   -1.3701 C.3       2 GLC5        0.0000 
     67 CA        -21.2490  -39.4160    0.3350 C.3       6 GLL5        0.0000 
     68 CA        -20.5969  -42.9570    2.8758 C.3       2 GLC5        0.0000 
@<TRIPOS>BOND
@<TRIPOS>SUBSTRUCTURE
     1 SEC2        6 GROUP        1 X    SEC  0     ROOT SEC X 2
     2 GLC5        1 GROUP        1 X    GLC  0     **** GLC X 6
     3 SEP2        8 GROUP        1 Y    SEP  0     ROOT SEP Y 9
     4 GLP5        3 GROUP        1 Y    GLP  0     **** GLP Y 13
     5 SEL2        7 GROUP        1 Z    SEL  0     ROOT SEL Z 16
     6 GLL5        2 GROUP        1 Z    GLL  0     **** GLL Z 20
@<TRIPOS>SET

