#    Name: 2z3d_LEU_ALA_ALA_ACE_ECQ_OCQ_1_ligand
#    Modification time : Tue Mar 25 09:53:53 2014

@<TRIPOS>MOLECULE
2z3d_LEU_ALA_ALA_ACE_ECQ_OCQ_1_ligand
   70   108     6     0     0
SMALL
NO_CHARGES


@<TRIPOS>ATOM
      1 N         -24.0990  -33.5570    4.0530 N.am      1 LEU902      0.0000
      2 CA        -24.3630  -34.2770    5.3320 C.3       1 LEU902      0.0000
      3 C         -24.8350  -35.7150    5.1020 C.2       1 LEU902      0.0000
      4 O         -25.5160  -36.3260    5.9390 O.2       1 LEU902      0.0000
      5 CB        -25.2980  -33.5540    6.3120 C.3       1 LEU902      0.0000
      6 CG        -25.1330  -34.1920    7.6570 C.3       1 LEU902      0.0000
      7 CD1       -24.2910  -33.3050    8.5370 C.3       1 LEU902      0.0000
      8 CD2       -26.4260  -34.5840    8.3430 C.3       1 LEU902      0.0000
      9 HNCA      -23.1390  -33.7777    3.6379 H         1 LEU902      0.0000
     10 HA        -23.3728  -34.3771    5.8733 H         1 LEU902      0.0000
     11 HB2       -26.3146  -33.6606    5.9675 H         1 LEU902      0.0000
     12 HB3       -25.0217  -32.5121    6.3537 H         1 LEU902      0.0000
     13 HG        -24.5406  -35.1307    7.5076 H         1 LEU902      0.0000
     14 HD11      -23.3833  -33.1492    8.1473 H         1 LEU902      0.0000
     15 HD12      -24.7110  -32.4073    8.6699 H         1 LEU902      0.0000
     16 HD13      -24.1560  -33.7027    9.4446 H         1 LEU902      0.0000
     17 HD21      -26.2603  -35.0081    9.2333 H         1 LEU902      0.0000
     18 HD22      -27.0174  -33.7932    8.5006 H         1 LEU902      0.0000
     19 HD23      -26.9510  -35.2389    7.7995 H         1 LEU902      0.0000
     20 N         -24.4310  -36.2470    3.9580 N.am      2 ALA903      0.0000
     21 CA        -24.8630  -37.5400    3.5090 C.3       2 ALA903      0.0000
     22 C         -23.9980  -38.6380    4.1250 C.2       2 ALA903      0.0000
     23 O         -22.7860  -38.4990    4.2480 O.2       2 ALA903      0.0000
     24 CB        -24.7900  -37.5860    1.9760 C.3       2 ALA903      0.0000
     25 H         -23.7671  -35.7383    3.3202 H         2 ALA903      0.0000
     26 HA        -25.8930  -37.7198    3.7934 H         2 ALA903      0.0000
     27 HB1       -23.8600  -37.4289    1.6436 H         2 ALA903      0.0000
     28 HB2       -25.0841  -38.4716    1.6166 H         2 ALA903      0.0000
     29 HB3       -25.3729  -36.8908    1.5554 H         2 ALA903      0.0000
     30 N         -24.6390  -39.7360    4.5010 N.am      3 ALA904      0.0000
     31 CA        -23.9240  -40.9710    4.7480 C.3       3 ALA904      0.0000
     32 C         -23.2950  -41.3780    3.4220 C.2       3 ALA904      0.0000
     33 O         -23.9580  -41.2260    2.3800 O.2       3 ALA904      0.0000
     34 CB        -24.8800  -42.0400    5.2170 C.3       3 ALA904      0.0000
     35 H         -25.6682  -39.7658    4.6351 H         3 ALA904      0.0000
     36 HA        -23.1507  -40.8308    5.4636 H         3 ALA904      0.0000
     37 HB1       -24.4114  -42.9054    5.3945 H         3 ALA904      0.0000
     38 HB2       -25.3432  -41.7785    6.0638 H         3 ALA904      0.0000
     39 HB3       -25.5913  -42.2255    4.5391 H         3 ALA904      0.0000
     40 C         -24.9280  -32.7100    3.4320 C.2       4 ACE901      0.0000
     41 O         -25.9810  -32.2750    3.9290 O.2       4 ACE901      0.0000
     42 CH3       -24.4810  -32.2500    2.0510 C.3       4 ACE901      0.0000
     43 H         -23.6021  -31.7742    2.0845 H         4 ACE901      0.0000
     44 H         -24.3745  -33.0185    1.4200 H         4 ACE901      0.0000
     45 H         -25.1394  -31.6207    1.6380 H         4 ACE901      0.0000
     46 OAD       -18.1500  -38.8840    2.3140 O.2       5 ECQ905      0.0000
     47 CD2       -19.0840  -38.8920    1.5200 C.2       5 ECQ905      0.0000
     48 CG        -20.3310  -39.7180    1.6780 C.3       5 ECQ905      0.0000
     49 CD1       -21.1970  -39.3030    0.4660 C.3       5 ECQ905      0.0000
     50 CAE       -20.2890  -38.4160   -0.5420 C.3       5 ECQ905      0.0000
     51 NAH       -19.1570  -38.1210    0.4350 N.am      5 ECQ905      0.0000
     52 CB        -20.0560  -41.2320    1.7480 C.3       5 ECQ905      0.0000
     53 CA        -21.2620  -42.1360    2.0920 C.3       5 ECQ905      0.0000
     54 N         -21.9020  -41.8030    3.3740 N.4       5 ECQ905      0.0000
     55 C         -20.8730  -43.6210    2.1390 C.3       5 ECQ905      0.0000
     56 O         -20.5500  -44.0860    0.8190 O.3       5 ECQ905      0.0000
     57 CMK       -22.0270  -44.4750    2.6790 C.3       5 ECQ905      0.0000
     58 OAD       -18.4920  -39.1750    2.5510 O.2       6 OCQ905      0.0000
     59 CD2       -19.2620  -39.1590    1.6010 C.2       6 OCQ905      0.0000
     60 NAH       -19.1290  -38.3280    0.5580 N.am      6 OCQ905      0.0000
     61 CAE       -20.2250  -38.5350   -0.4040 C.3       6 OCQ905      0.0000
     62 CD1       -21.2490  -39.4160    0.3350 C.3       6 OCQ905      0.0000
     63 CG        -20.4950  -40.0370    1.5290 C.3       6 OCQ905      0.0000
     64 CB        -20.1240  -41.5260    1.6750 C.3       6 OCQ905      0.0000
     65 CA        -21.4090  -42.2940    2.0870 C.3       6 OCQ905      0.0000
     66 N         -22.0180  -41.8630    3.3860 N.4       6 OCQ905      0.0000
     67 C         -21.1980  -43.8190    2.2190 C.2       6 OCQ905      0.0000
     68 O         -20.3950  -44.3270    1.1230 O.2       6 OCQ905      0.0000
     69 CMK       -22.5600  -44.5630    2.2370 C.3       6 OCQ905      0.0000
     70 OMP       -22.9800  -44.8160    3.5820 O.3       6 OCQ905      0.0000
@<TRIPOS>BOND
     1    2    1 1
     2    9    1 1
     3    3    2 1
     4    5    2 1
     5   10    2 1
     6    4    3 2
     7    6    5 1
     8   11    5 1
     9   12    5 1
    10    7    6 1
    11    8    6 1
    12   13    6 1
    13   14    7 1
    14   15    7 1
    15   16    7 1
    16   17    8 1
    17   18    8 1
    18   19    8 1
    19   21   20 1
    20   25   20 1
    21   22   21 1
    22   24   21 1
    23   26   21 1
    24   23   22 2
    25   27   24 1
    26   28   24 1
    27   29   24 1
    28   31   30 1
    29   35   30 1
    30   32   31 1
    31   34   31 1
    32   36   31 1
    33   33   32 2
    34   37   34 1
    35   38   34 1
    36   39   34 1
    37   41   40 2
    38   42   40 1
    39   43   42 1
    40   44   42 1
    41   45   42 1
    42   47   46 2
    43   48   47 1
    44   51   47 am
    45   49   48 1
    46   52   48 1
    47   50   49 1
    48   51   50 1
    49   53   52 1
    50   54   53 1
    51   55   53 1
    52   56   55 1
    53   57   55 1
    54   59   58 2
    55   60   59 am
    56   63   59 1
    57   61   60 1
    58   62   61 1
    59   63   62 1
    60   64   63 1
    61   65   64 1
    62   66   65 1
    63   67   65 1
    64   68   67 2
    65   69   67 1
    66   70   69 1
    67   40    1 1 
    68   20    3 am
    69   30   22 am
    70   54   32 1 
    71   66   32 1 
    72   58   46 1 
    73   59   46 1 
    74   58   47 1 
    75   59   47 1 
    76   60   47 1 
    77   63   47 1 
    78   59   48 1 
    79   62   48 1 
    80   63   48 1 
    81   64   48 1 
    82   61   49 1 
    83   62   49 1 
    84   63   49 1 
    85   60   50 1 
    86   61   50 1 
    87   62   50 1 
    88   59   51 1 
    89   60   51 1 
    90   61   51 1 
    91   63   52 1 
    92   64   52 1 
    93   65   52 1 
    94   64   53 1 
    95   65   53 1 
    96   66   53 1 
    97   67   53 1 
    98   65   54 1 
    99   66   54 1 
   100   65   55 1 
   101   67   55 1 
   102   68   55 1 
   103   69   55 1 
   104   67   56 1 
   105   68   56 1 
   106   67   57 1 
   107   69   57 1 
   108   70   57 1 
@<TRIPOS>SUBSTRUCTURE
     1 LEU902      1 RESIDUE
     2 ALA903     20 RESIDUE
     3 ALA904     30 RESIDUE
     4 ACE901     40 GROUP
     5 ECQ905     46 GROUP
     6 OCQ905     58 GROUP
@<TRIPOS>SET

