#    Name: 3cds_GRR_1_INTS_M
#    Modification time : Mon Mar 24 20:58:26 2014

@<TRIPOS>MOLECULE
3cds_GRR_1_INTS_M
   58     0     6     0     0
SMALL
NO_CHARGES


@<TRIPOS>ATOM
      1 CA         23.4435   70.2960   17.4005 C.3       2 GLC5        0.0000 
      2 CA         22.3980   68.7950   17.3160 C.3       6 GLL5        0.0000 
      3 CA         24.4890   71.7970   17.4850 C.3       4 GLP5        0.0000 
      4 CA         24.3855   69.2010   17.4125 C.3       2 GLC5        0.0000 
      5 CA         23.1100   67.6720   18.0730 C.3       6 GLL5        0.0000 
      6 CA         25.6610   70.7300   16.7520 C.3       4 GLP5        0.0000 
      7 CA         22.8000   66.7355   15.4995 C.3       2 GLC5        0.0000 
      8 CA         22.6310   65.3320   17.2350 C.3       6 GLL5        0.0000 
      9 CA         22.9690   68.1390   13.7640 C.3       4 GLP5        0.0000 
     10 CA         20.6575   67.1830   20.6790 C.3       2 GLC5        0.0000 
     11 CA         21.1840   66.2620   18.9160 C.3       6 GLL5        0.0000 
     12 CA         20.1310   68.1040   22.4420 C.3       4 GLP5        0.0000 
     13 CA         18.8890   63.6635   16.3765 C.3       2 GLC5        0.0000 
     14 CA         18.7410   63.0050   18.5130 C.3       6 GLL5        0.0000 
     15 CA         19.0370   64.3220   14.2400 C.3       4 GLP5        0.0000 
     16 N          18.5930   61.9910   21.5415 N.am      1 SEC2        0.0000 
     17 N          19.7210   62.7680   20.6750 N.am      5 SEL2        0.0000 
     18 N          17.4650   61.2140   22.4080 N.am      3 SEP2        0.0000 
     19 N          20.9000   62.2055   20.2595 N.am      1 SEC2        0.0000 
     20 N          22.0790   61.6430   19.8440 N.am      3 SEP2        0.0000 
     21 N          19.9185   61.6380   21.6535 N.am      1 SEC2        0.0000 
     22 N          20.1160   60.5080   22.6320 N.am      3 SEP2        0.0000 
     23 N          17.5125   62.2240   21.4885 N.am      1 SEC2        0.0000 
     24 N          17.5600   63.2340   20.5690 N.am      5 SEL2        0.0000 
     25 CA         17.7850   60.8815   19.9555 C.3       2 GLC5        0.0000 
     26 CA         17.9260   61.8040   18.0290 C.3       6 GLL5        0.0000 
     27 CA         17.6440   59.9590   21.8820 C.3       4 GLP5        0.0000 
     28 CA         18.3550   59.7905   17.9155 C.3       2 GLC5        0.0000 
     29 CA         18.7840   57.7770   17.8020 C.3       4 GLP5        0.0000 
     30 CA         22.8615   68.1863   15.7293 C.3       2 GLC5        0.0000 
     31 CA         20.9640   68.6453   17.8218 C.3       2 GLC5        0.0000 
     32 CA         19.1740   69.0570   17.9490 C.3       4 GLP5        0.0000 
     33 CA         23.3320   65.0517   19.2135 C.3       2 GLC5        0.0000 
     34 CA         22.2790   66.3870   18.0690 C.3       6 GLL5        0.0000 
     35 CA         24.2090   64.2440   20.7750 C.3       4 GLP5        0.0000 
     36 CA         20.1920   64.2053   15.9593 C.3       2 GLC5        0.0000 
     37 CA         21.8930   64.1540   17.2530 C.3       6 GLL5        0.0000 
     38 CA         22.7780   64.1662   19.2267 C.3       2 GLC5        0.0000 
     39 CA         22.5125   64.9580   19.8498 C.3       2 GLC5        0.0000 
     40 CA         20.4480   65.0820   18.9330 C.3       6 GLL5        0.0000 
     41 CA         20.1319   67.3801   18.3309 C.3       2 GLC5        0.0000 
     42 CA         16.7422   63.4057   18.4215 C.3       2 GLC5        0.0000 
     43 CA         15.1510   64.4070   18.5720 C.3       4 GLP5        0.0000 
     44 CA         18.2082   63.0378   15.1880 C.3       2 GLC5        0.0000 
     45 CA         17.9590   61.6530   16.5060 C.3       6 GLL5        0.0000 
     46 CA         16.2653   63.0802   17.3540 C.3       2 GLC5        0.0000 
     47 CA         16.1371   60.1991   17.0119 C.3       2 GLC5        0.0000 
     48 CA         16.8000   61.8540   15.7660 C.3       6 GLL5        0.0000 
     49 CA         14.9030   58.6070   17.5070 C.3       4 GLP5        0.0000 
     50 CA         18.2212   62.9120   14.1523 C.3       2 GLC5        0.0000 
     51 CA         16.8170   61.6860   14.3850 C.3       6 GLL5        0.0000 
     52 CA         19.9595   60.5160   13.0965 C.3       2 GLC5        0.0000 
     53 CA         17.9940   61.3180   13.7440 C.3       6 GLL5        0.0000 
     54 CA         21.3450   59.8140   12.0790 C.3       4 GLP5        0.0000 
     55 CA         19.0910   62.7620   14.7073 C.3       2 GLC5        0.0000 
     56 CA         19.1540   61.1180   14.4840 C.3       6 GLL5        0.0000 
     57 CA         17.8364   59.4120   13.6671 C.3       2 GLC5        0.0000 
     58 CA         17.3930   57.5140   13.0600 C.3       4 GLP5        0.0000 
@<TRIPOS>BOND
@<TRIPOS>SUBSTRUCTURE
     1 SEC2       16 GROUP        1 X    SEC  0     ROOT SEC X 2
     2 GLC5        1 GROUP        1 X    GLC  0     **** GLC X 6
     3 SEP2       18 GROUP        1 Y    SEP  0     ROOT SEP Y 9
     4 GLP5        3 GROUP        1 Y    GLP  0     **** GLP Y 13
     5 SEL2       17 GROUP        1 Z    SEL  0     ROOT SEL Z 16
     6 GLL5        2 GROUP        1 Z    GLL  0     **** GLL Z 20
@<TRIPOS>SET

