#    Name: 3cds_GRR_1_ligand
#    Modification time : Mon Mar 24 20:58:26 2014

@<TRIPOS>MOLECULE
3cds_GRR_1_ligand
   37    38     1     0     0
SMALL
NO_CHARGES


@<TRIPOS>ATOM
      1 CAA        22.3980   68.7950   17.3160 C.3       1 GRR1        0.0000 
      2 CAM        23.1100   67.6720   18.0730 C.3       1 GRR1        0.0000 
      3 CAQ        22.2790   66.3870   18.0690 C.ar      1 GRR1        0.0000 
      4 CAJ        22.6310   65.3320   17.2350 C.ar      1 GRR1        0.0000 
      5 CAL        21.8930   64.1540   17.2530 C.ar      1 GRR1        0.0000 
      6 CAI        21.1840   66.2620   18.9160 C.ar      1 GRR1        0.0000 
      7 CAK        20.4480   65.0820   18.9330 C.ar      1 GRR1        0.0000 
      8 CAS        20.8010   64.0230   18.1040 C.ar      1 GRR1        0.0000 
      9 OAO        20.1150   62.8470   18.1250 O.3       1 GRR1        0.0000 
     10 CAT        18.7410   63.0050   18.5130 C.3       1 GRR1        0.0000 
     11 CAP        18.6690   63.0020   20.0410 C.2       1 GRR1        0.0000 
     12 OAC        19.7210   62.7680   20.6750 O.co2     1 GRR1        0.0000 
     13 OAB        17.5600   63.2340   20.5690 O.co2     1 GRR1        0.0000 
     14 CAN        17.9260   61.8040   18.0290 C.3       1 GRR1        0.0000 
     15 CAR        17.9590   61.6530   16.5060 C.ar      1 GRR1        0.0000 
     16 CAG        16.8000   61.8540   15.7660 C.ar      1 GRR1        0.0000 
     17 CAE        16.8170   61.6860   14.3850 C.ar      1 GRR1        0.0000 
     18 CAD        17.9940   61.3180   13.7440 C.ar      1 GRR1        0.0000 
     19 CAF        19.1540   61.1180   14.4840 C.ar      1 GRR1        0.0000 
     20 CAH        19.1360   61.2860   15.8650 C.ar      1 GRR1        0.0000 
     21 H          23.2802   67.9856   19.1030 H         1 GRR1        0.0000 
     22 H          24.0736   67.4771   17.6023 H         1 GRR1        0.0000 
     23 H          23.4384   65.4230   16.6039 H         1 GRR1        0.0000 
     24 H          22.1562   63.3742   16.6330 H         1 GRR1        0.0000 
     25 H          20.9175   67.0425   19.5308 H         1 GRR1        0.0000 
     26 H          19.6375   64.9923   19.5628 H         1 GRR1        0.0000 
     27 H          18.3080   63.8918   18.1498 H         1 GRR1        0.0000 
     28 H          16.8872   61.9215   18.3543 H         1 GRR1        0.0000 
     29 H          18.3240   60.8929   18.4874 H         1 GRR1        0.0000 
     30 H          15.9283   62.1273   16.2391 H         1 GRR1        0.0000 
     31 H          15.9583   61.8343   13.8390 H         1 GRR1        0.0000 
     32 H          18.0072   61.1937   12.7236 H         1 GRR1        0.0000 
     33 H          20.0255   60.8459   14.0110 H         1 GRR1        0.0000 
     34 H          19.9950   61.1382   16.4112 H         1 GRR1        0.0000 
     35 H          22.9339   69.6393   17.3137 H         1 GRR1        0.0000 
     36 H          22.2311   68.5512   16.3606 H         1 GRR1        0.0000 
     37 H          21.5105   69.0123   17.7224 H         1 GRR1        0.0000 
@<TRIPOS>BOND
     1    2    1 1    
     2   35    1 1    
     3   36    1 1    
     4   37    1 1    
     5    3    2 1    
     6   21    2 1    
     7   22    2 1    
     8    4    3 ar   
     9    6    3 ar   
    10    5    4 ar   
    11   23    4 1    
    12    8    5 ar   
    13   24    5 1    
    14    7    6 ar   
    15   25    6 1    
    16    8    7 ar   
    17   26    7 1    
    18    9    8 1    
    19   10    9 1    
    20   11   10 1    
    21   14   10 1    
    22   27   10 1    
    23   12   11 ar   
    24   13   11 ar   
    25   15   14 1    
    26   28   14 1    
    27   29   14 1    
    28   16   15 ar   
    29   20   15 ar   
    30   17   16 ar   
    31   30   16 1    
    32   18   17 ar   
    33   31   17 1    
    34   19   18 ar   
    35   32   18 1    
    36   20   19 ar   
    37   33   19 1    
    38   34   20 1    
@<TRIPOS>SUBSTRUCTURE
     1 GRR1        1 GROUP   
@<TRIPOS>SET

