#    Name: 2giu_FBR_1_INTS_M
#    Modification time : Tue Mar 25 14:35:35 2014

@<TRIPOS>MOLECULE
2giu_FBR_1_INTS_M
   60     0     6     0     0
SMALL
NO_CHARGES


@<TRIPOS>ATOM
      1 CA         24.2945    7.7475  117.4700 C.3       2 GLC5        0.0000 
      2 CA         22.4450    8.0850  116.4500 C.3       6 GLL5        0.0000 
      3 CA         26.1440    7.4100  118.4900 C.3       4 GLP5        0.0000 
      4 CA         19.7820    9.8505  117.3305 C.3       2 GLC5        0.0000 
      5 CA         20.9070    8.1950  116.5030 C.3       6 GLL5        0.0000 
      6 CA         18.6570   11.5060  118.1580 C.3       4 GLP5        0.0000 
      7 CA         21.1540    8.3705  118.7105 C.3       2 GLC5        0.0000 
      8 CA         21.4010    8.5460  120.9180 C.3       4 GLP5        0.0000 
      9 CA         18.7055    6.7820  111.4735 C.3       2 GLC5        0.0000 
     10 CA         20.4090    7.1960  112.5220 C.3       6 GLL5        0.0000 
     11 CA         17.0020    6.3680  110.4250 C.3       4 GLP5        0.0000 
     12 CA         19.8800    5.2705  113.3020 C.3       2 GLC5        0.0000 
     13 CA         19.3510    3.3450  114.0820 C.3       4 GLP5        0.0000 
     14 CA         21.4855    9.9140  111.4935 C.3       2 GLC5        0.0000 
     15 CA         23.3580    8.6780  111.5750 C.3       6 GLL5        0.0000 
     16 CA         19.6130   11.1500  111.4120 C.3       4 GLP5        0.0000 
     17 CA         24.5530   10.3835  109.4315 C.3       2 GLC5        0.0000 
     18 CA         24.5470    8.8530  110.8570 C.3       6 GLL5        0.0000 
     19 CA         24.5590   11.9140  108.0060 C.3       4 GLP5        0.0000 
     20 O          26.7555    8.8875  109.5995 O.2       1 ALC1        0.0000 
     21 O          26.9270    9.1090  110.8390 O.2       5 ALL1        0.0000 
     22 O          26.5840    8.6660  108.3600 O.2       3 ALP1        0.0000 
     23 CA         25.2950    8.2160  116.8120 C.3       2 GLC5        0.0000 
     24 CA         24.4460    9.0220  115.1340 C.3       6 GLL5        0.0000 
     25 CA         21.0735   11.4035  114.5705 C.3       2 GLC5        0.0000 
     26 CA         22.4130   10.4820  115.5210 C.3       6 GLL5        0.0000 
     27 CA         19.7340   12.3250  113.6200 C.3       4 GLP5        0.0000 
     28 CA         25.0120   11.4890  117.5655 C.3       2 GLC5        0.0000 
     29 CA         23.1370   11.2900  116.6040 C.3       6 GLL5        0.0000 
     30 CA         26.8870   11.6880  118.5270 C.3       4 GLP5        0.0000 
     31 CA         20.9815   12.3105  115.4695 C.3       2 GLC5        0.0000 
     32 CA         22.2290   12.2960  117.3190 C.3       6 GLL5        0.0000 
     33 CA         23.5105   13.4090  115.8925 C.3       2 GLC5        0.0000 
     34 CA         24.7920   14.5220  114.4660 C.3       4 GLP5        0.0000 
     35 CA         20.4430   11.9010  117.7385 C.3       2 GLC5        0.0000 
     36 CA         21.2380   13.5320  118.7885 C.3       2 GLC5        0.0000 
     37 CA         23.0160   12.8190  118.5400 C.3       6 GLL5        0.0000 
     38 CA         19.4600   14.2450  119.0370 C.3       4 GLP5        0.0000 
     39 CA         23.7375   13.7565  120.0205 C.3       2 GLC5        0.0000 
     40 CA         24.4590   14.6940  121.5010 C.3       4 GLP5        0.0000 
     41 CA         24.9515   12.2535  118.5335 C.3       2 GLC5        0.0000 
     42 CA         22.3640    6.3375  115.9098 C.3       2 GLC5        0.0000 
     43 CA         23.0520    4.5350  115.3430 C.3       4 GLP5        0.0000 
     44 CA         21.9485    6.7765  118.0042 C.3       2 GLC5        0.0000 
     45 CA         22.2210    5.4130  119.5320 C.3       4 GLP5        0.0000 
     46 CA         20.1945    9.3795  112.3180 C.3       2 GLC5        0.0000 
     47 CA         21.1430    8.0220  113.9260 C.3       6 GLL5        0.0000 
     48 CA         22.3990    6.4292  114.6527 C.3       2 GLC5        0.0000 
     49 CA         23.2908    7.1947  109.9955 C.3       2 GLC5        0.0000 
     50 CA         22.6290    5.6240  108.7750 C.3       4 GLP5        0.0000 
     51 CA         27.0870    7.4910  111.8173 C.3       2 GLC5        0.0000 
     52 CA         25.7740    9.0260  111.5250 C.3       6 GLL5        0.0000 
     53 CA         28.3810    5.9390  111.4100 C.3       4 GLP5        0.0000 
     54 CA         24.4581    7.0011  114.7941 C.3       2 GLC5        0.0000 
     55 CA         24.6150    8.9510  113.6350 C.3       6 GLL5        0.0000 
     56 CA         24.7670    5.0120  115.1540 C.3       4 GLP5        0.0000 
     57 CA         23.9510   12.1535  114.8837 C.3       2 GLC5        0.0000 
     58 CA         25.1270   13.4210  113.7050 C.3       4 GLP5        0.0000 
     59 CA         23.3502   11.1770  119.1889 C.3       2 GLC5        0.0000 
     60 CA         23.8510   10.0480  120.6270 C.3       4 GLP5        0.0000 
@<TRIPOS>BOND
@<TRIPOS>SUBSTRUCTURE
     1 ALC1       20 GROUP        1 X    ALC  0     ROOT ALC X 1
     2 GLC5        1 GROUP        1 X    GLC  0     **** GLC X 6
     3 ALP1       22 GROUP        1 Y    ALP  0     ROOT ALP Y 8
     4 GLP5        3 GROUP        1 Y    GLP  0     **** GLP Y 13
     5 ALL1       21 GROUP        1 Z    ALL  0     ROOT ALL Z 15
     6 GLL5        2 GROUP        1 Z    GLL  0     **** GLL Z 20
@<TRIPOS>SET

