#    Name: 2giu_FBR_1_ligand
#    Modification time : Tue Mar 25 14:35:35 2014

@<TRIPOS>MOLECULE
2giu_FBR_1_ligand
   39    41     1     0     0
SMALL
NO_CHARGES


@<TRIPOS>ATOM
      1 C1         22.9210    9.0370  115.3330 C.3       1 FBR600      0.0000 
      2 C2         22.4450    8.0850  116.4500 C.3       1 FBR600      0.0000 
      3 C3         20.9070    8.1950  116.5030 C.3       1 FBR600      0.0000 
      4 C4         20.3470    7.7940  115.1540 C.2       1 FBR600      0.0000 
      5 O5         19.2410    7.3180  115.1040 O.2       1 FBR600      0.0000 
      6 C6         21.1430    8.0220  113.9260 C.2       1 FBR600      0.0000 
      7 BR7        20.4090    7.1960  112.5220 Br        1 FBR600      0.0000 
      8 C8         22.3490    8.6250  113.9990 C.2       1 FBR600      0.0000 
      9 C9         23.4070    8.7370  112.9720 C.ar      1 FBR600      0.0000 
     10 C10        23.3580    8.6780  111.5750 C.ar      1 FBR600      0.0000 
     11 C11        24.5470    8.8530  110.8570 C.ar      1 FBR600      0.0000 
     12 C12        25.7740    9.0260  111.5250 C.ar      1 FBR600      0.0000 
     13 O13        26.9270    9.1090  110.8390 O.3       1 FBR600      0.0000 
     14 C14        25.8120    9.0600  112.9240 C.ar      1 FBR600      0.0000 
     15 C15        24.6150    8.9510  113.6350 C.ar      1 FBR600      0.0000 
     16 C16        24.4460    9.0220  115.1340 C.3       1 FBR600      0.0000 
     17 C17        22.4130   10.4820  115.5210 C.3       1 FBR600      0.0000 
     18 C18        23.1370   11.2900  116.6040 C.3       1 FBR600      0.0000 
     19 C19        22.2290   12.2960  117.3190 C.3       1 FBR600      0.0000 
     20 C20        23.0160   12.8190  118.5400 C.3       1 FBR600      0.0000 
     21 H          22.8571    8.3983  117.3848 H         1 FBR600      0.0000 
     22 H          22.7223    7.0823  116.2058 H         1 FBR600      0.0000 
     23 H          20.6371    9.2158  116.7266 H         1 FBR600      0.0000 
     24 H          20.5354    7.5320  117.2694 H         1 FBR600      0.0000 
     25 H          22.4807    8.5121  111.0928 H         1 FBR600      0.0000 
     26 H          24.5274    8.8557  109.8276 H         1 FBR600      0.0000 
     27 H          26.6987    9.1626  113.4137 H         1 FBR600      0.0000 
     28 H          24.8509    8.1551  115.5937 H         1 FBR600      0.0000 
     29 H          24.8575    9.9251  115.5106 H         1 FBR600      0.0000 
     30 H          21.3348   10.4464  115.7614 H         1 FBR600      0.0000 
     31 H          22.5036   11.0141  114.5565 H         1 FBR600      0.0000 
     32 H          23.9763   11.8299  116.1449 H         1 FBR600      0.0000 
     33 H          23.5559   10.5967  117.3460 H         1 FBR600      0.0000 
     34 H          21.3399   11.8052  117.6556 H         1 FBR600      0.0000 
     35 H          22.0085   13.1131  116.6644 H         1 FBR600      0.0000 
     36 H          23.2612   12.0804  119.1680 H         1 FBR600      0.0000 
     37 H          23.8675   13.2677  118.2686 H         1 FBR600      0.0000 
     38 H          22.4873   13.4863  119.0646 H         1 FBR600      0.0000 
     39 H          26.7409    8.6599  109.9651 H         1 FBR600      0.0000 
@<TRIPOS>BOND
     1    2    1 1    
     2    8    1 1    
     3   16    1 1    
     4   17    1 1    
     5    3    2 1    
     6   21    2 1    
     7   22    2 1    
     8    4    3 1    
     9   23    3 1    
    10   24    3 1    
    11    5    4 2    
    12    6    4 1    
    13    7    6 1    
    14    8    6 2    
    15    9    8 1    
    16   10    9 ar   
    17   15    9 ar   
    18   11   10 ar   
    19   25   10 1    
    20   12   11 ar   
    21   26   11 1    
    22   13   12 1    
    23   14   12 ar   
    24   39   13 1    
    25   15   14 ar   
    26   27   14 1    
    27   16   15 1    
    28   28   16 1    
    29   29   16 1    
    30   18   17 1    
    31   30   17 1    
    32   31   17 1    
    33   19   18 1    
    34   32   18 1    
    35   33   18 1    
    36   20   19 1    
    37   34   19 1    
    38   35   19 1    
    39   36   20 1    
    40   37   20 1    
    41   38   20 1    
@<TRIPOS>SUBSTRUCTURE
     1 FBR600      1 GROUP   
@<TRIPOS>SET

