#    Name: 1k7f_IAV_1_INTS_M
#    Modification time : Tue Mar 25 09:40:52 2014

@<TRIPOS>MOLECULE
1k7f_IAV_1_INTS_M
   53     0     9     0     0
SMALL
NO_CHARGES


@<TRIPOS>ATOM
      1 N          47.3920   25.6075   12.4945 N.am      2 SEC2        0.0000 
      2 N          48.3320   25.6200   11.3230 N.am      8 SEL2        0.0000 
      3 N          46.4520   25.5950   13.6660 N.am      5 SEP2        0.0000 
      4 CA         47.3955   27.1700   10.2065 C.3       3 GLC5        0.0000 
      5 CA         48.5470   28.0210   11.7010 C.3       9 GLL5        0.0000 
      6 CA         46.2440   26.3190    8.7120 C.3       6 GLP5        0.0000 
      7 N          46.6875   31.1520   11.4820 N.am      2 SEC2        0.0000 
      8 N          47.6160   30.1480   10.8490 N.am      8 SEL2        0.0000 
      9 N          45.7590   32.1560   12.1150 N.am      5 SEP2        0.0000 
     10 N          47.9840   31.5145   10.7695 N.am      2 SEC2        0.0000 
     11 N          48.3520   32.8810   10.6900 N.am      5 SEP2        0.0000 
     12 N          49.7105   30.3760    9.2540 N.am      2 SEC2        0.0000 
     13 N          49.1280   28.9440    9.4490 N.am      8 SEL2        0.0000 
     14 N          50.2930   31.8080    9.0590 N.am      5 SEP2        0.0000 
     15 CA         49.5240   31.0715   14.5200 C.3       3 GLC5        0.0000 
     16 CA         49.7270   29.7800   13.0410 C.3       9 GLL5        0.0000 
     17 CA         49.3210   32.3630   15.9990 C.3       6 GLP5        0.0000 
     18 CA         51.0610   31.3230   12.7350 C.3       3 GLC5        0.0000 
     19 CA         52.3950   32.8660   12.4290 C.3       6 GLP5        0.0000 
     20 CA         48.5540   29.7170   15.4655 C.3       3 GLC5        0.0000 
     21 CA         48.7540   27.8910   14.2020 C.3       9 GLL5        0.0000 
     22 CA         48.3540   31.5430   16.7290 C.3       6 GLP5        0.0000 
     23 CA         48.8330   27.3525   15.9625 C.3       3 GLC5        0.0000 
     24 CA         48.9120   26.8140   17.7230 C.3       6 GLP5        0.0000 
     25 CA         47.4180   26.1580   14.2400 C.3       3 GLC5        0.0000 
     26 CA         46.0820   24.4250   14.2780 C.3       6 GLP5        0.0000 
     27 CA         49.3205   23.3905   10.5885 C.3       3 GLC5        0.0000 
     28 CA         50.6680   24.9910   11.2860 C.3       9 GLL5        0.0000 
     29 CA         47.9730   21.7900    9.8910 C.3       6 GLP5        0.0000 
     30 CA         49.8680   25.6615    9.4895 C.3       3 GLC5        0.0000 
     31 CA         49.0680   26.3320    7.6930 C.3       6 GLP5        0.0000 
     32 CA         54.1695   23.8875   13.1725 C.3       3 GLC5        0.0000 
     33 CA         52.8500   25.1750   12.5120 C.3       9 GLL5        0.0000 
     34 CA         55.4890   22.6000   13.8330 C.3       6 GLP5        0.0000 
     35 CA         54.6100   25.9655   12.1165 C.3       3 GLC5        0.0000 
     36 CA         56.3700   26.7560   11.7210 C.3       6 GLP5        0.0000 
     37 O          54.7550   24.9400   14.7110 O.2       1 ALC1        0.0000 
     38 O          53.2820   24.8910   13.7770 O.2       7 ALL1        0.0000 
     39 O          56.2280   24.9890   15.6450 O.2       4 ALP1        0.0000 
     40 CA         48.0745   30.9588   12.9008 C.3       3 GLC5        0.0000 
     41 CA         48.5590   28.7770   12.9980 C.3       9 GLL5        0.0000 
     42 CA         47.0060   32.6390   12.7820 C.3       6 GLP5        0.0000 
     43 CA         53.8648   23.4715   14.5192 C.3       3 GLC5        0.0000 
     44 CA         52.2580   24.5030   14.5300 C.3       9 GLL5        0.0000 
     45 CA         49.6580   25.3050   16.8650 C.3       3 GLC5        0.0000 
     46 CA         49.8340   23.7740   15.5800 C.3       9 GLL5        0.0000 
     47 CA         49.0850   22.7630   17.0840 C.3       3 GLC5        0.0000 
     48 CA         47.7660   21.7300   18.1610 C.3       6 GLP5        0.0000 
     49 CA         52.5756   22.8133   16.6624 C.3       3 GLC5        0.0000 
     50 CA         50.9740   23.8180   16.4340 C.3       9 GLL5        0.0000 
     51 CA         53.5440   21.5460   17.5050 C.3       6 GLP5        0.0000 
     52 CA         50.1041   21.8676   15.3783 C.3       3 GLC5        0.0000 
     53 CA         49.7940   19.8480   15.0890 C.3       6 GLP5        0.0000 
@<TRIPOS>BOND
@<TRIPOS>SUBSTRUCTURE
     1 ALC1       37 GROUP        1 X    ALC  0     ROOT ALC X 1
     2 SEC2        1 GROUP        1 X    SEC  0     **** SEC X 2
     3 GLC5        4 GROUP        1 X    GLC  0     **** GLC X 6
     4 ALP1       39 GROUP        1 Y    ALP  0     ROOT ALP Y 8
     5 SEP2        3 GROUP        1 Y    SEP  0     **** SEP Y 9
     6 GLP5        6 GROUP        1 Y    GLP  0     **** GLP Y 13
     7 ALL1       38 GROUP        1 Z    ALL  0     ROOT ALL Z 15
     8 SEL2        2 GROUP        1 Z    SEL  0     **** SEL Z 16
     9 GLL5        5 GROUP        1 Z    GLL  0     **** GLL Z 20
@<TRIPOS>SET

