#    Name: 1k7f_IAV_1_ligand
#    Modification time : Tue Mar 25 09:40:52 2014

@<TRIPOS>MOLECULE
1k7f_IAV_1_ligand
   37    38     1     0     0
SMALL
NO_CHARGES


@<TRIPOS>ATOM
      1 O1         48.3320   25.6200   11.3230 O.2       1 IAV401      0.0000 
      2 C10        49.5930   26.0510   11.2840 C.2       1 IAV401      0.0000 
      3 N2         49.8280   27.4030   11.3150 N.am      1 IAV401      0.0000 
      4 C11        48.5470   28.0210   11.7010 C.3       1 IAV401      0.0000 
      5 C12        48.4510   29.0930   10.6500 C.2       1 IAV401      0.0000 
      6 O2         47.6160   30.1480   10.8490 O.co2     1 IAV401      0.0000 
      7 O3         49.1280   28.9440    9.4490 O.co2     1 IAV401      0.0000 
      8 C13        48.5590   28.7770   12.9980 C.3       1 IAV401      0.0000 
      9 C14        49.7270   29.7800   13.0410 C.3       1 IAV401      0.0000 
     10 C15        48.7540   27.8910   14.2020 C.3       1 IAV401      0.0000 
     11 C9         50.6680   24.9910   11.2860 C.3       1 IAV401      0.0000 
     12 C2         51.5260   24.8510   12.5160 C.2       1 IAV401      0.0000 
     13 C1         52.8500   25.1750   12.5120 C.2       1 IAV401      0.0000 
     14 N1         53.2820   24.8910   13.7770 N.pl3     1 IAV401      0.0000 
     15 C8         52.2580   24.5030   14.5300 C.ar      1 IAV401      0.0000 
     16 C6         52.2230   24.1830   15.8810 C.ar      1 IAV401      0.0000 
     17 C7         51.1030   24.5210   13.7420 C.ar      1 IAV401      0.0000 
     18 C3         49.8750   24.1390   14.2220 C.ar      1 IAV401      0.0000 
     19 C4         49.8340   23.7740   15.5800 C.ar      1 IAV401      0.0000 
     20 C5         50.9740   23.8180   16.4340 C.ar      1 IAV401      0.0000 
     21 H          50.5957   27.8797   11.1425 H         1 IAV401      0.0000 
     22 H          47.7462   27.3865   11.6038 H         1 IAV401      0.0000 
     23 H          47.6503   29.3383   13.1215 H         1 IAV401      0.0000 
     24 H          51.3392   25.1637   10.3990 H         1 IAV401      0.0000 
     25 H          50.1871   23.9965   11.0699 H         1 IAV401      0.0000 
     26 H          53.3542   25.5168   11.8007 H         1 IAV401      0.0000 
     27 H          54.2119   24.9685   14.0646 H         1 IAV401      0.0000 
     28 H          53.0501   24.2065   16.4556 H         1 IAV401      0.0000 
     29 H          49.0514   24.1160   13.6556 H         1 IAV401      0.0000 
     30 H          48.9294   23.4548   15.9885 H         1 IAV401      0.0000 
     31 H          50.8862   23.5921   17.4139 H         1 IAV401      0.0000 
     32 H          50.6120   29.3237   12.9479 H         1 IAV401      0.0000 
     33 H          49.6655   30.4535   12.3043 H         1 IAV401      0.0000 
     34 H          49.7485   30.2884   13.9019 H         1 IAV401      0.0000 
     35 H          49.6183   27.3900   14.1583 H         1 IAV401      0.0000 
     36 H          48.7626   28.4168   15.0526 H         1 IAV401      0.0000 
     37 H          48.0251   27.2114   14.2849 H         1 IAV401      0.0000 
@<TRIPOS>BOND
     1    2    1 2    
     2    3    2 am   
     3   11    2 1    
     4    4    3 1    
     5   21    3 1    
     6    5    4 1    
     7    8    4 1    
     8   22    4 1    
     9    6    5 ar   
    10    7    5 ar   
    11    9    8 1    
    12   10    8 1    
    13   23    8 1    
    14   32    9 1    
    15   33    9 1    
    16   34    9 1    
    17   35   10 1    
    18   36   10 1    
    19   37   10 1    
    20   12   11 1    
    21   24   11 1    
    22   25   11 1    
    23   13   12 2    
    24   17   12 1    
    25   14   13 1    
    26   26   13 1    
    27   15   14 1    
    28   27   14 1    
    29   16   15 ar   
    30   17   15 ar   
    31   20   16 ar   
    32   28   16 1    
    33   18   17 ar   
    34   19   18 ar   
    35   29   18 1    
    36   20   19 ar   
    37   30   19 1    
    38   31   20 1    
@<TRIPOS>SUBSTRUCTURE
     1 IAV401      1 GROUP   
@<TRIPOS>SET

