#    Name: 3ope_SAM_1_INTS_M
#    Modification time : Tue Mar 25 04:57:06 2014

@<TRIPOS>MOLECULE
3ope_SAM_1_INTS_M
   75     0     9     0     0
SMALL
NO_CHARGES


@<TRIPOS>ATOM
      1 O         -11.2400   12.1925   29.5490 O.2       1 ALC1        0.0000 
      2 O         -11.0350   10.9150   29.5920 O.2       7 ALL1        0.0000 
      3 O         -11.4450   13.4700   29.5060 O.2       4 ALP1        0.0000 
      4 O         -12.6280   11.3115   29.7820 O.2       1 ALC1        0.0000 
      5 O         -14.2210   11.7080   29.9720 O.2       4 ALP1        0.0000 
      6 CA         -9.8010   12.3470   29.0745 C.3       3 GLC5        0.0000 
      7 CA        -10.3610   10.3360   28.3810 C.3       9 GLL5        0.0000 
      8 CA         -9.2410   14.3580   29.7680 C.3       6 GLP5        0.0000 
      9 N          -8.6290   12.1870   30.0180 N.am      2 SEC2        0.0000 
     10 N          -8.2940   11.1630   29.4230 N.am      8 SEL2        0.0000 
     11 N          -8.9640   13.2110   30.6130 N.am      5 SEP2        0.0000 
     12 CA        -10.2745    7.8525   25.5170 C.3       3 GLC5        0.0000 
     13 CA        -11.8740    8.2510   26.4250 C.3       9 GLL5        0.0000 
     14 CA         -8.6750    7.4540   24.6090 C.3       6 GLP5        0.0000 
     15 CA        -11.1995    7.7530   23.6820 C.3       3 GLC5        0.0000 
     16 CA        -12.3960    7.9990   24.7330 C.3       9 GLL5        0.0000 
     17 CA        -10.0030    7.5070   22.6310 C.3       6 GLP5        0.0000 
     18 CA        -15.1615    6.7990   27.1840 C.3       3 GLC5        0.0000 
     19 CA        -12.9690    7.1410   27.3410 C.3       9 GLL5        0.0000 
     20 CA        -17.3540    6.4570   27.0270 C.3       6 GLP5        0.0000 
     21 CA        -10.9585    6.0155   28.1065 C.3       3 GLC5        0.0000 
     22 CA        -12.4410    6.8450   28.7460 C.3       9 GLL5        0.0000 
     23 CA         -9.4760    5.1860   27.4670 C.3       6 GLP5        0.0000 
     24 CA        -11.5385    4.7885   28.7175 C.3       3 GLC5        0.0000 
     25 CA        -13.2240    5.7940   29.5020 C.3       9 GLL5        0.0000 
     26 CA         -9.8530    3.7830   27.9330 C.3       6 GLP5        0.0000 
     27 N         -12.1975    3.9935   27.6230 N.am      2 SEC2        0.0000 
     28 N         -12.7860    4.5430   28.9780 N.am      8 SEL2        0.0000 
     29 N         -11.6090    3.4440   26.2680 N.am      5 SEP2        0.0000 
     30 O         -13.0275    3.5650   29.8655 O.2       1 ALC1        0.0000 
     31 O         -12.7860    4.5430   28.9780 O.2       7 ALL1        0.0000 
     32 O         -13.2690    2.5870   30.7530 O.2       4 ALP1        0.0000 
     33 CA        -14.8605    5.4015   31.6010 C.3       3 GLC5        0.0000 
     34 CA        -12.8560    6.0810   30.9460 C.3       9 GLL5        0.0000 
     35 CA        -16.8650    4.7220   32.2560 C.3       6 GLP5        0.0000 
     36 N         -11.8915    4.3435   31.9165 N.am      2 SEC2        0.0000 
     37 N         -11.5350    5.5100   31.1740 N.am      8 SEL2        0.0000 
     38 N         -12.2480    3.1770   32.6590 N.am      5 SEP2        0.0000 
     39 O         -10.4005    5.8935   30.3800 O.2       1 ALC1        0.0000 
     40 O         -11.5350    5.5100   31.1740 O.2       7 ALL1        0.0000 
     41 O          -9.2660    6.2770   29.5860 O.2       4 ALP1        0.0000 
     42 N         -17.3160    9.7075   29.8145 N.am      2 SEC2        0.0000 
     43 N         -16.1550    9.1950   30.6340 N.am      8 SEL2        0.0000 
     44 N         -18.4770   10.2200   28.9950 N.am      5 SEP2        0.0000 
     45 CA        -16.3310   10.5385   30.7820 C.3       3 GLC5        0.0000 
     46 CA        -16.1860    8.7620   31.9370 C.3       9 GLL5        0.0000 
     47 CA        -16.4760   12.3150   29.6270 C.3       6 GLP5        0.0000 
     48 CA        -17.9320    8.4500   30.6085 C.3       3 GLC5        0.0000 
     49 CA        -19.6780    8.1380   29.2800 C.3       6 GLP5        0.0000 
     50 CA        -18.9205    8.0730   33.9260 C.3       3 GLC5        0.0000 
     51 CA        -17.0740    8.7950   33.0290 C.3       9 GLL5        0.0000 
     52 CA        -20.7670    7.3510   34.8230 C.3       6 GLP5        0.0000 
     53 O         -19.1485    9.9455   32.1580 O.2       1 ALC1        0.0000 
     54 O         -18.2850    9.3480   33.0360 O.2       7 ALL1        0.0000 
     55 O         -20.0120   10.5430   31.2800 O.2       4 ALP1        0.0000 
     56 N         -17.3060    8.1405   35.5810 N.am      2 SEC2        0.0000 
     57 N         -16.7320    8.1710   34.2160 N.am      8 SEL2        0.0000 
     58 N         -17.8800    8.1100   36.9460 N.am      5 SEP2        0.0000 
     59 CA        -15.0670    9.4640   34.4865 C.3       3 GLC5        0.0000 
     60 CA        -15.5280    7.5900   34.3820 C.3       9 GLL5        0.0000 
     61 CA        -14.6060   11.3380   34.5910 C.3       6 GLP5        0.0000 
     62 CA        -17.2025    6.7905   35.3405 C.3       3 GLC5        0.0000 
     63 CA        -18.8770    5.9910   36.2990 C.3       6 GLP5        0.0000 
     64 CA        -15.9095    8.6625   36.1200 C.3       3 GLC5        0.0000 
     65 CA        -16.2910    9.7350   37.8580 C.3       6 GLP5        0.0000 
     66 CA        -16.1965    6.1560   33.3190 C.3       3 GLC5        0.0000 
     67 CA        -14.7825    9.7345   33.3785 C.3       3 GLC5        0.0000 
     68 CA        -14.9590    8.1310   32.1660 C.3       9 GLL5        0.0000 
     69 CA        -11.9032   11.7015   25.5517 C.3       3 GLC5        0.0000 
     70 CA        -12.4520    9.9360   26.8490 C.3       9 GLL5        0.0000 
     71 CA        -12.0100   13.0650   24.1230 C.3       6 GLP5        0.0000 
     72 CA        -10.9488    6.4410   27.1750 C.3       3 GLC5        0.0000 
     73 CA        -16.2470   10.3953   33.2850 C.3       3 GLC5        0.0000 
     74 CA        -15.8640   12.0120   34.0870 C.3       6 GLP5        0.0000 
     75 CA        -16.3298    6.5884   32.2903 C.3       3 GLC5        0.0000 
@<TRIPOS>BOND
@<TRIPOS>SUBSTRUCTURE
     1 ALC1        1 GROUP        1 X    ALC  0     ROOT ALC X 1
     2 SEC2        9 GROUP        1 X    SEC  0     **** SEC X 2
     3 GLC5        6 GROUP        1 X    GLC  0     **** GLC X 6
     4 ALP1        3 GROUP        1 Y    ALP  0     ROOT ALP Y 8
     5 SEP2       11 GROUP        1 Y    SEP  0     **** SEP Y 9
     6 GLP5        8 GROUP        1 Y    GLP  0     **** GLP Y 13
     7 ALL1        2 GROUP        1 Z    ALL  0     ROOT ALL Z 15
     8 SEL2       10 GROUP        1 Z    SEL  0     **** SEL Z 16
     9 GLL5        7 GROUP        1 Z    GLL  0     **** GLL Z 20
@<TRIPOS>SET

