#    Name: 3ope_SAM_1_ligand
#    Modification time : Tue Mar 25 04:57:06 2014

@<TRIPOS>MOLECULE
3ope_SAM_1_ligand
   50    52     1     0     0
SMALL
NO_CHARGES


@<TRIPOS>ATOM
      1 N         -11.0350   10.9150   29.5920 N.4       1 SAM7        0.0000 
      2 CA        -10.3610   10.3360   28.3810 C.3       1 SAM7        0.0000 
      3 C          -8.8500   10.6210   28.4280 C.2       1 SAM7        0.0000 
      4 O          -8.1050   10.3230   27.4720 O.co2     1 SAM7        0.0000 
      5 OXT        -8.2940   11.1630   29.4230 O.co2     1 SAM7        0.0000 
      6 CB        -11.1410   10.7400   27.1120 C.3       1 SAM7        0.0000 
      7 CG        -12.4520    9.9360   26.8490 C.3       1 SAM7        0.0000 
      8 SD        -11.8740    8.2510   26.4250 S.3       1 SAM7        0.0000 
      9 CE        -12.3960    7.9990   24.7330 C.3       1 SAM7        0.0000 
     10 C5'       -12.9690    7.1410   27.3410 C.3       1 SAM7        0.0000 
     11 C4'       -12.4410    6.8450   28.7460 C.3       1 SAM7        0.0000 
     12 O4'       -12.4310    7.9300   29.6280 O.3       1 SAM7        0.0000 
     13 C3'       -13.2240    5.7940   29.5020 C.3       1 SAM7        0.0000 
     14 O3'       -12.7860    4.5430   28.9780 O.3       1 SAM7        0.0000 
     15 C2'       -12.8560    6.0810   30.9460 C.3       1 SAM7        0.0000 
     16 O2'       -11.5350    5.5100   31.1740 O.3       1 SAM7        0.0000 
     17 C1'       -12.8460    7.5890   30.9020 C.3       1 SAM7        0.0000 
     18 N9        -14.2250    8.1830   31.0310 N.pl3     1 SAM7        0.0000 
     19 C8        -14.9580    8.8470   30.0980 C.2       1 SAM7        0.0000 
     20 N7        -16.1550    9.1950   30.6340 N.2       1 SAM7        0.0000 
     21 C5        -16.1860    8.7620   31.9370 C.ar      1 SAM7        0.0000 
     22 C6        -17.0740    8.7950   33.0290 C.ar      1 SAM7        0.0000 
     23 N6        -18.2850    9.3480   33.0360 N.pl3     1 SAM7        0.0000 
     24 N1        -16.7320    8.1710   34.2160 N.ar      1 SAM7        0.0000 
     25 C2        -15.5280    7.5900   34.3820 C.ar      1 SAM7        0.0000 
     26 N3        -14.6450    7.5370   33.3670 N.ar      1 SAM7        0.0000 
     27 C4        -14.9590    8.1310   32.1660 C.ar      1 SAM7        0.0000 
     28 H         -10.4797    9.2164   28.4811 H         1 SAM7        0.0000 
     29 H         -10.4819   10.6231   26.2346 H         1 SAM7        0.0000 
     30 H         -11.3994   11.8109   27.1767 H         1 SAM7        0.0000 
     31 H         -12.9453   10.2268   25.9900 H         1 SAM7        0.0000 
     32 H         -13.0108    9.7736   27.7018 H         1 SAM7        0.0000 
     33 H         -13.0057    6.2781   26.7095 H         1 SAM7        0.0000 
     34 H         -13.8959    7.6753   27.3384 H         1 SAM7        0.0000 
     35 H         -11.4125    6.4414   28.6519 H         1 SAM7        0.0000 
     36 H         -14.2486    5.9925   29.3454 H         1 SAM7        0.0000 
     37 H         -13.6000    5.7338   31.5597 H         1 SAM7        0.0000 
     38 H         -12.2135    7.9741   31.6493 H         1 SAM7        0.0000 
     39 H         -14.6701    9.0402   29.1947 H         1 SAM7        0.0000 
     40 H         -18.5810    9.7699   32.1790 H         1 SAM7        0.0000 
     41 H         -18.7895    9.2916   33.8976 H         1 SAM7        0.0000 
     42 H         -15.2765    7.1753   35.3104 H         1 SAM7        0.0000 
     43 H         -12.0200   10.7422   29.5871 H         1 SAM7        0.0000 
     44 H         -10.6735   10.5265   30.4396 H         1 SAM7        0.0000 
     45 H         -10.9116   11.9057   29.6477 H         1 SAM7        0.0000 
     46 H         -11.9957    8.6765   24.1160 H         1 SAM7        0.0000 
     47 H         -12.1284    7.0978   24.3921 H         1 SAM7        0.0000 
     48 H         -13.3891    8.0657   24.6369 H         1 SAM7        0.0000 
     49 H         -12.6415    3.9631   29.7798 H         1 SAM7        0.0000 
     50 H         -10.9984    5.7710   30.3716 H         1 SAM7        0.0000 
@<TRIPOS>BOND
     1    2    1 1    
     2   43    1 1    
     3   44    1 1    
     4   45    1 1    
     5    3    2 1    
     6    6    2 1    
     7   28    2 1    
     8    4    3 ar   
     9    5    3 ar   
    10    7    6 1    
    11   29    6 1    
    12   30    6 1    
    13    8    7 1    
    14   31    7 1    
    15   32    7 1    
    16    9    8 1    
    17   10    8 1    
    18   46    9 1    
    19   47    9 1    
    20   48    9 1    
    21   11   10 1    
    22   33   10 1    
    23   34   10 1    
    24   12   11 1    
    25   13   11 1    
    26   35   11 1    
    27   17   12 1    
    28   14   13 1    
    29   15   13 1    
    30   36   13 1    
    31   49   14 1    
    32   16   15 1    
    33   17   15 1    
    34   37   15 1    
    35   50   16 1    
    36   18   17 1    
    37   38   17 1    
    38   19   18 1    
    39   27   18 1    
    40   20   19 2    
    41   39   19 1    
    42   21   20 1    
    43   22   21 ar   
    44   27   21 ar   
    45   23   22 1    
    46   24   22 ar   
    47   40   23 1    
    48   41   23 1    
    49   25   24 ar   
    50   26   25 ar   
    51   42   25 1    
    52   27   26 ar   
@<TRIPOS>SUBSTRUCTURE
     1 SAM7        1 GROUP   
@<TRIPOS>SET

