#    Name: 2bd0_NAP_3_INTS_M
#    Modification time : Mon Mar 24 20:30:32 2014

@<TRIPOS>MOLECULE
2bd0_NAP_3_INTS_M
  118     0    12     0     0
SMALL
NO_CHARGES


@<TRIPOS>ATOM
      1 N          31.2855   12.4145   50.0830 N.am      2 SEC2        0.0000 
      2 N          29.7070   13.0600   50.3860 N.am     10 SEL2        0.0000 
      3 N          32.8640   11.7690   49.7800 N.am      6 SEP2        0.0000 
      4 CA         28.7870   17.4785   50.2495 C.3       4 GLC5        0.0000 
      5 CA         28.2570   15.4420   50.8430 C.3      12 GLL5        0.0000 
      6 CA         29.3170   19.5150   49.6560 C.3       8 GLP5        0.0000 
      7 CA         28.5515   19.6210   55.5845 C.3       4 GLC5        0.0000 
      8 CA         27.4720   19.2540   53.7300 C.3      12 GLL5        0.0000 
      9 CA         29.6310   19.9880   57.4390 C.3       8 GLP5        0.0000 
     10 O          26.7390   20.3070   55.6685 O.2       1 ALC1        0.0000 
     11 O          26.5590   20.1200   54.1600 O.2       9 ALL1        0.0000 
     12 O          26.9190   20.4940   57.1770 O.2       5 ALP1        0.0000 
     13 O          25.3320   20.8190   53.8220 O.2       1 ALC1        0.0000 
     14 O          24.1050   21.5180   53.4840 O.2       5 ALP1        0.0000 
     15 N          29.1570   20.4905   54.9335 N.am      2 SEC2        0.0000 
     16 N          28.7300   19.3050   54.1920 N.am     10 SEL2        0.0000 
     17 N          29.5840   21.6760   55.6750 N.am      6 SEP2        0.0000 
     18 CA         31.0905   16.7340   53.7955 C.3       4 GLC5        0.0000 
     19 CA         29.6490   18.4440   53.7880 C.3      12 GLL5        0.0000 
     20 CA         32.5320   15.0240   53.8030 C.3       8 GLP5        0.0000 
     21 CA         29.0280   17.4835   55.1310 C.3       4 GLC5        0.0000 
     22 CA         28.4070   16.5230   56.4740 C.3       8 GLP5        0.0000 
     23 CA         29.6400   19.2160   55.6135 C.3       4 GLC5        0.0000 
     24 CA         29.1890   20.3945   53.3420 C.3       4 GLC5        0.0000 
     25 CA         28.7290   22.3450   52.8960 C.3       8 GLP5        0.0000 
     26 CA         29.4830   18.9795   51.7220 C.3       4 GLC5        0.0000 
     27 CA         28.2645   16.9555   54.4390 C.3       4 GLC5        0.0000 
     28 CA         28.1220   17.3880   52.4040 C.3      12 GLL5        0.0000 
     29 N          23.9930   11.5940   43.4220 N.am      2 SEC2        0.0000 
     30 N          24.4300   12.7500   43.5650 N.am     10 SEL2        0.0000 
     31 N          23.5560   10.4380   43.2790 N.am      6 SEP2        0.0000 
     32 N          27.9820   12.2565   43.5600 N.am      2 SEC2        0.0000 
     33 N          26.8580   12.8440   44.3030 N.am     10 SEL2        0.0000 
     34 N          29.1060   11.6690   42.8170 N.am      6 SEP2        0.0000 
     35 CA         27.9190   14.6935   42.8145 C.3       4 GLC5        0.0000 
     36 CA         26.6660   15.7120   44.2370 C.3      12 GLL5        0.0000 
     37 CA         29.1720   13.6750   41.3920 C.3       8 GLP5        0.0000 
     38 CA         27.2535   17.8840   42.0610 C.3       4 GLC5        0.0000 
     39 CA         26.4540   17.1170   43.6660 C.3      12 GLL5        0.0000 
     40 CA         28.0530   18.6510   40.4560 C.3       8 GLP5        0.0000 
     41 CA         25.1830   18.6610   46.1955 C.3       4 GLC5        0.0000 
     42 CA         25.3630   17.8900   44.4130 C.3      12 GLL5        0.0000 
     43 CA         25.0030   19.4320   47.9780 C.3       8 GLP5        0.0000 
     44 N          24.7525   20.3935   43.7635 N.am      2 SEC2        0.0000 
     45 N          25.6030   19.2990   44.3590 N.am     10 SEL2        0.0000 
     46 N          23.9020   21.4880   43.1680 N.am      6 SEP2        0.0000 
     47 N          26.2315   20.5095   44.5950 N.am      2 SEC2        0.0000 
     48 N          26.8600   21.7200   44.8310 N.am      6 SEP2        0.0000 
     49 O          26.1765   20.3840   43.1175 O.2       1 ALC1        0.0000 
     50 O          25.6030   19.2990   44.3590 O.2       9 ALL1        0.0000 
     51 O          26.7500   21.4690   41.8760 O.2       5 ALP1        0.0000 
     52 CA         23.2660   19.5905   43.3620 C.3       4 GLC5        0.0000 
     53 CA         24.1140   17.5240   43.6140 C.3      12 GLL5        0.0000 
     54 CA         22.4180   21.6570   43.1100 C.3       8 GLP5        0.0000 
     55 CA         22.8610   16.7410   44.7980 C.3       4 GLC5        0.0000 
     56 CA         21.6080   15.9580   45.9820 C.3       8 GLP5        0.0000 
     57 N          21.9020   18.6515   43.0265 N.am      2 SEC2        0.0000 
     58 N          23.0990   18.5230   43.7510 N.am     10 SEL2        0.0000 
     59 N          20.7050   18.7800   42.3020 N.am      6 SEP2        0.0000 
     60 N          23.5005   20.0055   43.4595 N.am      2 SEC2        0.0000 
     61 CA         26.3760   18.1185   41.3300 C.3       4 GLC5        0.0000 
     62 CA         24.6990   17.5860   42.2040 C.3      12 GLL5        0.0000 
     63 CA         22.4050   15.2295   42.9305 C.3       4 GLC5        0.0000 
     64 CA         23.5010   15.6050   41.2520 C.3      12 GLL5        0.0000 
     65 CA         21.3090   14.8540   44.6090 C.3       8 GLP5        0.0000 
     66 N          21.7205   12.2265   38.4815 N.am      2 SEC2        0.0000 
     67 N          21.4910   13.0770   39.5620 N.am     10 SEL2        0.0000 
     68 N          21.9500   11.3760   37.4010 N.am      6 SEP2        0.0000 
     69 N          20.5875   12.1845   40.1575 N.am      2 SEC2        0.0000 
     70 N          19.6840   11.2920   40.7530 N.am      6 SEP2        0.0000 
     71 O          22.6440   11.4040   40.5595 O.2       1 ALC1        0.0000 
     72 O          22.9260   12.8470   41.2910 O.2       9 ALL1        0.0000 
     73 O          22.3620    9.9610   39.8280 O.2       5 ALP1        0.0000 
     74 O          23.2410   11.6425   42.2850 O.2       1 ALC1        0.0000 
     75 O          23.5560   10.4380   43.2790 O.2       5 ALP1        0.0000 
     76 NZ         27.1540   10.2420   52.4490 N.4       3 LYC4        0.0000 
     77 NZ         26.9450   11.5440   52.7570 N.4      11 LYL4        0.0000 
     78 NZ         27.3630    8.9400   52.1410 N.4       7 LYP4        0.0000 
     79 N          27.1540   10.2420   52.4490 N.am      2 SEC2        0.0000 
     80 N          26.9450   11.5440   52.7570 N.am     10 SEL2        0.0000 
     81 N          27.3630    8.9400   52.1410 N.am      6 SEP2        0.0000 
     82 N          29.7465   13.4650   54.9945 N.am      2 SEC2        0.0000 
     83 N          28.7190   12.1910   54.5220 N.am     10 SEL2        0.0000 
     84 N          30.7740   14.7390   55.4670 N.am      6 SEP2        0.0000 
     85 N          28.7660   11.3615   55.5095 N.am      2 SEC2        0.0000 
     86 N          28.8130   10.5320   56.4970 N.am      6 SEP2        0.0000 
     87 NZ         25.4925   14.4415   54.2320 N.4       3 LYC4        0.0000 
     88 NZ         26.5230   13.5100   54.3600 N.4      11 LYL4        0.0000 
     89 NZ         24.9810   16.1550   55.0400 N.4       7 LYP4        0.0000 
     90 N          26.3815   14.7445   54.8935 N.am      2 SEC2        0.0000 
     91 N          26.5230   13.5100   54.3600 N.am     10 SEL2        0.0000 
     92 N          26.2400   15.9790   55.4270 N.am      6 SEP2        0.0000 
     93 N          25.4925   14.4415   54.2320 N.am      2 SEC2        0.0000 
     94 N          24.4620   15.3730   54.1040 N.am      6 SEP2        0.0000 
     95 CA         27.9401   11.7672   49.2624 C.3       4 GLC5        0.0000 
     96 CA         28.0790   14.1330   48.9390 C.3      12 GLL5        0.0000 
     97 CA         28.0290    9.9180   49.1350 C.3       8 GLP5        0.0000 
     98 CA         27.1050   17.7727   54.8570 C.3       4 GLC5        0.0000 
     99 CA         27.1320   18.2750   52.8040 C.3      12 GLL5        0.0000 
    100 CA         26.9080   16.7810   56.4470 C.3       8 GLP5        0.0000 
    101 CA         28.0155   20.5547   53.0815 C.3       4 GLC5        0.0000 
    102 CA         26.1700   20.0953   52.2630 C.3       4 GLC5        0.0000 
    103 CA         25.0380   21.4260   51.2590 C.3       8 GLP5        0.0000 
    104 CA         28.5145   18.7956   51.2458 C.3       4 GLC5        0.0000 
    105 CA         25.0900   14.8313   40.4277 C.3       4 GLC5        0.0000 
    106 CA         27.0660   14.3480   40.1040 C.3       8 GLP5        0.0000 
    107 CA         23.5540   13.9865   38.4153 C.3       4 GLC5        0.0000 
    108 CA         22.7270   15.0240   40.2510 C.3      12 GLL5        0.0000 
    109 CA         24.5890   12.5640   37.1200 C.3       8 GLP5        0.0000 
    110 CA         22.3167   18.9915   39.2503 C.3       4 GLC5        0.0000 
    111 CA         22.6580   17.1380   39.0710 C.3      12 GLL5        0.0000 
    112 CA         21.5880   20.5510   38.9320 C.3       8 GLP5        0.0000 
    113 CA         24.1824   17.0785   38.3756 C.3       4 GLC5        0.0000 
    114 CA         23.4330   17.7260   40.0660 C.3      12 GLL5        0.0000 
    115 CA         25.4060   17.0610   37.1580 C.3       8 GLP5        0.0000 
    116 CA         29.6615   14.9704   49.8081 C.3       4 GLC5        0.0000 
    117 CA         28.3060   13.2350   50.1590 C.3      12 GLL5        0.0000 
    118 CA         31.2370   15.7170   49.3120 C.3       8 GLP5        0.0000 
@<TRIPOS>BOND
@<TRIPOS>SUBSTRUCTURE
     1 ALC1       10 GROUP        1 X    ALC  0     ROOT ALC X 1
     2 SEC2        1 GROUP        1 X    SEC  0     **** SEC X 2
     3 LYC4       76 GROUP        1 X    LYC  0     **** LYC X 4
     4 GLC5        4 GROUP        1 X    GLC  0     **** GLC X 6
     5 ALP1       12 GROUP        1 Y    ALP  0     ROOT ALP Y 8
     6 SEP2        3 GROUP        1 Y    SEP  0     **** SEP Y 9
     7 LYP4       78 GROUP        1 Y    LYP  0     **** LYP Y 11
     8 GLP5        6 GROUP        1 Y    GLP  0     **** GLP Y 13
     9 ALL1       11 GROUP        1 Z    ALL  0     ROOT ALL Z 15
    10 SEL2        2 GROUP        1 Z    SEL  0     **** SEL Z 16
    11 LYL4       77 GROUP        1 Z    LYL  0     **** LYL Z 18
    12 GLL5        5 GROUP        1 Z    GLL  0     **** GLL Z 20
@<TRIPOS>SET

