#    Name: 2bd0_NAP_3_ligand
#    Modification time : Mon Mar 24 20:30:32 2014

@<TRIPOS>MOLECULE
2bd0_NAP_3_ligand
   73    77     1     0     0
SMALL
NO_CHARGES


@<TRIPOS>ATOM
      1 PA         25.2990   12.1070   46.9710 P.3       1 NAP1800     0.0000 
      2 O1A        24.2180   12.1040   47.9820 O.co2     1 NAP1800     0.0000 
      3 O2A        25.5440   10.8650   46.2040 O.co2     1 NAP1800     0.0000 
      4 O5B        26.6660   12.5770   47.6790 O.3       1 NAP1800     0.0000 
      5 C5B        26.7140   13.8630   48.3020 C.3       1 NAP1800     0.0000 
      6 C4B        28.0790   14.1330   48.9390 C.3       1 NAP1800     0.0000 
      7 O4B        28.0490   15.4870   49.4230 O.3       1 NAP1800     0.0000 
      8 C3B        28.3060   13.2350   50.1590 C.3       1 NAP1800     0.0000 
      9 O3B        29.7070   13.0600   50.3860 O.3       1 NAP1800     0.0000 
     10 C2B        27.7020   14.0850   51.2760 C.3       1 NAP1800     0.0000 
     11 O2B        28.3060   13.7340   52.5240 O.3       1 NAP1800     0.0000 
     12 C1B        28.2570   15.4420   50.8430 C.3       1 NAP1800     0.0000 
     13 N9A        27.5660   16.5590   51.5260 N.pl3     1 NAP1800     0.0000 
     14 C8A        26.2890   16.9080   51.3760 C.2       1 NAP1800     0.0000 
     15 N7A        26.0170   17.9540   52.1540 N.2       1 NAP1800     0.0000 
     16 C5A        27.1320   18.2750   52.8040 C.ar      1 NAP1800     0.0000 
     17 C6A        27.4720   19.2540   53.7300 C.ar      1 NAP1800     0.0000 
     18 N6A        26.5590   20.1200   54.1600 N.pl3     1 NAP1800     0.0000 
     19 N1A        28.7300   19.3050   54.1920 N.ar      1 NAP1800     0.0000 
     20 C2A        29.6490   18.4440   53.7880 C.ar      1 NAP1800     0.0000 
     21 N3A        29.3590   17.4980   52.9110 N.ar      1 NAP1800     0.0000 
     22 C4A        28.1220   17.3880   52.4040 C.ar      1 NAP1800     0.0000 
     23 O3         24.9890   13.3230   45.9590 O.3       1 NAP1800     0.0000 
     24 PN         25.4740   13.3550   44.4230 P.3       1 NAP1800     0.0000 
     25 O1N        24.4300   12.7500   43.5650 O.co2     1 NAP1800     0.0000 
     26 O2N        26.8580   12.8440   44.3030 O.co2     1 NAP1800     0.0000 
     27 O5D        25.4710   14.9360   44.1170 O.3       1 NAP1800     0.0000 
     28 C5D        26.6660   15.7120   44.2370 C.3       1 NAP1800     0.0000 
     29 C4D        26.4540   17.1170   43.6660 C.3       1 NAP1800     0.0000 
     30 O4D        25.9740   16.9320   42.3220 O.3       1 NAP1800     0.0000 
     31 C3D        25.3630   17.8900   44.4130 C.3       1 NAP1800     0.0000 
     32 O3D        25.6030   19.2990   44.3590 O.3       1 NAP1800     0.0000 
     33 C2D        24.1140   17.5240   43.6140 C.3       1 NAP1800     0.0000 
     34 O2D        23.0990   18.5230   43.7510 O.3       1 NAP1800     0.0000 
     35 C1D        24.6990   17.5860   42.2040 C.3       1 NAP1800     0.0000 
     36 N1N        23.8560   16.9590   41.1610 N.pl3     1 NAP1800     0.0000 
     37 C2N        23.5010   15.6050   41.2520 C.ar      1 NAP1800     0.0000 
     38 C3N        22.7270   15.0240   40.2510 C.ar      1 NAP1800     0.0000 
     39 C7N        22.3260   13.5490   40.3330 C.2       1 NAP1800     0.0000 
     40 O7N        21.4910   13.0770   39.5620 O.2       1 NAP1800     0.0000 
     41 N7N        22.9260   12.8470   41.2910 N.am      1 NAP1800     0.0000 
     42 C4N        22.3110   15.7940   39.1700 C.ar      1 NAP1800     0.0000 
     43 C5N        22.6580   17.1380   39.0710 C.ar      1 NAP1800     0.0000 
     44 C6N        23.4330   17.7260   40.0660 C.ar      1 NAP1800     0.0000 
     45 P2B        27.5530   12.7840   53.5840 P.3       1 NAP1800     0.0000 
     46 O1X        26.9450   11.5440   52.7570 O.co2     1 NAP1800     0.0000 
     47 O2X        28.7190   12.1910   54.5220 O.co2     1 NAP1800     0.0000 
     48 O3X        26.5230   13.5100   54.3600 O.co2     1 NAP1800     0.0000 
     49 H          25.9525   13.9575   49.0956 H         1 NAP1800     0.0000 
     50 H          26.5200   14.6722   47.5766 H         1 NAP1800     0.0000 
     51 H          28.8417   13.9843   48.2354 H         1 NAP1800     0.0000 
     52 H          27.7566   12.3655   50.0524 H         1 NAP1800     0.0000 
     53 H          26.6971   14.0837   51.2226 H         1 NAP1800     0.0000 
     54 H          29.3073   15.4480   51.0672 H         1 NAP1800     0.0000 
     55 H          25.6479   16.4627   50.7834 H         1 NAP1800     0.0000 
     56 H          25.8233   20.3383   53.5189 H         1 NAP1800     0.0000 
     57 H          26.6906   20.4748   55.0856 H         1 NAP1800     0.0000 
     58 H          30.6322   18.5134   54.1729 H         1 NAP1800     0.0000 
     59 H          27.5038   15.2546   43.6925 H         1 NAP1800     0.0000 
     60 H          26.9751   15.8223   45.2857 H         1 NAP1800     0.0000 
     61 H          27.3560   17.6540   43.6829 H         1 NAP1800     0.0000 
     62 H          25.2726   17.4942   45.3787 H         1 NAP1800     0.0000 
     63 H          23.8384   16.5566   43.8239 H         1 NAP1800     0.0000 
     64 H          24.8634   18.6392   41.9761 H         1 NAP1800     0.0000 
     65 H          23.8125   15.0493   42.0543 H         1 NAP1800     0.0000 
     66 H          23.6041   13.3384   41.8376 H         1 NAP1800     0.0000 
     67 H          22.6447   11.8913   41.3780 H         1 NAP1800     0.0000 
     68 H          21.7343   15.3609   38.4274 H         1 NAP1800     0.0000 
     69 H          22.3436   17.6933   38.2674 H         1 NAP1800     0.0000 
     70 H          23.6957   18.7137   40.0032 H         1 NAP1800     0.0000 
     71 H          29.8494   13.3233   51.3402 H         1 NAP1800     0.0000 
     72 H          26.0784   19.4474   43.4918 H         1 NAP1800     0.0000 
     73 H          23.5842   19.3458   44.0468 H         1 NAP1800     0.0000 
@<TRIPOS>BOND
     1    2    1 ar   
     2    3    1 ar   
     3    4    1 1    
     4   23    1 1    
     5    5    4 1    
     6    6    5 1    
     7   49    5 1    
     8   50    5 1    
     9    7    6 1    
    10    8    6 1    
    11   51    6 1    
    12   12    7 1    
    13    9    8 1    
    14   10    8 1    
    15   52    8 1    
    16   71    9 1    
    17   11   10 1    
    18   12   10 1    
    19   53   10 1    
    20   45   11 1    
    21   13   12 1    
    22   54   12 1    
    23   14   13 1    
    24   22   13 1    
    25   15   14 2    
    26   55   14 1    
    27   16   15 1    
    28   17   16 ar   
    29   22   16 ar   
    30   18   17 1    
    31   19   17 ar   
    32   56   18 1    
    33   57   18 1    
    34   20   19 ar   
    35   21   20 ar   
    36   58   20 1    
    37   22   21 ar   
    38   24   23 1    
    39   25   24 ar   
    40   26   24 ar   
    41   27   24 1    
    42   28   27 1    
    43   29   28 1    
    44   59   28 1    
    45   60   28 1    
    46   30   29 1    
    47   31   29 1    
    48   61   29 1    
    49   35   30 1    
    50   32   31 1    
    51   33   31 1    
    52   62   31 1    
    53   72   32 1    
    54   34   33 1    
    55   35   33 1    
    56   63   33 1    
    57   73   34 1    
    58   36   35 1    
    59   64   35 1    
    60   37   36 ar   
    61   44   36 ar   
    62   38   37 ar   
    63   65   37 1    
    64   39   38 1    
    65   42   38 ar   
    66   40   39 2    
    67   41   39 am   
    68   66   41 1    
    69   67   41 1    
    70   43   42 ar   
    71   68   42 1    
    72   44   43 ar   
    73   69   43 1    
    74   70   44 1    
    75   46   45 ar   
    76   47   45 ar   
    77   48   45 ar   
@<TRIPOS>SUBSTRUCTURE
     1 NAP1800     1 GROUP   
@<TRIPOS>SET

