#    Name: 3H9J_3_CAVITY_N1_6.mol2
#    Modification time : Mon Mar 10 21:54:17 2014

@<TRIPOS>MOLECULE
3H9J_3_CAVITY_N1_6.mol2
  134     0     7     0     0
SMALL
NO_CHARGES


@<TRIPOS>ATOM
      1 NZ         35.2156   25.7061   42.3376 N.2       4 LYS4        0.0000 
      2 NZ         34.1656   25.8579   43.3980 N.2       4 LYS4        0.0000 
      3 NZ         33.1156   26.0097   44.4584 N.2       4 LYS4        0.0000 
      4 CA         32.0656   26.1615   45.5188 C.3       6 GLY6        0.0000 
      5 NZ         31.0156   26.3133   46.5793 N.2       4 LYS4        0.0000 
      6 NZ         28.9156   26.6169   48.7001 N.2       4 LYS4        0.0000 
      7 NZ         27.8656   26.7688   49.7605 N.2       4 LYS4        0.0000 
      8 CA         34.2703   26.2733   41.3204 C.3       6 GLY6        0.0000 
      9 CA         33.2203   26.4251   42.3808 C.3       6 GLY6        0.0000 
     10 DU         32.1703   26.5769   43.4412 H         7 CUB7        0.0000 
     11 DU         31.1203   26.7287   44.5016 H         7 CUB7        0.0000 
     12 NZ         30.0703   26.8805   45.5620 N.2       4 LYS4        0.0000 
     13 NZ         29.0203   27.0323   46.6224 N.2       4 LYS4        0.0000 
     14 NZ         27.9703   27.1841   47.6828 N.2       4 LYS4        0.0000 
     15 NZ         26.9203   27.3359   48.7433 N.2       4 LYS4        0.0000 
     16 O          25.8703   27.4877   49.8037 O.2       2 ALA2        0.0000 
     17 CA         32.2750   26.9922   41.3636 C.3       6 GLY6        0.0000 
     18 NZ         31.2250   27.1440   42.4240 N.2       4 LYS4        0.0000 
     19 NZ         30.1750   27.2958   43.4844 N.2       4 LYS4        0.0000 
     20 CA         29.1250   27.4476   44.5448 C.3       6 GLY6        0.0000 
     21 N          28.0750   27.5994   45.6052 N.2       2 ALA2        0.0000 
     22 OD1        27.0250   27.7513   46.6656 O.3       3 ASP3        0.0000 
     23 OD1        25.9750   27.9031   47.7260 O.3       3 ASP3        0.0000 
     24 OD1        26.0797   28.3184   45.6484 O.3       3 ASP3        0.0000 
     25 N          25.1344   28.8856   44.6312 N.2       2 ALA2        0.0000 
     26 CA         29.5039   22.1724   45.6752 C.3       6 GLY6        0.0000 
     27 N          30.6586   22.4359   42.5372 N.2       2 ALA2        0.0000 
     28 CA         29.6086   22.5877   43.5976 C.3       6 GLY6        0.0000 
     29 CA         28.5586   22.7395   44.6580 C.3       6 GLY6        0.0000 
     30 O          27.5086   22.8913   45.7184 O.2       2 ALA2        0.0000 
     31 N          29.7133   23.0031   41.5200 N.2       2 ALA2        0.0000 
     32 NZ         28.6633   23.1549   42.5804 N.2       4 LYS4        0.0000 
     33 NZ         27.6133   23.3067   43.6408 N.2       4 LYS4        0.0000 
     34 NZ         26.5633   23.4585   44.7012 N.2       4 LYS4        0.0000 
     35 O          25.5133   23.6103   45.7616 O.2       2 ALA2        0.0000 
     36 O          24.4633   23.7621   46.8220 O.2       2 ALA2        0.0000 
     37 NZ         25.6180   24.0256   43.6840 N.2       4 LYS4        0.0000 
     38 CA         24.5680   24.1774   44.7444 C.3       6 GLY6        0.0000 
     39 CA         23.5180   24.3293   45.8048 C.3       6 GLY6        0.0000 
     40 N          35.7195   27.0864   42.6390 N.2       2 ALA2        0.0000 
     41 NZ         34.6695   27.2382   43.6994 N.2       4 LYS4        0.0000 
     42 NZ         33.6195   27.3900   44.7598 N.2       4 LYS4        0.0000 
     43 CA         32.5695   27.5418   45.8202 C.3       6 GLY6        0.0000 
     44 N          35.8242   27.5018   40.5613 N.2       2 ALA2        0.0000 
     45 N          34.7742   27.6536   41.6217 N.2       2 ALA2        0.0000 
     46 N          33.7242   27.8054   42.6822 N.2       2 ALA2        0.0000 
     47 N          32.6742   27.9572   43.7426 N.2       2 ALA2        0.0000 
     48 DU         31.6242   28.1090   44.8030 H         7 CUB7        0.0000 
     49 NZ         30.5742   28.2608   45.8634 N.2       4 LYS4        0.0000 
     50 N          33.8289   28.2207   40.6045 N.2       2 ALA2        0.0000 
     51 N          32.7789   28.3725   41.6649 N.2       2 ALA2        0.0000 
     52 CA         31.7289   28.5243   42.7253 C.3       6 GLY6        0.0000 
     53 CA         30.6789   28.6762   43.7857 C.3       6 GLY6        0.0000 
     54 CA         29.6289   28.8280   44.8462 C.3       6 GLY6        0.0000 
     55 N          31.8336   28.9397   40.6477 N.2       2 ALA2        0.0000 
     56 N          25.6383   30.2659   44.9325 N.2       2 ALA2        0.0000 
     57 OG         27.6556   20.3942   41.9777 O.2       1 SER1        0.0000 
     58 N          27.7602   20.8096   39.9001 N.2       2 ALA2        0.0000 
     59 CZ         26.7102   20.9614   40.9605 C.ar      5 PHE5        0.0000 
     60 N          26.8149   21.3767   38.8829 N.2       2 ALA2        0.0000 
     61 CZ         25.7649   21.5285   39.9433 C.ar      5 PHE5        0.0000 
     62 CA         25.8696   21.9439   37.8657 C.3       6 GLY6        0.0000 
     63 N          24.8196   22.0957   38.9261 N.2       2 ALA2        0.0000 
     64 CZ         23.7696   22.2475   39.9865 C.ar      5 PHE5        0.0000 
     65 OG         30.1547   21.0556   42.2359 O.2       1 SER1        0.0000 
     66 CA         29.1047   21.2074   43.2963 C.3       6 GLY6        0.0000 
     67 O          28.0548   21.3592   44.3567 O.2       2 ALA2        0.0000 
     68 O          27.0048   21.5110   45.4171 O.2       2 ALA2        0.0000 
     69 NZ         28.1594   21.7745   42.2791 N.2       4 LYS4        0.0000 
     70 OG         27.1094   21.9264   43.3395 O.2       1 SER1        0.0000 
     71 NZ         27.2141   22.3417   41.2618 N.2       4 LYS4        0.0000 
     72 NZ         26.1641   22.4935   42.3222 N.2       4 LYS4        0.0000 
     73 N          27.3188   22.7570   39.1842 N.2       2 ALA2        0.0000 
     74 CA         26.3735   23.3242   38.1670 C.3       6 GLY6        0.0000 
     75 CA         25.3235   23.4760   39.2274 C.3       6 GLY6        0.0000 
     76 NZ         24.2735   23.6278   40.2878 N.2       4 LYS4        0.0000 
     77 N          23.3282   24.1950   39.2706 N.2       2 ALA2        0.0000 
     78 N          33.5773   30.3025   46.4229 N.2       2 ALA2        0.0000 
     79 O          31.7914   31.8521   42.3108 O.2       2 ALA2        0.0000 
     80 CA         30.8461   32.4193   41.2936 C.3       6 GLY6        0.0000 
     81 NZ         32.6117   24.6294   44.1571 N.2       4 LYS4        0.0000 
     82 OD1        31.5617   24.7812   45.2175 O.3       3 ASP3        0.0000 
     83 OD1        30.5117   24.9330   46.2779 O.3       3 ASP3        0.0000 
     84 OD1        29.4617   25.0848   47.3383 O.3       3 ASP3        0.0000 
     85 OD1        28.4117   25.2366   48.3987 O.3       3 ASP3        0.0000 
     86 O          27.3617   25.3884   49.4591 O.2       2 ALA2        0.0000 
     87 O          26.3117   25.5402   50.5195 O.2       2 ALA2        0.0000 
     88 CA         32.7164   25.0447   42.0795 C.3       6 GLY6        0.0000 
     89 NZ         31.6664   25.1965   43.1399 N.2       4 LYS4        0.0000 
     90 NZ         30.6164   25.3484   44.2003 N.2       4 LYS4        0.0000 
     91 OD1        29.5664   25.5002   45.2607 O.3       3 ASP3        0.0000 
     92 OD1        28.5164   25.6520   46.3211 O.3       3 ASP3        0.0000 
     93 DU         27.4664   25.8038   47.3815 H         7 CUB7        0.0000 
     94 DU         26.4164   25.9556   48.4419 H         7 CUB7        0.0000 
     95 O          25.3664   26.1074   49.5023 O.2       2 ALA2        0.0000 
     96 NZ         28.6211   26.0673   44.2435 N.2       4 LYS4        0.0000 
     97 DU         27.5711   26.2191   45.3039 H         7 CUB7        0.0000 
     98 DU         26.5211   26.3709   46.3643 H         7 CUB7        0.0000 
     99 OD1        25.4711   26.5227   47.4247 O.3       3 ASP3        0.0000 
    100 OD1        24.4211   26.6745   48.4851 O.3       3 ASP3        0.0000 
    101 N          26.6258   26.7863   44.2867 N.2       2 ALA2        0.0000 
    102 OD1        25.5758   26.9381   45.3471 O.3       3 ASP3        0.0000 
    103 N          24.6305   27.5052   44.3299 N.2       2 ALA2        0.0000 
    104 CA         23.6852   28.0724   43.3126 C.3       6 GLY6        0.0000 
    105 N          34.1234   28.7704   45.0611 N.2       2 ALA2        0.0000 
    106 CA         33.0734   28.9222   46.1215 C.3       6 GLY6        0.0000 
    107 CA         32.0234   29.0740   47.1819 C.3       6 GLY6        0.0000 
    108 N          32.1281   29.4893   45.1043 N.2       2 ALA2        0.0000 
    109 N          32.2328   29.9047   43.0267 N.2       2 ALA2        0.0000 
    110 N          32.3375   30.3200   40.9491 N.2       2 ALA2        0.0000 
    111 CA         31.2875   30.4718   42.0095 C.3       6 GLY6        0.0000 
    112 CA         30.2375   30.6236   43.0699 C.3       6 GLY6        0.0000 
    113 O          32.1078   23.2491   43.8558 O.2       2 ALA2        0.0000 
    114 CA         31.0578   23.4009   44.9162 C.3       6 GLY6        0.0000 
    115 OD1        30.0078   23.5527   45.9766 O.3       3 ASP3        0.0000 
    116 OD1        28.9578   23.7045   47.0370 O.3       3 ASP3        0.0000 
    117 O          26.8578   24.0081   49.1578 O.2       2 ALA2        0.0000 
    118 O          25.8079   24.1599   50.2182 O.2       2 ALA2        0.0000 
    119 NZ         31.1625   23.8162   42.8385 N.2       4 LYS4        0.0000 
    120 NZ         30.1125   23.9680   43.8990 N.2       4 LYS4        0.0000 
    121 DU         29.0625   24.1198   44.9594 H         7 CUB7        0.0000 
    122 O          28.0125   24.2716   46.0198 O.2       2 ALA2        0.0000 
    123 O          26.9625   24.4235   47.0802 O.2       2 ALA2        0.0000 
    124 O          25.9125   24.5753   48.1406 O.2       2 ALA2        0.0000 
    125 O          24.8625   24.7271   49.2010 O.2       2 ALA2        0.0000 
    126 NZ         28.1172   24.6870   43.9421 N.2       4 LYS4        0.0000 
    127 NZ         27.0672   24.8388   45.0025 N.2       4 LYS4        0.0000 
    128 O          26.0172   24.9906   46.0630 O.2       2 ALA2        0.0000 
    129 O          24.9672   25.1424   47.1234 O.2       2 ALA2        0.0000 
    130 NZ         26.1219   25.4060   43.9853 N.2       4 LYS4        0.0000 
    131 NZ         25.0719   25.5578   45.0457 N.2       4 LYS4        0.0000 
    132 CA         24.0219   25.7096   46.1061 C.3       6 GLY6        0.0000 
    133 CA         24.1266   26.1249   44.0285 C.3       6 GLY6        0.0000 
    134 NZ         24.2313   26.5403   41.9509 N.2       4 LYS4        0.0000 
@<TRIPOS>BOND
@<TRIPOS>SUBSTRUCTURE
     1 SER1       57 GROUP   
     2 ALA2       16 GROUP   
     3 ASP3       22 GROUP   
     4 LYS4        1 GROUP   
     5 PHE5       59 GROUP   
     6 GLY6        4 GROUP   
     7 CUB7       10 GROUP   
@<TRIPOS>SET

