#    Name: 3h9j_APC_3_INTS_M
#    Modification time : Tue Mar 25 13:47:02 2014

@<TRIPOS>MOLECULE
3h9j_APC_3_INTS_M
   78     0    12     0     0
SMALL
NO_CHARGES


@<TRIPOS>ATOM
      1 NZ         25.4845   22.6005   48.5625 N.4       3 LYC4        0.0000 
      2 NZ         25.3540   23.6280   49.4720 N.4      11 LYL4        0.0000 
      3 NZ         25.0500   20.4350   48.0280 N.4       7 LYP4        0.0000 
      4 N          24.9235   21.9925   49.3555 N.am      2 SEC2        0.0000 
      5 N          25.3540   23.6280   49.4720 N.am     10 SEL2        0.0000 
      6 N          24.4930   20.3570   49.2390 N.am      6 SEP2        0.0000 
      7 N          25.4845   22.6005   48.5625 N.am      2 SEC2        0.0000 
      8 N          25.6150   21.5730   47.6530 N.am      6 SEP2        0.0000 
      9 N          23.8570   24.4215   49.7915 N.am      2 SEC2        0.0000 
     10 N          22.3600   25.2150   50.1110 N.am      6 SEP2        0.0000 
     11 N          27.5115   24.2235   50.5225 N.am      2 SEC2        0.0000 
     12 N          27.2200   25.3260   49.7000 N.am     10 SEL2        0.0000 
     13 N          27.8030   23.1210   51.3450 N.am      6 SEP2        0.0000 
     14 NZ         24.2955   27.5740   48.3075 N.4       3 LYC4        0.0000 
     15 NZ         24.8920   26.0920   49.0470 N.4      11 LYL4        0.0000 
     16 NZ         23.6990   29.0560   47.5680 N.4       7 LYP4        0.0000 
     17 NZ         24.0365   26.5750   50.1380 N.4       3 LYC4        0.0000 
     18 NZ         22.1650   26.2610   50.9140 N.4       7 LYP4        0.0000 
     19 N          23.6260   25.6535   49.5790 N.am      2 SEC2        0.0000 
     20 N          24.8920   26.0920   49.0470 N.am     10 SEL2        0.0000 
     21 N          24.0365   26.5750   50.1380 N.am      2 SEC2        0.0000 
     22 N          23.1810   27.0580   51.2290 N.am      6 SEP2        0.0000 
     23 NZ         29.8585   23.5565   47.9220 N.4       3 LYC4        0.0000 
     24 NZ         28.3780   23.4150   47.5160 N.4      11 LYL4        0.0000 
     25 NZ         31.3390   23.6980   48.3280 N.4       7 LYP4        0.0000 
     26 N          28.4585   21.9855   48.0145 N.am      2 SEC2        0.0000 
     27 N          28.3780   23.4150   47.5160 N.am     10 SEL2        0.0000 
     28 N          28.5390   20.5560   48.5130 N.am      6 SEP2        0.0000 
     29 N          29.8585   23.5565   47.9220 N.am      2 SEC2        0.0000 
     30 N          31.3390   23.6980   48.3280 N.am      6 SEP2        0.0000 
     31 N          25.9260   23.2070   47.5425 N.am      2 SEC2        0.0000 
     32 N          26.2370   24.8410   47.4320 N.am     10 SEL2        0.0000 
     33 NZ         26.6725   21.3730   46.6170 N.4       3 LYC4        0.0000 
     34 NZ         27.7300   21.1730   45.5810 N.4      11 LYL4        0.0000 
     35 N          28.5950   19.8925   45.5400 N.am      2 SEC2        0.0000 
     36 N          27.7300   21.1730   45.5810 N.am     10 SEL2        0.0000 
     37 N          29.4600   18.6120   45.4990 N.am      6 SEP2        0.0000 
     38 N          26.6725   21.3730   46.6170 N.am      2 SEC2        0.0000 
     39 CA         33.0605   22.8195   42.4975 C.3       4 GLC5        0.0000 
     40 CA         31.4030   23.6290   43.6310 C.3      12 GLL5        0.0000 
     41 CA         34.7180   22.0100   41.3640 C.3       8 GLP5        0.0000 
     42 N          31.9290   23.7400   47.0405 N.am      2 SEC2        0.0000 
     43 N          32.5190   23.7820   45.7530 N.am     10 SEL2        0.0000 
     44 O          33.7430   23.6780   45.3415 O.2       1 ALC1        0.0000 
     45 O          32.5190   23.7820   45.7530 O.2       9 ALL1        0.0000 
     46 O          34.9670   23.5740   44.9300 O.2       5 ALP1        0.0000 
     47 CA         32.9135   26.4205   46.3905 C.3       4 GLC5        0.0000 
     48 CA         32.1210   25.8050   44.4120 C.3      12 GLL5        0.0000 
     49 CA         33.7060   27.0360   48.3690 C.3       8 GLP5        0.0000 
     50 O          34.2415   25.9535   45.6265 O.2       1 ALC1        0.0000 
     51 O          33.0470   26.4510   45.2990 O.2       9 ALL1        0.0000 
     52 O          35.4360   25.4560   45.9540 O.2       5 ALP1        0.0000 
     53 O          34.0070   25.0125   45.1145 O.2       1 ALC1        0.0000 
     54 CA         33.7620   23.7220   42.2365 C.3       4 GLC5        0.0000 
     55 CA         32.8060   25.4340   43.1090 C.3      12 GLL5        0.0000 
     56 CA         32.9260   25.2555   41.0025 C.3       4 GLC5        0.0000 
     57 CA         33.0460   25.0770   38.8960 C.3       8 GLP5        0.0000 
     58 CA         36.3150   29.6710   40.9050 C.3       4 GLC5        0.0000 
     59 CA         34.5180   28.7990   40.0750 C.3      12 GLL5        0.0000 
     60 CA         38.1120   30.5430   41.7350 C.3       8 GLP5        0.0000 
     61 CA         35.8375   29.4125   38.5170 C.3       4 GLC5        0.0000 
     62 CA         37.1570   30.0260   36.9590 C.3       8 GLP5        0.0000 
     63 O          34.7700   30.9735   38.5910 O.2       1 ALC1        0.0000 
     64 O          34.1640   29.8120   39.2340 O.2       9 ALL1        0.0000 
     65 O          35.3760   32.1350   37.9480 O.2       5 ALP1        0.0000 
     66 O          32.8785   29.9985   38.7790 O.2       1 ALC1        0.0000 
     67 O          31.5930   30.1850   38.3240 O.2       5 ALP1        0.0000 
     68 N          36.6965   29.4985   39.8160 N.am      2 SEC2        0.0000 
     69 N          35.8190   28.4630   40.2520 N.am     10 SEL2        0.0000 
     70 N          37.5740   30.5340   39.3800 N.am      6 SEP2        0.0000 
     71 CA         37.1425   29.0025   41.4135 C.3       4 GLC5        0.0000 
     72 CA         36.1730   27.4620   41.0920 C.3      12 GLL5        0.0000 
     73 CA         37.0335   28.0785   39.1375 C.3       4 GLC5        0.0000 
     74 CA         37.8940   28.6950   37.1830 C.3       8 GLP5        0.0000 
     75 CA         31.1475   22.1476   44.9580 C.3       4 GLC5        0.0000 
     76 CA         31.1670   20.3010   45.7390 C.3       8 GLP5        0.0000 
     77 CA         33.5130   26.4179   39.9581 C.3       4 GLC5        0.0000 
     78 CA         33.5420   28.0900   40.7640 C.3      12 GLL5        0.0000 
@<TRIPOS>BOND
@<TRIPOS>SUBSTRUCTURE
     1 ALC1       44 GROUP        1 X    ALC  0     ROOT ALC X 1
     2 SEC2        4 GROUP        1 X    SEC  0     **** SEC X 2
     3 LYC4        1 GROUP        1 X    LYC  0     **** LYC X 4
     4 GLC5       39 GROUP        1 X    GLC  0     **** GLC X 6
     5 ALP1       46 GROUP        1 Y    ALP  0     ROOT ALP Y 8
     6 SEP2        6 GROUP        1 Y    SEP  0     **** SEP Y 9
     7 LYP4        3 GROUP        1 Y    LYP  0     **** LYP Y 11
     8 GLP5       41 GROUP        1 Y    GLP  0     **** GLP Y 13
     9 ALL1       45 GROUP        1 Z    ALL  0     ROOT ALL Z 15
    10 SEL2        5 GROUP        1 Z    SEL  0     **** SEL Z 16
    11 LYL4        2 GROUP        1 Z    LYL  0     **** LYL Z 18
    12 GLL5       40 GROUP        1 Z    GLL  0     **** GLL Z 20
@<TRIPOS>SET

