#    Name: 3h9j_APC_3_ligand
#    Modification time : Tue Mar 25 13:47:02 2014

@<TRIPOS>MOLECULE
3h9j_APC_3_ligand
   45    47     1     0     0
SMALL
NO_CHARGES


@<TRIPOS>ATOM
      1 PG         25.9100   24.9720   49.0260 P.3       1 APC359      0.0000 
      2 O1G        25.3540   23.6280   49.4720 O.co2     1 APC359      0.0000 
      3 O2G        27.2200   25.3260   49.7000 O.co2     1 APC359      0.0000 
      4 O3G        24.8920   26.0920   49.0470 O.co2     1 APC359      0.0000 
      5 PB         27.6500   24.4720   46.7030 P.3       1 APC359      0.0000 
      6 O1B        28.3780   23.4150   47.5160 O.co2     1 APC359      0.0000 
      7 O2B        28.3640   25.7720   46.4220 O.co2     1 APC359      0.0000 
      8 O3B        26.2370   24.8410   47.4320 O.3       1 APC359      0.0000 
      9 PA         27.8650   22.2280   44.5060 P.3       1 APC359      0.0000 
     10 O1A        27.2330   21.8960   43.1760 O.co2     1 APC359      0.0000 
     11 O2A        27.7300   21.1730   45.5810 O.co2     1 APC359      0.0000 
     12 C3A        27.1840   23.8330   45.0600 C.3       1 APC359      0.0000 
     13 O5'        29.4270   22.4440   44.1830 O.3       1 APC359      0.0000 
     14 C5'        29.9270   23.4320   43.2830 C.3       1 APC359      0.0000 
     15 C4'        31.4030   23.6290   43.6310 C.3       1 APC359      0.0000 
     16 O4'        32.0950   24.3090   42.5790 O.3       1 APC359      0.0000 
     17 C3'        31.5910   24.4580   44.8970 C.3       1 APC359      0.0000 
     18 O3'        32.5190   23.7820   45.7530 O.3       1 APC359      0.0000 
     19 C2'        32.1210   25.8050   44.4120 C.3       1 APC359      0.0000 
     20 O2'        33.0470   26.4510   45.2990 O.3       1 APC359      0.0000 
     21 C1'        32.8060   25.4340   43.1090 C.3       1 APC359      0.0000 
     22 N9         32.8160   26.5650   42.1520 N.pl3     1 APC359      0.0000 
     23 C8         31.7530   27.2180   41.6590 C.2       1 APC359      0.0000 
     24 N7         32.1930   28.1660   40.8030 N.2       1 APC359      0.0000 
     25 C5         33.5420   28.0900   40.7640 C.ar      1 APC359      0.0000 
     26 C6         34.5180   28.7990   40.0750 C.ar      1 APC359      0.0000 
     27 N6         34.1640   29.8120   39.2340 N.pl3     1 APC359      0.0000 
     28 N1         35.8190   28.4630   40.2520 N.ar      1 APC359      0.0000 
     29 C2         36.1730   27.4620   41.0920 C.ar      1 APC359      0.0000 
     30 N3         35.2480   26.7590   41.7700 N.ar      1 APC359      0.0000 
     31 C4         33.9300   27.0730   41.6210 C.ar      1 APC359      0.0000 
     32 H          27.5106   24.5576   44.3493 H         1 APC359      0.0000 
     33 H          26.1237   23.7210   45.0680 H         1 APC359      0.0000 
     34 H          29.4252   24.3844   43.4017 H         1 APC359      0.0000 
     35 H          29.8665   23.1120   42.2501 H         1 APC359      0.0000 
     36 H          31.8496   22.6556   43.8065 H         1 APC359      0.0000 
     37 H          30.6383   24.6014   45.3404 H         1 APC359      0.0000 
     38 H          31.2772   26.4188   44.1582 H         1 APC359      0.0000 
     39 H          33.8252   25.1474   43.3491 H         1 APC359      0.0000 
     40 H          30.8268   27.0439   41.8760 H         1 APC359      0.0000 
     41 H          33.1832   29.9812   39.1374 H         1 APC359      0.0000 
     42 H          34.9163   30.2966   38.7878 H         1 APC359      0.0000 
     43 H          37.1911   27.2327   41.2141 H         1 APC359      0.0000 
     44 H          33.2021   23.3909   45.1363 H         1 APC359      0.0000 
     45 H          33.8350   25.8369   45.3423 H         1 APC359      0.0000 
@<TRIPOS>BOND
     1    2    1 ar   
     2    3    1 ar   
     3    4    1 ar   
     4    8    1 1    
     5    6    5 ar   
     6    7    5 ar   
     7    8    5 1    
     8   12    5 1    
     9   10    9 ar   
    10   11    9 ar   
    11   12    9 1    
    12   13    9 1    
    13   32   12 1    
    14   33   12 1    
    15   14   13 1    
    16   15   14 1    
    17   34   14 1    
    18   35   14 1    
    19   16   15 1    
    20   17   15 1    
    21   36   15 1    
    22   21   16 1    
    23   18   17 1    
    24   19   17 1    
    25   37   17 1    
    26   44   18 1    
    27   20   19 1    
    28   21   19 1    
    29   38   19 1    
    30   45   20 1    
    31   22   21 1    
    32   39   21 1    
    33   23   22 1    
    34   31   22 1    
    35   24   23 2    
    36   40   23 1    
    37   25   24 1    
    38   26   25 ar   
    39   31   25 ar   
    40   27   26 1    
    41   28   26 ar   
    42   41   27 1    
    43   42   27 1    
    44   29   28 ar   
    45   30   29 ar   
    46   43   29 1    
    47   31   30 ar   
@<TRIPOS>SUBSTRUCTURE
     1 APC359      1 GROUP   
@<TRIPOS>SET

