#    Name: 4b46_GDP_1_INTS_M
#    Modification time : Tue Mar 25 06:37:49 2014

@<TRIPOS>MOLECULE
4b46_GDP_1_INTS_M
   56     0     9     0     0
SMALL
NO_CHARGES


@<TRIPOS>ATOM
      1 N          -3.2815   -2.9255   19.0775 N.am      2 SEC2        0.0000 
      2 N          -3.5480   -2.6280   17.6340 N.am      8 SEL2        0.0000 
      3 N          -3.0150   -3.2230   20.5210 N.am      5 SEP2        0.0000 
      4 N          -4.4680   -2.1475   18.6860 N.am      2 SEC2        0.0000 
      5 N          -5.3880   -1.6670   19.7380 N.am      5 SEP2        0.0000 
      6 N          -5.5070   -3.7755   14.4975 N.am      2 SEC2        0.0000 
      7 N          -4.6770   -3.1770   15.4670 N.am      8 SEL2        0.0000 
      8 N          -6.3370   -4.3740   13.5280 N.am      5 SEP2        0.0000 
      9 N          -6.4355   -3.8905   18.3520 N.am      2 SEC2        0.0000 
     10 N          -5.3450   -4.2710   17.6080 N.am      8 SEL2        0.0000 
     11 N          -7.5260   -3.5100   19.0960 N.am      5 SEP2        0.0000 
     12 N          -5.1415   -6.7785   14.0280 N.am      2 SEC2        0.0000 
     13 N          -4.4440   -6.4030   15.1710 N.am      8 SEL2        0.0000 
     14 N          -5.8390   -7.1540   12.8850 N.am      5 SEP2        0.0000 
     15 N          -2.0660   -4.9080   12.7510 N.am      2 SEC2        0.0000 
     16 N          -2.3760   -5.3720   14.2210 N.am      8 SEL2        0.0000 
     17 N          -1.7560   -4.4440   11.2810 N.am      5 SEP2        0.0000 
     18 CA         -2.2730   -6.5060   18.8035 C.3       3 GLC5        0.0000 
     19 CA         -2.6110   -7.6210   17.3470 C.3       9 GLL5        0.0000 
     20 CA         -1.9350   -5.3910   20.2600 C.3       6 GLP5        0.0000 
     21 CA         -1.9320   -9.0110   19.5085 C.3       3 GLC5        0.0000 
     22 CA         -2.1830   -9.0760   17.3950 C.3       9 GLL5        0.0000 
     23 CA         -1.6810   -8.9460   21.6220 C.3       6 GLP5        0.0000 
     24 O           1.2180   -9.7670   18.0605 O.2       1 ALC1        0.0000 
     25 O           0.0580   -9.1470   18.1820 O.2       7 ALL1        0.0000 
     26 O           2.3780  -10.3870   17.9390 O.2       4 ALP1        0.0000 
     27 O           0.5720  -12.0575   17.5460 O.2       1 ALC1        0.0000 
     28 O          -0.6080  -11.6440   17.4170 O.2       7 ALL1        0.0000 
     29 O           1.7520  -12.4710   17.6750 O.2       4 ALP1        0.0000 
     30 CA         -3.7435  -10.0885   14.8770 C.3       3 GLC5        0.0000 
     31 CA         -2.0440  -10.8370   15.8190 C.3       9 GLL5        0.0000 
     32 CA         -5.4430   -9.3400   13.9350 C.3       6 GLP5        0.0000 
     33 CA         -1.9555  -11.8830   10.6340 C.3       3 GLC5        0.0000 
     34 CA         -2.8910  -10.7750   12.2650 C.3       9 GLL5        0.0000 
     35 CA         -1.0200  -12.9910    9.0030 C.3       6 GLP5        0.0000 
     36 N          -3.1185  -10.2090    8.9085 N.am      2 SEC2        0.0000 
     37 N          -3.6500  -11.0630   10.0150 N.am      8 SEL2        0.0000 
     38 N          -2.5870   -9.3550    7.8020 N.am      5 SEP2        0.0000 
     39 N          -4.5875  -11.9605    9.1305 N.am      2 SEC2        0.0000 
     40 N          -5.5250  -12.8580    8.2460 N.am      5 SEP2        0.0000 
     41 O          -4.7845  -13.5275   10.7220 O.2       1 ALC1        0.0000 
     42 O          -4.0220  -12.7490   11.4790 O.2       7 ALL1        0.0000 
     43 O          -5.5470  -14.3060    9.9650 O.2       4 ALP1        0.0000 
     44 O          -3.6695  -15.4575   13.9985 O.2       1 ALC1        0.0000 
     45 O          -4.4310  -14.5400   12.9020 O.2       7 ALL1        0.0000 
     46 O          -2.9080  -16.3750   15.0950 O.2       4 ALP1        0.0000 
     47 O          -4.9890  -14.4230   11.4335 O.2       1 ALC1        0.0000 
     48 N          -2.5615  -13.5780   14.6650 N.am      2 SEC2        0.0000 
     49 N          -3.3550  -12.6610   13.7480 N.am      8 SEL2        0.0000 
     50 N          -1.7680  -14.4950   15.5820 N.am      5 SEP2        0.0000 
     51 CA         -4.2475   -9.2073   17.7515 C.3       3 GLC5        0.0000 
     52 CA         -6.0980  -10.0660   18.1320 C.3       6 GLP5        0.0000 
     53 CA         -0.2693  -11.3595   14.4315 C.3       3 GLC5        0.0000 
     54 CA          0.8200  -11.9760   12.7570 C.3       6 GLP5        0.0000 
     55 CA         -4.1537  -10.2203   13.4285 C.3       3 GLC5        0.0000 
     56 CA         -2.8380  -11.4260   13.5790 C.3       9 GLL5        0.0000 
@<TRIPOS>BOND
@<TRIPOS>SUBSTRUCTURE
     1 ALC1       24 GROUP        1 X    ALC  0     ROOT ALC X 1
     2 SEC2        1 GROUP        1 X    SEC  0     **** SEC X 2
     3 GLC5       18 GROUP        1 X    GLC  0     **** GLC X 6
     4 ALP1       26 GROUP        1 Y    ALP  0     ROOT ALP Y 8
     5 SEP2        3 GROUP        1 Y    SEP  0     **** SEP Y 9
     6 GLP5       20 GROUP        1 Y    GLP  0     **** GLP Y 13
     7 ALL1       25 GROUP        1 Z    ALL  0     ROOT ALL Z 15
     8 SEL2        2 GROUP        1 Z    SEL  0     **** SEL Z 16
     9 GLL5       19 GROUP        1 Z    GLL  0     **** GLL Z 20
@<TRIPOS>SET

