#    Name: 4b46_GDP_1_ligand
#    Modification time : Tue Mar 25 06:37:49 2014

@<TRIPOS>MOLECULE
4b46_GDP_1_ligand
   40    42     1     0     0
SMALL
NO_CHARGES


@<TRIPOS>ATOM
      1 PB         -4.2060   -3.6950   16.8070 P.3       1 GDP1368     0.0000 
      2 O1B        -3.5480   -2.6280   17.6340 O.co2     1 GDP1368     0.0000 
      3 O2B        -4.6770   -3.1770   15.4670 O.co2     1 GDP1368     0.0000 
      4 O3B        -5.3450   -4.2710   17.6080 O.co2     1 GDP1368     0.0000 
      5 O3A        -3.0560   -4.7860   16.5950 O.3       1 GDP1368     0.0000 
      6 PA         -3.0680   -5.8990   15.4470 P.3       1 GDP1368     0.0000 
      7 O1A        -4.4440   -6.4030   15.1710 O.co2     1 GDP1368     0.0000 
      8 O2A        -2.3760   -5.3720   14.2210 O.co2     1 GDP1368     0.0000 
      9 O5'        -2.1420   -7.0300   16.1330 O.3       1 GDP1368     0.0000 
     10 C5'        -2.6110   -7.6210   17.3470 C.3       1 GDP1368     0.0000 
     11 C4'        -2.1830   -9.0760   17.3950 C.3       1 GDP1368     0.0000 
     12 O4'        -2.8810   -9.8170   16.4090 O.3       1 GDP1368     0.0000 
     13 C3'        -0.7290   -9.2570   17.0040 C.3       1 GDP1368     0.0000 
     14 O3'         0.0580   -9.1470   18.1820 O.3       1 GDP1368     0.0000 
     15 C2'        -0.6730  -10.6490   16.3930 C.3       1 GDP1368     0.0000 
     16 O2'        -0.6080  -11.6440   17.4170 O.3       1 GDP1368     0.0000 
     17 C1'        -2.0440  -10.8370   15.8190 C.3       1 GDP1368     0.0000 
     18 N9         -2.2120  -10.5810   14.3820 N.pl3     1 GDP1368     0.0000 
     19 C8         -1.9080   -9.4540   13.7060 C.2       1 GDP1368     0.0000 
     20 N7         -2.2950   -9.5650   12.4070 N.2       1 GDP1368     0.0000 
     21 C5         -2.8910  -10.7750   12.2650 C.2       1 GDP1368     0.0000 
     22 C6         -3.5480  -11.5330   11.1790 C.2       1 GDP1368     0.0000 
     23 O6         -3.6500  -11.0630   10.0150 O.2       1 GDP1368     0.0000 
     24 N1         -4.0220  -12.7490   11.4790 N.am      1 GDP1368     0.0000 
     25 C2         -3.9320  -13.2970   12.7040 C.2       1 GDP1368     0.0000 
     26 N2         -4.4310  -14.5400   12.9020 N.pl3     1 GDP1368     0.0000 
     27 N3         -3.3550  -12.6610   13.7480 N.2       1 GDP1368     0.0000 
     28 C4         -2.8380  -11.4260   13.5790 C.2       1 GDP1368     0.0000 
     29 H          -3.7034   -7.5857   17.4175 H         1 GDP1368     0.0000 
     30 H          -2.1987   -7.1164   18.2273 H         1 GDP1368     0.0000 
     31 H          -2.3315   -9.4782   18.3625 H         1 GDP1368     0.0000 
     32 H          -0.4938   -8.5412   16.2640 H         1 GDP1368     0.0000 
     33 H           0.0344  -10.7198   15.6689 H         1 GDP1368     0.0000 
     34 H          -2.4383  -11.7930   16.0797 H         1 GDP1368     0.0000 
     35 H          -1.4731   -8.6688   14.0883 H         1 GDP1368     0.0000 
     36 H          -4.4962  -13.3146   10.7077 H         1 GDP1368     0.0000 
     37 H          -3.9904  -15.0822   13.6175 H         1 GDP1368     0.0000 
     38 H          -5.1959  -14.8057   12.3152 H         1 GDP1368     0.0000 
     39 H           0.6396   -9.9605   18.1815 H         1 GDP1368     0.0000 
     40 H           0.1453  -12.2439   17.1474 H         1 GDP1368     0.0000 
@<TRIPOS>BOND
     1    2    1 ar   
     2    3    1 ar   
     3    4    1 ar   
     4    5    1 1    
     5    6    5 1    
     6    7    6 ar   
     7    8    6 ar   
     8    9    6 1    
     9   10    9 1    
    10   11   10 1    
    11   29   10 1    
    12   30   10 1    
    13   12   11 1    
    14   13   11 1    
    15   31   11 1    
    16   17   12 1    
    17   14   13 1    
    18   15   13 1    
    19   32   13 1    
    20   39   14 1    
    21   16   15 1    
    22   17   15 1    
    23   33   15 1    
    24   40   16 1    
    25   18   17 1    
    26   34   17 1    
    27   19   18 1    
    28   28   18 1    
    29   20   19 2    
    30   35   19 1    
    31   21   20 1    
    32   22   21 1    
    33   28   21 2    
    34   23   22 2    
    35   24   22 am   
    36   25   24 1    
    37   36   24 1    
    38   26   25 1    
    39   27   25 2    
    40   37   26 1    
    41   38   26 1    
    42   28   27 1    
@<TRIPOS>SUBSTRUCTURE
     1 GDP1368     1 GROUP   
@<TRIPOS>SET

