#    Name: 4ag7_COA_2_INTS_M
#    Modification time : Tue Mar 25 05:32:59 2014

@<TRIPOS>MOLECULE
4ag7_COA_2_INTS_M
   91     0    12     0     0
SMALL
NO_CHARGES


@<TRIPOS>ATOM
      1 CA        -30.1235   78.7930  -24.0775 C.3       4 GLC5        0.0000 
      2 CA        -29.1500   80.4660  -24.4450 C.3      12 GLL5        0.0000 
      3 CA        -31.0970   77.1200  -23.7100 C.3       8 GLP5        0.0000 
      4 CA        -25.9940   78.2260  -23.9950 C.3       4 GLC5        0.0000 
      5 CA        -26.8850   79.9410  -25.0010 C.3      12 GLL5        0.0000 
      6 CA        -25.1030   76.5110  -22.9890 C.3       8 GLP5        0.0000 
      7 CA        -25.2990   81.9750  -25.7550 C.3       4 GLC5        0.0000 
      8 CA        -26.4260   80.9550  -24.2880 C.3      12 GLL5        0.0000 
      9 CA        -24.1720   82.9950  -27.2220 C.3       8 GLP5        0.0000 
     10 CA        -25.9535   76.7890  -25.1010 C.3       4 GLC5        0.0000 
     11 CA        -26.0950   78.1400  -26.3890 C.3      12 GLL5        0.0000 
     12 CA        -25.8120   75.4380  -23.8130 C.3       8 GLP5        0.0000 
     13 NZ        -23.7505   78.1755  -31.9345 N.4       3 LYC4        0.0000 
     14 NZ        -24.9660   78.8620  -32.0910 N.4      11 LYL4        0.0000 
     15 NZ        -22.5350   77.4890  -31.7780 N.4       7 LYP4        0.0000 
     16 N         -23.7505   78.1755  -31.9345 N.am      2 SEC2        0.0000 
     17 N         -24.9660   78.8620  -32.0910 N.am     10 SEL2        0.0000 
     18 N         -22.5350   77.4890  -31.7780 N.am      6 SEP2        0.0000 
     19 NZ        -25.9550   81.3250  -29.6325 N.4       3 LYC4        0.0000 
     20 NZ        -24.7120   80.7630  -30.3290 N.4      11 LYL4        0.0000 
     21 NZ        -26.4360   82.4740  -28.0440 N.4       7 LYP4        0.0000 
     22 N         -24.9185   81.5845  -29.2485 N.am      2 SEC2        0.0000 
     23 N         -24.7120   80.7630  -30.3290 N.am     10 SEL2        0.0000 
     24 N         -25.1250   82.4060  -28.1680 N.am      6 SEP2        0.0000 
     25 N         -25.9550   81.3250  -29.6325 N.am      2 SEC2        0.0000 
     26 N         -27.1980   81.8870  -28.9360 N.am      6 SEP2        0.0000 
     27 NZ        -27.0500   80.8725  -29.8315 N.4       3 LYC4        0.0000 
     28 NZ        -26.9020   79.8580  -30.7270 N.4      11 LYL4        0.0000 
     29 N         -27.0500   80.8725  -29.8315 N.am      2 SEC2        0.0000 
     30 N         -26.9020   79.8580  -30.7270 N.am     10 SEL2        0.0000 
     31 CA        -21.0810   76.1470  -27.7560 C.3       4 GLC5        0.0000 
     32 CA        -22.9070   77.4310  -27.8060 C.3      12 GLL5        0.0000 
     33 CA        -19.2550   74.8630  -27.7060 C.3       8 GLP5        0.0000 
     34 N         -19.6700   80.1155  -28.9860 N.am      2 SEC2        0.0000 
     35 N         -20.8110   80.1590  -28.1720 N.am     10 SEL2        0.0000 
     36 N         -18.5290   80.0720  -29.8000 N.am      6 SEP2        0.0000 
     37 N         -19.2660   77.0130  -26.4775 N.am      2 SEC2        0.0000 
     38 N         -20.1730   77.9250  -27.1180 N.am     10 SEL2        0.0000 
     39 N         -18.3590   76.1010  -25.8370 N.am      6 SEP2        0.0000 
     40 N         -20.7800   82.8860  -26.3505 N.am      2 SEC2        0.0000 
     41 N         -20.8620   82.1590  -25.0850 N.am     10 SEL2        0.0000 
     42 N         -20.6980   83.6130  -27.6160 N.am      6 SEP2        0.0000 
     43 N         -17.9350   79.6195  -25.5000 N.am      2 SEC2        0.0000 
     44 N         -18.7560   80.7060  -25.6430 N.am     10 SEL2        0.0000 
     45 N         -17.1140   78.5330  -25.3570 N.am      6 SEP2        0.0000 
     46 CA        -21.3270   78.2140  -23.2885 C.3       4 GLC5        0.0000 
     47 CA        -21.2310   80.1210  -22.6610 C.3      12 GLL5        0.0000 
     48 CA        -21.4230   76.3070  -23.9160 C.3       8 GLP5        0.0000 
     49 CA        -23.5765   79.8145  -19.3505 C.3       4 GLC5        0.0000 
     50 CA        -22.2400   80.1330  -20.4180 C.3      12 GLL5        0.0000 
     51 CA        -24.9130   79.4960  -18.2830 C.3       8 GLP5        0.0000 
     52 CA        -22.6275   78.0940  -21.0145 C.3       4 GLC5        0.0000 
     53 CA        -23.0150   76.0550  -21.6110 C.3       8 GLP5        0.0000 
     54 CA        -18.7400   78.4565  -19.7510 C.3       4 GLC5        0.0000 
     55 CA        -19.7560   79.9370  -20.6210 C.3      12 GLL5        0.0000 
     56 CA        -17.7240   76.9760  -18.8810 C.3       8 GLP5        0.0000 
     57 CA        -18.1175   80.6610  -19.3175 C.3       4 GLC5        0.0000 
     58 CA        -16.4790   81.3850  -18.0140 C.3       8 GLP5        0.0000 
     59 CA        -18.1285   80.5115  -21.6730 C.3       4 GLC5        0.0000 
     60 CA        -16.5010   81.0860  -22.7250 C.3       8 GLP5        0.0000 
     61 CA        -18.8940   82.3095  -21.8430 C.3       4 GLC5        0.0000 
     62 CA        -20.9760   82.0680  -21.1410 C.3      12 GLL5        0.0000 
     63 CA        -16.8120   82.5510  -22.5450 C.3       8 GLP5        0.0000 
     64 CA        -20.8735   83.8335  -21.8245 C.3       4 GLC5        0.0000 
     65 CA        -20.7710   85.5990  -22.5080 C.3       8 GLP5        0.0000 
     66 N         -17.9075   82.5805  -19.8245 N.am      2 SEC2        0.0000 
     67 N         -19.2670   82.5920  -19.5680 N.am     10 SEL2        0.0000 
     68 N         -16.5480   82.5690  -20.0810 N.am      6 SEP2        0.0000 
     69 CA        -19.5750   81.9400  -14.9465 C.3       4 GLC5        0.0000 
     70 CA        -20.3990   82.3480  -16.6340 C.3      12 GLL5        0.0000 
     71 CA        -18.7510   81.5320  -13.2590 C.3       8 GLP5        0.0000 
     72 CA        -18.4345   83.0350  -16.8510 C.3       4 GLC5        0.0000 
     73 CA        -16.4700   83.7220  -17.0680 C.3       8 GLP5        0.0000 
     74 O         -19.4495   79.8905  -16.3695 O.2       1 ALC1        0.0000 
     75 O         -20.8120   80.0840  -16.1440 O.2       9 ALL1        0.0000 
     76 O         -18.0870   79.6970  -16.5950 O.2       5 ALP1        0.0000 
     77 CA        -21.0680   74.4650  -16.6115 C.3       4 GLC5        0.0000 
     78 CA        -21.6290   76.4520  -17.0190 C.3      12 GLL5        0.0000 
     79 CA        -20.5070   72.4780  -16.2040 C.3       8 GLP5        0.0000 
     80 CA        -22.8525   76.4475  -16.8470 C.3       4 GLC5        0.0000 
     81 CA        -24.0760   76.4430  -16.6750 C.3       8 GLP5        0.0000 
     82 CA        -26.5240   80.6795  -22.1890 C.3       4 GLC5        0.0000 
     83 CA        -26.1820   80.0100  -20.4050 C.3       8 GLP5        0.0000 
     84 CA        -23.2362   76.9002  -25.9075 C.3       4 GLC5        0.0000 
     85 CA        -24.4320   77.2700  -27.8000 C.3      12 GLL5        0.0000 
     86 CA        -22.8030   76.4500  -24.0120 C.3       8 GLP5        0.0000 
     87 CA        -22.8830   77.5067  -16.5203 C.3       4 GLC5        0.0000 
     88 CA        -21.8210   78.2450  -17.0370 C.3      12 GLL5        0.0000 
     89 CA        -23.3015   79.0332  -17.3242 C.3       4 GLC5        0.0000 
     90 CA        -19.7565   77.0973  -17.2080 C.3       4 GLC5        0.0000 
     91 CA        -17.7880   76.8460  -17.3880 C.3       8 GLP5        0.0000 
@<TRIPOS>BOND
@<TRIPOS>SUBSTRUCTURE
     1 ALC1       74 GROUP        1 X    ALC  0     ROOT ALC X 1
     2 SEC2       16 GROUP        1 X    SEC  0     **** SEC X 2
     3 LYC4       13 GROUP        1 X    LYC  0     **** LYC X 4
     4 GLC5        1 GROUP        1 X    GLC  0     **** GLC X 6
     5 ALP1       76 GROUP        1 Y    ALP  0     ROOT ALP Y 8
     6 SEP2       18 GROUP        1 Y    SEP  0     **** SEP Y 9
     7 LYP4       15 GROUP        1 Y    LYP  0     **** LYP Y 11
     8 GLP5        3 GROUP        1 Y    GLP  0     **** GLP Y 13
     9 ALL1       75 GROUP        1 Z    ALL  0     ROOT ALL Z 15
    10 SEL2       17 GROUP        1 Z    SEL  0     **** SEL Z 16
    11 LYL4       14 GROUP        1 Z    LYL  0     **** LYL Z 18
    12 GLL5        2 GROUP        1 Z    GLL  0     **** GLL Z 20
@<TRIPOS>SET

