#    Name: 4ag7_COA_2_ligand
#    Modification time : Tue Mar 25 05:32:59 2014

@<TRIPOS>MOLECULE
4ag7_COA_2_ligand
   79    81     1     0     0
SMALL
NO_CHARGES


@<TRIPOS>ATOM
      1 N1A       -28.6330   81.5260  -23.6980 N.ar      1 COA1166     0.0000 
      2 C2A       -29.1500   80.4660  -24.4450 C.ar      1 COA1166     0.0000 
      3 N3A       -28.2410   79.6860  -25.1030 N.ar      1 COA1166     0.0000 
      4 C4A       -26.8850   79.9410  -25.0010 C.ar      1 COA1166     0.0000 
      5 C5A       -26.4260   80.9550  -24.2880 C.ar      1 COA1166     0.0000 
      6 C6A       -27.3060   81.7430  -23.6580 C.ar      1 COA1166     0.0000 
      7 N6A       -26.8210   82.7500  -22.9200 N.pl3     1 COA1166     0.0000 
      8 N7A       -25.0750   80.9600  -24.3940 N.2       1 COA1166     0.0000 
      9 C8A       -24.7270   79.9490  -25.1480 C.2       1 COA1166     0.0000 
     10 N9A       -25.8390   79.3050  -25.5550 N.pl3     1 COA1166     0.0000 
     11 C1B       -26.0950   78.1400  -26.3890 C.3       1 COA1166     0.0000 
     12 C2B       -26.4530   78.4920  -27.8070 C.3       1 COA1166     0.0000 
     13 O2B       -27.2500   77.4200  -28.3300 O.3       1 COA1166     0.0000 
     14 C3B       -25.1030   78.4610  -28.4560 C.3       1 COA1166     0.0000 
     15 O3B       -25.2160   78.1720  -29.8430 O.3       1 COA1166     0.0000 
     16 P3B       -25.5460   79.5580  -30.8990 P.3       1 COA1166     0.0000 
     17 O7A       -24.9660   78.8620  -32.0910 O.co2     1 COA1166     0.0000 
     18 O8A       -24.7120   80.7630  -30.3290 O.co2     1 COA1166     0.0000 
     19 O9A       -26.9020   79.8580  -30.7270 O.co2     1 COA1166     0.0000 
     20 C4B       -24.4320   77.2700  -27.8000 C.3       1 COA1166     0.0000 
     21 O4B       -24.9140   77.3040  -26.4560 O.3       1 COA1166     0.0000 
     22 C5B       -22.9070   77.4310  -27.8060 C.3       1 COA1166     0.0000 
     23 O5B       -22.5600   78.6930  -27.1620 O.3       1 COA1166     0.0000 
     24 P1A       -21.0540   79.0900  -27.0310 P.3       1 COA1166     0.0000 
     25 O1A       -20.8110   80.1590  -28.1720 O.co2     1 COA1166     0.0000 
     26 O2A       -20.1730   77.9250  -27.1180 O.co2     1 COA1166     0.0000 
     27 O3A       -21.0680   79.7550  -25.7310 O.3       1 COA1166     0.0000 
     28 P2A       -20.1500   80.8360  -25.0470 P.3       1 COA1166     0.0000 
     29 O4A       -20.8620   82.1590  -25.0850 O.co2     1 COA1166     0.0000 
     30 O5A       -18.7560   80.7060  -25.6430 O.co2     1 COA1166     0.0000 
     31 O6A       -20.0710   80.5250  -23.4750 O.3       1 COA1166     0.0000 
     32 CBP       -21.0340   80.5580  -21.2400 C.3       1 COA1166     0.0000 
     33 CCP       -21.2310   80.1210  -22.6610 C.3       1 COA1166     0.0000 
     34 CDP       -22.2400   80.1330  -20.4180 C.3       1 COA1166     0.0000 
     35 CEP       -19.7560   79.9370  -20.6210 C.3       1 COA1166     0.0000 
     36 CAP       -20.9760   82.0680  -21.1410 C.3       1 COA1166     0.0000 
     37 OAP       -22.2700   82.6310  -21.4390 O.3       1 COA1166     0.0000 
     38 C9P       -20.4940   82.5070  -19.7990 C.2       1 COA1166     0.0000 
     39 O9P       -19.2670   82.5920  -19.5680 O.2       1 COA1166     0.0000 
     40 N8P       -21.4040   82.8710  -18.8480 N.am      1 COA1166     0.0000 
     41 C7P       -21.0400   83.4310  -17.5420 C.3       1 COA1166     0.0000 
     42 C6P       -20.3990   82.3480  -16.6340 C.3       1 COA1166     0.0000 
     43 C5P       -21.3780   81.2340  -16.2730 C.2       1 COA1166     0.0000 
     44 O5P       -22.5760   81.3940  -16.0200 O.2       1 COA1166     0.0000 
     45 N4P       -20.8120   80.0840  -16.1440 N.am      1 COA1166     0.0000 
     46 C3P       -21.5590   78.8960  -15.6940 C.3       1 COA1166     0.0000 
     47 C2P       -21.8210   78.2450  -17.0370 C.3       1 COA1166     0.0000 
     48 S1P       -21.6290   76.4520  -17.0190 S.3       1 COA1166     0.0000 
     49 H         -30.1415   80.2972  -24.4876 H         1 COA1166     0.0000 
     50 H         -27.4981   83.3230  -22.4582 H         1 COA1166     0.0000 
     51 H         -25.8252   82.8387  -22.8969 H         1 COA1166     0.0000 
     52 H         -23.8178   79.6851  -25.3898 H         1 COA1166     0.0000 
     53 H         -26.9147   77.5530  -25.9757 H         1 COA1166     0.0000 
     54 H         -26.8676   79.4195  -27.8551 H         1 COA1166     0.0000 
     55 H         -24.5674   79.3210  -28.2317 H         1 COA1166     0.0000 
     56 H         -24.7122   76.3900  -28.2993 H         1 COA1166     0.0000 
     57 H         -22.5671   77.4101  -28.8400 H         1 COA1166     0.0000 
     58 H         -22.4739   76.5855  -27.2743 H         1 COA1166     0.0000 
     59 H         -21.3522   79.0341  -22.6889 H         1 COA1166     0.0000 
     60 H         -22.1451   80.5764  -23.0533 H         1 COA1166     0.0000 
     61 H         -20.2494   82.4131  -21.8936 H         1 COA1166     0.0000 
     62 H         -22.4315   82.7599  -19.0220 H         1 COA1166     0.0000 
     63 H         -21.9194   83.8224  -17.0225 H         1 COA1166     0.0000 
     64 H         -20.3170   84.2446  -17.6502 H         1 COA1166     0.0000 
     65 H         -20.0405   82.8295  -15.7199 H         1 COA1166     0.0000 
     66 H         -19.5380   81.9222  -17.1567 H         1 COA1166     0.0000 
     67 H         -19.7992   79.9065  -16.3442 H         1 COA1166     0.0000 
     68 H         -22.4734   79.1662  -15.2500 H         1 COA1166     0.0000 
     69 H         -20.9545   78.2645  -15.1092 H         1 COA1166     0.0000 
     70 H         -21.1239   78.5438  -17.8047 H         1 COA1166     0.0000 
     71 H         -22.8359   78.3647  -17.3839 H         1 COA1166     0.0000 
     72 H         -22.3676   79.1413  -20.4312 H         1 COA1166     0.0000 
     73 H         -22.1505   80.4043  -19.4597 H         1 COA1166     0.0000 
     74 H         -23.0858   80.5419  -20.7607 H         1 COA1166     0.0000 
     75 H         -18.9340   80.1963  -21.1281 H         1 COA1166     0.0000 
     76 H         -19.6214   80.2306  -19.6746 H         1 COA1166     0.0000 
     77 H         -19.7939   78.9377  -20.6154 H         1 COA1166     0.0000 
     78 H         -28.1968   77.7037  -28.1783 H         1 COA1166     0.0000 
     79 H         -22.3198   82.6508  -22.4376 H         1 COA1166     0.0000 
@<TRIPOS>BOND
     1    2    1 ar   
     2    6    1 ar   
     3    3    2 ar   
     4   49    2 1    
     5    4    3 ar   
     6    5    4 ar   
     7   10    4 1    
     8    6    5 ar   
     9    8    5 1    
    10    7    6 1    
    11   50    7 1    
    12   51    7 1    
    13    9    8 2    
    14   10    9 1    
    15   52    9 1    
    16   11   10 1    
    17   12   11 1    
    18   21   11 1    
    19   53   11 1    
    20   13   12 1    
    21   14   12 1    
    22   54   12 1    
    23   78   13 1    
    24   15   14 1    
    25   20   14 1    
    26   55   14 1    
    27   16   15 1    
    28   17   16 ar   
    29   18   16 ar   
    30   19   16 ar   
    31   21   20 1    
    32   22   20 1    
    33   56   20 1    
    34   23   22 1    
    35   57   22 1    
    36   58   22 1    
    37   24   23 1    
    38   25   24 ar   
    39   26   24 ar   
    40   27   24 1    
    41   28   27 1    
    42   29   28 ar   
    43   30   28 ar   
    44   31   28 1    
    45   33   31 1    
    46   33   32 1    
    47   34   32 1    
    48   35   32 1    
    49   36   32 1    
    50   59   33 1    
    51   60   33 1    
    52   72   34 1    
    53   73   34 1    
    54   74   34 1    
    55   75   35 1    
    56   76   35 1    
    57   77   35 1    
    58   37   36 1    
    59   38   36 1    
    60   61   36 1    
    61   79   37 1    
    62   39   38 2    
    63   40   38 am   
    64   41   40 1    
    65   62   40 1    
    66   42   41 1    
    67   63   41 1    
    68   64   41 1    
    69   43   42 1    
    70   65   42 1    
    71   66   42 1    
    72   44   43 2    
    73   45   43 am   
    74   46   45 1    
    75   67   45 1    
    76   47   46 1    
    77   68   46 1    
    78   69   46 1    
    79   48   47 1    
    80   70   47 1    
    81   71   47 1    
@<TRIPOS>SUBSTRUCTURE
     1 COA1166     1 GROUP   
@<TRIPOS>SET

