#    Name: 4B7Z_2_CAVITY_N1_ALL.mol2
#    Modification time : Tue Mar 11 19:07:55 2014

@<TRIPOS>MOLECULE
4B7Z_2_CAVITY_N1_ALL.mol2
  157     0     6     0     0
SMALL
NO_CHARGES


@<TRIPOS>ATOM
      1 CZ          7.7791   -2.6075  -35.2882 C.ar      4 PHE5        0.0000 
      2 CZ          8.7219   -2.9735  -36.3959 C.ar      4 PHE5        0.0000 
      3 CZ          9.6648   -3.3396  -37.5036 C.ar      4 PHE5        0.0000 
      4 CA          5.6705   -2.5940  -35.0562 C.3       5 GLY6        0.0000 
      5 CA          6.6134   -2.9600  -36.1639 C.3       5 GLY6        0.0000 
      6 OG          7.5563   -3.3261  -37.2716 O.2       1 SER1        0.0000 
      7 OG          8.4991   -3.6922  -38.3793 O.2       1 SER1        0.0000 
      8 CZ          4.5048   -2.9465  -35.9320 C.ar      4 PHE5        0.0000 
      9 DU          5.4477   -3.3126  -37.0396 H         6 CUB7        0.0000 
     10 DU          6.3906   -3.6787  -38.1473 H         6 CUB7        0.0000 
     11 OG          7.3335   -4.0447  -39.2550 O.2       1 SER1        0.0000 
     12 CZ          3.3391   -3.2991  -36.8077 C.ar      4 PHE5        0.0000 
     13 CA          4.2820   -3.6651  -37.9154 C.3       5 GLY6        0.0000 
     14 CA          5.2249   -4.0312  -39.0231 C.3       5 GLY6        0.0000 
     15 OG          6.1678   -4.3973  -40.1308 O.2       1 SER1        0.0000 
     16 CA          5.0021   -4.7498  -41.0065 C.3       5 GLY6        0.0000 
     17 OG          5.9450   -5.1159  -42.1142 O.2       1 SER1        0.0000 
     18 CA         19.8140  -12.2014  -32.0297 C.3       5 GLY6        0.0000 
     19 CA         20.7569  -12.5674  -33.1374 C.3       5 GLY6        0.0000 
     20 DU         21.6997  -12.9335  -34.2451 H         6 CUB7        0.0000 
     21 CA         17.7054  -12.1879  -31.7977 C.3       5 GLY6        0.0000 
     22 CA         18.6483  -12.5539  -32.9054 C.3       5 GLY6        0.0000 
     23 DU         19.5912  -12.9200  -34.0131 H         6 CUB7        0.0000 
     24 N          15.5969  -12.1743  -31.5657 N.2       2 ALA2        0.0000 
     25 DU         16.5397  -12.5404  -32.6734 H         6 CUB7        0.0000 
     26 N          12.0998  -13.2320  -34.1929 N.2       2 ALA2        0.0000 
     27 CZ         10.9341  -13.5846  -35.0686 C.ar      4 PHE5        0.0000 
     28 OG         11.8770  -13.9507  -36.1763 O.2       1 SER1        0.0000 
     29 N          18.5550   -9.7314  -33.9176 N.2       2 ALA2        0.0000 
     30 CA         19.4979  -10.0974  -35.0253 C.3       5 GLY6        0.0000 
     31 CA         17.3893  -10.0839  -34.7933 C.3       5 GLY6        0.0000 
     32 CA         18.3322  -10.4500  -35.9010 C.3       5 GLY6        0.0000 
     33 N          14.3379   -9.7044  -33.4537 N.2       2 ALA2        0.0000 
     34 N          15.2808  -10.0704  -34.5613 N.2       2 ALA2        0.0000 
     35 CZ         16.2237  -10.4365  -35.6690 C.ar      4 PHE5        0.0000 
     36 CZ         17.1665  -10.8026  -36.7767 C.ar      4 PHE5        0.0000 
     37 N          13.1722  -10.0569  -34.3294 N.2       2 ALA2        0.0000 
     38 CZ         14.1151  -10.4230  -35.4371 C.ar      4 PHE5        0.0000 
     39 CZ         15.0580  -10.7891  -36.5448 C.ar      4 PHE5        0.0000 
     40 CZ         12.0065  -10.4095  -35.2051 C.ar      4 PHE5        0.0000 
     41 CZ         12.9494  -10.7756  -36.3128 C.ar      4 PHE5        0.0000 
     42 CZ         13.8923  -11.1416  -37.4205 C.ar      4 PHE5        0.0000 
     43 CZ         10.8409  -10.7620  -36.0808 C.ar      4 PHE5        0.0000 
     44 OG         11.7837  -11.1281  -37.1885 O.2       1 SER1        0.0000 
     45 CZ         12.7266  -11.4942  -38.2962 C.ar      4 PHE5        0.0000 
     46 CZ         10.8771   -4.3983  -36.1218 C.ar      4 PHE5        0.0000 
     47 CZ          7.8257   -4.0187  -34.7821 C.ar      4 PHE5        0.0000 
     48 CZ          8.7686   -4.3848  -35.8898 C.ar      4 PHE5        0.0000 
     49 CZ          6.6600   -4.3713  -35.6578 C.ar      4 PHE5        0.0000 
     50 OG          7.6029   -4.7374  -36.7655 O.2       1 SER1        0.0000 
     51 CZ          5.4943   -4.7239  -36.5336 C.ar      4 PHE5        0.0000 
     52 OG          6.4372   -5.0899  -37.6412 O.2       1 SER1        0.0000 
     53 OG          4.3287   -5.0764  -37.4093 O.2       1 SER1        0.0000 
     54 CA          5.2715   -5.4425  -38.5170 C.3       5 GLY6        0.0000 
     55 OG          6.2144   -5.8086  -39.6247 O.2       1 SER1        0.0000 
     56 OG          7.1573   -6.1746  -40.7324 O.2       1 SER1        0.0000 
     57 CA          5.0487   -6.1611  -40.5004 C.3       5 GLY6        0.0000 
     58 OG          5.9916   -6.5272  -41.6081 O.2       1 SER1        0.0000 
     59 CZ          9.8410   -1.2097  -36.0263 C.ar      4 PHE5        0.0000 
     60 CA          7.7324   -1.1962  -35.7943 C.3       5 GLY6        0.0000 
     61 OG          8.6753   -1.5623  -36.9020 O.2       1 SER1        0.0000 
     62 O           9.6182   -1.9283  -38.0097 O.2       2 ALA2        0.0000 
     63 CA          6.5667   -1.5488  -36.6700 C.3       5 GLY6        0.0000 
     64 CA          7.5096   -1.9148  -37.7777 C.3       5 GLY6        0.0000 
     65 CA          4.4582   -1.5352  -36.4381 C.3       5 GLY6        0.0000 
     66 DU          5.4011   -1.9013  -37.5457 H         6 CUB7        0.0000 
     67 CA          6.3439   -2.2674  -38.6534 C.3       5 GLY6        0.0000 
     68 CZ          3.2925   -1.8878  -37.3138 C.ar      4 PHE5        0.0000 
     69 CZ          4.2354   -2.2539  -38.4215 C.ar      4 PHE5        0.0000 
     70 CA          5.1783   -2.6199  -39.5292 C.3       5 GLY6        0.0000 
     71 CA          6.1211   -2.9860  -40.6368 C.3       5 GLY6        0.0000 
     72 CZ          4.0126   -2.9725  -40.4049 C.ar      4 PHE5        0.0000 
     73 CA          4.9555   -3.3386  -41.5126 C.3       5 GLY6        0.0000 
     74 OG          5.8983   -3.7046  -42.6203 O.2       1 SER1        0.0000 
     75 N           3.7898   -3.6911  -42.3883 N.2       2 ALA2        0.0000 
     76 N           4.7326   -4.0572  -43.4960 N.2       2 ALA2        0.0000 
     77 OG          6.5201   -0.1375  -37.1761 O.2       1 SER1        0.0000 
     78 O           7.4630   -0.5035  -38.2838 O.2       2 ALA2        0.0000 
     79 NZ          4.4116   -0.1240  -36.9441 N.2       3 LYS4        0.0000 
     80 NZ          5.3544   -0.4900  -38.0518 N.2       3 LYS4        0.0000 
     81 O           6.2973   -0.8561  -39.1595 O.2       2 ALA2        0.0000 
     82 CZ          4.1887   -0.8426  -38.9276 C.ar      4 PHE5        0.0000 
     83 O           5.1316   -1.2087  -40.0353 O.2       2 ALA2        0.0000 
     84 OG          3.9659   -1.5612  -40.9110 O.2       1 SER1        0.0000 
     85 N           4.9088   -1.9273  -42.0187 N.2       2 ALA2        0.0000 
     86 CZ         12.0895   -5.4570  -34.7400 C.ar      4 PHE5        0.0000 
     87 CZ         13.0323   -5.8231  -35.8477 C.ar      4 PHE5        0.0000 
     88 CZ          9.9809   -5.4435  -34.5080 C.ar      4 PHE5        0.0000 
     89 CZ         10.9238   -5.8096  -35.6157 C.ar      4 PHE5        0.0000 
     90 CZ         11.8666   -6.1757  -36.7234 C.ar      4 PHE5        0.0000 
     91 CZ          7.8723   -5.4300  -34.2760 C.ar      4 PHE5        0.0000 
     92 OG          8.8152   -5.7961  -35.3837 O.2       1 SER1        0.0000 
     93 OG          7.6495   -6.1486  -36.2594 O.2       1 SER1        0.0000 
     94 CZ          6.4838   -6.5012  -37.1352 C.ar      4 PHE5        0.0000 
     95 OG          5.3182   -6.8538  -38.0109 O.2       1 SER1        0.0000 
     96 OG          6.2610   -7.2198  -39.1186 O.2       1 SER1        0.0000 
     97 OG          7.2039   -7.5859  -40.2263 O.2       1 SER1        0.0000 
     98 CA          4.1525   -7.2063  -38.8866 C.3       5 GLY6        0.0000 
     99 CA          5.0954   -7.5724  -39.9943 C.3       5 GLY6        0.0000 
    100 N           6.0382   -7.9385  -41.1020 N.2       2 ALA2        0.0000 
    101 OG          6.5305   -7.9125  -36.6291 O.2       1 SER1        0.0000 
    102 OG          7.4734   -8.2785  -37.7367 O.2       1 SER1        0.0000 
    103 OG          8.4162   -8.6446  -38.8444 O.2       1 SER1        0.0000 
    104 OG          5.3648   -8.2650  -37.5048 O.2       1 SER1        0.0000 
    105 CA          6.3077   -8.6311  -38.6125 C.3       5 GLY6        0.0000 
    106 N          16.3998   -8.3066  -34.1917 N.2       2 ALA2        0.0000 
    107 CA         13.3484   -7.9270  -32.8521 C.3       5 GLY6        0.0000 
    108 N          14.2913   -8.2931  -33.9597 N.2       2 ALA2        0.0000 
    109 CZ         15.2342   -8.6592  -35.0674 C.ar      4 PHE5        0.0000 
    110 CA         12.1827   -8.2796  -33.7278 C.3       5 GLY6        0.0000 
    111 CZ         13.1256   -8.6456  -34.8355 C.ar      4 PHE5        0.0000 
    112 CZ         14.0685   -9.0117  -35.9432 C.ar      4 PHE5        0.0000 
    113 CZ         11.0170   -8.6321  -34.6035 C.ar      4 PHE5        0.0000 
    114 CZ         11.9599   -8.9982  -35.7112 C.ar      4 PHE5        0.0000 
    115 CZ         12.9028   -9.3643  -36.8189 C.ar      4 PHE5        0.0000 
    116 CZ          9.8514   -8.9847  -35.4792 C.ar      4 PHE5        0.0000 
    117 CZ         10.7942   -9.3508  -36.5869 C.ar      4 PHE5        0.0000 
    118 CZ         11.7371   -9.7168  -37.6946 C.ar      4 PHE5        0.0000 
    119 CZ          8.6857   -9.3373  -36.3549 C.ar      4 PHE5        0.0000 
    120 NZ          9.6285   -9.7033  -37.4626 N.2       3 LYS4        0.0000 
    121 CZ         10.5714  -10.0694  -38.5703 C.ar      4 PHE5        0.0000 
    122 CZ         10.6181  -11.4807  -38.0642 C.ar      4 PHE5        0.0000 
    123 CA         19.7673  -10.7901  -32.5358 C.3       5 GLY6        0.0000 
    124 N          20.7102  -11.1562  -33.6435 N.2       2 ALA2        0.0000 
    125 N          21.6531  -11.5222  -34.7512 N.2       2 ALA2        0.0000 
    126 N          17.6588  -10.7766  -32.3038 N.2       2 ALA2        0.0000 
    127 N          18.6017  -11.1427  -33.4115 N.2       2 ALA2        0.0000 
    128 N          19.5445  -11.5087  -34.5192 N.2       2 ALA2        0.0000 
    129 N          20.4874  -11.8748  -35.6269 N.2       2 ALA2        0.0000 
    130 N          16.4931  -11.1291  -33.1795 N.2       2 ALA2        0.0000 
    131 DU         17.4360  -11.4952  -34.2872 H         6 CUB7        0.0000 
    132 N          18.3789  -11.8613  -35.3949 N.2       2 ALA2        0.0000 
    133 N          15.3274  -11.4817  -34.0552 N.2       2 ALA2        0.0000 
    134 DU         16.2703  -11.8478  -35.1629 H         6 CUB7        0.0000 
    135 N          14.1617  -11.8343  -34.9310 N.2       2 ALA2        0.0000 
    136 CZ         15.1046  -12.2003  -36.0387 C.ar      4 PHE5        0.0000 
    137 CZ         12.0532  -11.8208  -34.6990 C.ar      4 PHE5        0.0000 
    138 DU         12.9961  -12.1868  -35.8067 H         6 CUB7        0.0000 
    139 CZ         13.9389  -12.5529  -36.9144 C.ar      4 PHE5        0.0000 
    140 CZ         10.8875  -12.1733  -35.5747 C.ar      4 PHE5        0.0000 
    141 OG         11.8304  -12.5394  -36.6824 O.2       1 SER1        0.0000 
    142 OG         12.7733  -12.9055  -37.7901 O.2       1 SER1        0.0000 
    143 O          13.3018   -6.5157  -33.3581 O.2       2 ALA2        0.0000 
    144 N          14.2446   -6.8818  -34.4658 N.2       2 ALA2        0.0000 
    145 CZ         15.1875   -7.2479  -35.5735 C.ar      4 PHE5        0.0000 
    146 CZ         11.1932   -6.5022  -33.1262 C.ar      4 PHE5        0.0000 
    147 CZ         12.1361   -6.8683  -34.2339 C.ar      4 PHE5        0.0000 
    148 CZ         13.0790   -7.2344  -35.3416 C.ar      4 PHE5        0.0000 
    149 CZ         10.0275   -6.8548  -34.0019 C.ar      4 PHE5        0.0000 
    150 DU         10.9704   -7.2209  -35.1096 H         6 CUB7        0.0000 
    151 CZ         11.9133   -7.5869  -36.2173 C.ar      4 PHE5        0.0000 
    152 CZ          8.8618   -7.2074  -34.8776 C.ar      4 PHE5        0.0000 
    153 OG          9.8047   -7.5734  -35.9853 O.2       1 SER1        0.0000 
    154 OG         10.7476   -7.9395  -37.0930 O.2       1 SER1        0.0000 
    155 CZ         11.6905   -8.3056  -38.2007 C.ar      4 PHE5        0.0000 
    156 CZ          7.6962   -7.5599  -35.7533 C.ar      4 PHE5        0.0000 
    157 OG          8.6390   -7.9260  -36.8610 O.2       1 SER1        0.0000 
@<TRIPOS>BOND
@<TRIPOS>SUBSTRUCTURE
     1 SER1        6 GROUP   
     2 ALA2       24 GROUP   
     3 LYS4       79 GROUP   
     4 PHE5        1 GROUP   
     5 GLY6        4 GROUP   
     6 CUB7        9 GROUP   
@<TRIPOS>SET

