#    Name: 4b7z_Q4Q_2_INTS_M
#    Modification time : Tue Mar 25 07:03:38 2014

@<TRIPOS>MOLECULE
4b7z_Q4Q_2_INTS_M
   41     0     3     0     0
SMALL
NO_CHARGES


@<TRIPOS>ATOM
      1 CA          6.7170   -5.6620  -34.5800 C.3       1 GLC5        0.0000 
      2 CA          8.2740   -4.9450  -35.1620 C.3       3 GLL5        0.0000 
      3 CA          5.1600   -6.3790  -33.9980 C.3       2 GLP5        0.0000 
      4 CA          9.2620   -3.9400  -34.1535 C.3       1 GLC5        0.0000 
      5 CA         10.2500   -2.9350  -33.1450 C.3       2 GLP5        0.0000 
      6 CA          2.7970   -0.7100  -39.2015 C.3       1 GLC5        0.0000 
      7 CA          4.8370   -0.2260  -39.0840 C.3       3 GLL5        0.0000 
      8 CA          0.7570   -1.1940  -39.3190 C.3       2 GLP5        0.0000 
      9 CA          5.9995    0.8880  -40.3730 C.3       1 GLC5        0.0000 
     10 CA          7.1620    2.0020  -41.6620 C.3       2 GLP5        0.0000 
     11 CA          6.3285    1.1980  -38.2990 C.3       1 GLC5        0.0000 
     12 CA          7.8200    2.6220  -37.5140 C.3       2 GLP5        0.0000 
     13 CA          5.6550   -5.5830  -35.8435 C.3       1 GLC5        0.0000 
     14 CA          6.1500   -4.7870  -37.6890 C.3       3 GLL5        0.0000 
     15 CA          3.3575   -4.3565  -38.4990 C.3       1 GLC5        0.0000 
     16 CA          4.9290   -3.8580  -37.9340 C.3       3 GLL5        0.0000 
     17 CA          1.7860   -4.8550  -39.0640 C.3       2 GLP5        0.0000 
     18 CA          4.3775   -5.0820  -36.1470 C.3       1 GLC5        0.0000 
     19 CA          3.8260   -6.3060  -34.3600 C.3       2 GLP5        0.0000 
     20 CA         10.8415  -10.6905  -38.7690 C.3       1 GLC5        0.0000 
     21 CA         11.1590   -9.7330  -36.8720 C.3       3 GLL5        0.0000 
     22 CA         10.5240  -11.6480  -40.6660 C.3       2 GLP5        0.0000 
     23 CA         12.4365   -9.2245  -38.2485 C.3       1 GLC5        0.0000 
     24 CA         13.7140   -8.7160  -39.6250 C.3       2 GLP5        0.0000 
     25 CA         10.0905  -10.3835  -35.4165 C.3       1 GLC5        0.0000 
     26 CA          9.0220  -11.0340  -33.9610 C.3       2 GLP5        0.0000 
     27 CA          2.9975   -0.3015  -35.8180 C.3       1 GLC5        0.0000 
     28 CA          4.2150   -1.8140  -36.7840 C.3       3 GLL5        0.0000 
     29 CA          1.7800    1.2110  -34.8520 C.3       2 GLP5        0.0000 
     30 CA          3.4185   -4.1535  -34.5950 C.3       1 GLC5        0.0000 
     31 CA          3.9040   -2.7180  -35.6010 C.3       3 GLL5        0.0000 
     32 CA          2.9330   -5.5890  -33.5890 C.3       2 GLP5        0.0000 
     33 CA          3.1225   -2.0655  -39.4405 C.3       1 GLC5        0.0000 
     34 CA          4.9510   -1.7350  -39.0940 C.3       3 GLL5        0.0000 
     35 CA          1.2940   -2.3960  -39.7870 C.3       2 GLP5        0.0000 
     36 CA          6.6460   -1.2567  -40.0870 C.3       1 GLC5        0.0000 
     37 CA          8.3980   -1.5330  -41.0850 C.3       2 GLP5        0.0000 
     38 CA          2.4282   -2.8175  -36.9107 C.3       1 GLC5        0.0000 
     39 CA          0.7970   -3.3690  -37.6290 C.3       2 GLP5        0.0000 
     40 CA          5.3628   -1.0340  -35.0957 C.3       1 GLC5        0.0000 
     41 CA          6.6660    0.1980  -33.9990 C.3       2 GLP5        0.0000 
@<TRIPOS>BOND
@<TRIPOS>SUBSTRUCTURE
     1 GLC5        1 GROUP        1 X    GLC  0     ROOT GLC X 6
     2 GLP5        3 GROUP        1 Y    GLP  0     ROOT GLP Y 13
     3 GLL5        2 GROUP        1 Z    GLL  0     ROOT GLL Z 20
@<TRIPOS>SET

