#    Name: 4b7z_Q4Q_2_ligand
#    Modification time : Tue Mar 25 07:03:38 2014

@<TRIPOS>MOLECULE
4b7z_Q4Q_2_ligand
   44    44     1     0     0
SMALL
NO_CHARGES


@<TRIPOS>ATOM
      1 S           8.1920   -3.6120  -36.3100 S.o2      1 Q4Q600      0.0000 
      2 N1          7.5010   -4.1410  -37.7360 N.pl3     1 Q4Q600      0.0000 
      3 O1          7.2630   -2.6870  -35.7830 O.2       1 Q4Q600      0.0000 
      4 C2         10.4090   -6.2700  -35.5220 C.ar      1 Q4Q600      0.0000 
      5 N2          5.2170   -2.3890  -37.7540 N.4       1 Q4Q600      0.0000 
      6 O2          9.5300   -3.2530  -36.6350 O.2       1 Q4Q600      0.0000 
      7 C3          9.0370   -6.2030  -35.6030 C.ar      1 Q4Q600      0.0000 
      8 C4          8.2740   -4.9450  -35.1620 C.3       1 Q4Q600      0.0000 
      9 C6          4.8370   -0.2260  -39.0840 C.3       1 Q4Q600      0.0000 
     10 C7          8.3260   -7.2990  -36.1010 C.ar      1 Q4Q600      0.0000 
     11 C8          9.0300   -8.4430  -36.5120 C.ar      1 Q4Q600      0.0000 
     12 C9         10.4120   -8.4970  -36.4340 C.ar      1 Q4Q600      0.0000 
     13 C10        11.1190   -7.4000  -35.9350 C.ar      1 Q4Q600      0.0000 
     14 C11         6.1500   -4.7870  -37.6890 C.3       1 Q4Q600      0.0000 
     15 C12         4.9290   -3.8580  -37.9340 C.3       1 Q4Q600      0.0000 
     16 C08        11.1590   -9.7330  -36.8720 C.3       1 Q4Q600      0.0000 
     17 C13         4.2150   -1.8140  -36.7840 C.3       1 Q4Q600      0.0000 
     18 C14         3.9040   -2.7180  -35.6010 C.3       1 Q4Q600      0.0000 
     19 C17         4.9510   -1.7350  -39.0940 C.3       1 Q4Q600      0.0000 
     20 H           8.0189   -3.9995  -38.5289 H         1 Q4Q600      0.0000 
     21 H          10.9427   -5.4580  -35.1424 H         1 Q4Q600      0.0000 
     22 H           6.1863   -2.2234  -37.4486 H         1 Q4Q600      0.0000 
     23 H           7.2217   -5.1573  -34.9444 H         1 Q4Q600      0.0000 
     24 H           8.7173   -4.4860  -34.2717 H         1 Q4Q600      0.0000 
     25 H           7.3095   -7.2713  -36.1662 H         1 Q4Q600      0.0000 
     26 H           8.5008   -9.2528  -36.8771 H         1 Q4Q600      0.0000 
     27 H          12.1353   -7.4239  -35.8734 H         1 Q4Q600      0.0000 
     28 H           6.0037   -5.2798  -36.7003 H         1 Q4Q600      0.0000 
     29 H           6.1012   -5.6101  -38.4385 H         1 Q4Q600      0.0000 
     30 H           4.5610   -4.0432  -38.9583 H         1 Q4Q600      0.0000 
     31 H           4.1231   -4.1671  -37.2457 H         1 Q4Q600      0.0000 
     32 H           3.2730   -1.5944  -37.3206 H         1 Q4Q600      0.0000 
     33 H           4.5911   -0.8463  -36.4025 H         1 Q4Q600      0.0000 
     34 H           4.0149   -2.1626  -39.5214 H         1 Q4Q600      0.0000 
     35 H           5.7594   -2.0290  -39.8024 H         1 Q4Q600      0.0000 
     36 H           5.6753    0.2076  -38.7533 H         1 Q4Q600      0.0000 
     37 H           4.6590    0.1391  -39.9978 H         1 Q4Q600      0.0000 
     38 H           4.0929    0.0863  -38.4935 H         1 Q4Q600      0.0000 
     39 H          12.1471   -9.6299  -36.7575 H         1 Q4Q600      0.0000 
     40 H          10.8854  -10.5382  -36.3459 H         1 Q4Q600      0.0000 
     41 H          10.9960   -9.9434  -37.8359 H         1 Q4Q600      0.0000 
     42 H           4.7224   -2.9207  -35.0632 H         1 Q4Q600      0.0000 
     43 H           3.2406   -2.3013  -34.9795 H         1 Q4Q600      0.0000 
     44 H           3.5212   -3.5942  -35.8937 H         1 Q4Q600      0.0000 
@<TRIPOS>BOND
     1    2    1 1    
     2    3    1 2    
     3    6    1 2    
     4    8    1 1    
     5   14    2 1    
     6   20    2 1    
     7    7    4 ar   
     8   13    4 ar   
     9   21    4 1    
    10   15    5 1    
    11   17    5 1    
    12   19    5 1    
    13   22    5 1    
    14    8    7 1    
    15   10    7 ar   
    16   23    8 1    
    17   24    8 1    
    18   19    9 1    
    19   36    9 1    
    20   37    9 1    
    21   38    9 1    
    22   11   10 ar   
    23   25   10 1    
    24   12   11 ar   
    25   26   11 1    
    26   13   12 ar   
    27   16   12 1    
    28   27   13 1    
    29   15   14 1    
    30   28   14 1    
    31   29   14 1    
    32   30   15 1    
    33   31   15 1    
    34   39   16 1    
    35   40   16 1    
    36   41   16 1    
    37   18   17 1    
    38   32   17 1    
    39   33   17 1    
    40   42   18 1    
    41   43   18 1    
    42   44   18 1    
    43   34   19 1    
    44   35   19 1    
@<TRIPOS>SUBSTRUCTURE
     1 Q4Q600      1 GROUP   
@<TRIPOS>SET

