#    Name: 1UEU_1_CAVITY_N1_6.mol2
#    Modification time : Tue Mar 11 13:28:12 2014

@<TRIPOS>MOLECULE
1UEU_1_CAVITY_N1_6.mol2
  107     0     7     0     0
SMALL
NO_CHARGES


@<TRIPOS>ATOM
      1 CA         14.0592   26.4653   31.8420 C.3       6 GLY6        0.0000 
      2 DU         14.5257   25.5414   32.9278 H         7 CUB7        0.0000 
      3 CA         13.0918   25.4211   31.3691 C.3       6 GLY6        0.0000 
      4 OG         13.5582   24.4972   32.4549 O.2       1 SER1        0.0000 
      5 N          22.3451   32.2975   35.3176 N.2       2 ALA2        0.0000 
      6 N          21.3776   31.2533   34.8447 N.2       2 ALA2        0.0000 
      7 N          21.8440   30.3294   35.9304 N.2       2 ALA2        0.0000 
      8 DU         22.3105   29.4055   37.0162 H         7 CUB7        0.0000 
      9 O          19.9437   31.1330   33.2860 O.2       2 ALA2        0.0000 
     10 DU         20.4101   30.2091   34.3718 H         7 CUB7        0.0000 
     11 DU         20.8766   29.2852   35.4575 H         7 CUB7        0.0000 
     12 DU         21.8094   27.4374   37.6290 H         7 CUB7        0.0000 
     13 O          18.5098   31.0127   31.7274 O.2       2 ALA2        0.0000 
     14 O          18.9762   30.0888   32.8131 O.2       2 ALA2        0.0000 
     15 DU         20.8420   26.3932   37.1561 H         7 CUB7        0.0000 
     16 CA         17.5423   29.9685   31.2544 C.3       6 GLY6        0.0000 
     17 DU         18.0088   29.0446   32.3402 H         7 CUB7        0.0000 
     18 OG         20.3409   24.4251   37.7689 O.2       1 SER1        0.0000 
     19 DU         17.0413   28.0004   31.8673 H         7 CUB7        0.0000 
     20 O          16.0738   26.9562   31.3944 O.2       2 ALA2        0.0000 
     21 DU         16.5402   26.0323   32.4801 H         7 CUB7        0.0000 
     22 O          15.1063   25.9121   30.9214 O.2       2 ALA2        0.0000 
     23 O          15.5728   24.9882   32.0072 O.2       2 ALA2        0.0000 
     24 O          20.9908   30.5798   32.3654 O.2       2 ALA2        0.0000 
     25 O          20.0233   29.5356   31.8925 O.2       2 ALA2        0.0000 
     26 CA         15.8349   31.7485   35.5749 C.3       6 GLY6        0.0000 
     27 CA         14.4010   31.6282   34.0162 C.3       6 GLY6        0.0000 
     28 CA         14.8674   30.7043   35.1020 C.3       6 GLY6        0.0000 
     29 CA         15.3339   29.7804   36.1877 C.3       6 GLY6        0.0000 
     30 CA         15.8003   28.8565   37.2735 C.3       6 GLY6        0.0000 
     31 CZ         16.2667   27.9326   38.3592 C.ar      5 PHE5        0.0000 
     32 CZ         16.7332   27.0087   39.4450 C.ar      5 PHE5        0.0000 
     33 CZ         12.9671   31.5079   32.4576 C.ar      5 PHE5        0.0000 
     34 CA         13.4335   30.5840   33.5433 C.3       6 GLY6        0.0000 
     35 N          13.9000   29.6601   34.6291 N.2       2 ALA2        0.0000 
     36 N          14.3664   28.7362   35.7148 N.2       2 ALA2        0.0000 
     37 NZ         14.8328   27.8123   36.8006 N.2       4 LYS4        0.0000 
     38 NZ         15.2993   26.8884   37.8863 N.2       4 LYS4        0.0000 
     39 O          11.9996   30.4637   31.9846 O.2       2 ALA2        0.0000 
     40 O          12.4661   29.5398   33.0704 O.2       2 ALA2        0.0000 
     41 O          12.9325   28.6159   34.1561 O.2       2 ALA2        0.0000 
     42 CA         13.3989   27.6920   35.2419 C.3       6 GLY6        0.0000 
     43 NZ         13.8654   26.7681   36.3276 N.2       4 LYS4        0.0000 
     44 O          11.4986   28.4957   32.5975 O.2       2 ALA2        0.0000 
     45 O          11.9650   27.5718   33.6832 O.2       2 ALA2        0.0000 
     46 O          12.4314   26.6479   34.7690 O.2       2 ALA2        0.0000 
     47 CA         10.9975   26.5276   33.2103 C.3       6 GLY6        0.0000 
     48 CA         20.2163   30.5120   38.8574 C.3       6 GLY6        0.0000 
     49 OG         17.8495   32.2395   35.1272 O.2       1 SER1        0.0000 
     50 CZ         19.2488   29.4678   38.3845 C.ar      5 PHE5        0.0000 
     51 CZ         19.7152   28.5439   39.4702 C.ar      5 PHE5        0.0000 
     52 OG         16.8820   31.1953   34.6543 O.2       1 SER1        0.0000 
     53 OG         17.3485   30.2714   35.7401 O.2       1 SER1        0.0000 
     54 OG         17.8149   29.3475   36.8258 O.2       1 SER1        0.0000 
     55 CZ         18.2813   28.4236   37.9115 C.ar      5 PHE5        0.0000 
     56 CZ         18.7477   27.4997   38.9973 C.ar      5 PHE5        0.0000 
     57 CA         19.2142   26.5758   40.0830 C.3       6 GLY6        0.0000 
     58 CA         15.4481   31.0750   33.0956 C.3       6 GLY6        0.0000 
     59 DU         15.9145   30.1511   34.1814 H         7 CUB7        0.0000 
     60 DU         16.3810   29.2272   35.2671 H         7 CUB7        0.0000 
     61 DU         16.8474   28.3033   36.3529 H         7 CUB7        0.0000 
     62 DU         17.3138   27.3794   37.4386 H         7 CUB7        0.0000 
     63 OD1        17.7803   26.4555   38.5244 O.3       3 ASP3        0.0000 
     64 CA         14.4806   30.0308   32.6227 C.3       6 GLY6        0.0000 
     65 DU         14.9471   29.1069   33.7085 H         7 CUB7        0.0000 
     66 DU         15.8799   27.2591   35.8800 H         7 CUB7        0.0000 
     67 OD1        16.3464   26.3352   36.9657 O.3       3 ASP3        0.0000 
     68 CA         13.5132   28.9866   32.1498 C.3       6 GLY6        0.0000 
     69 DU         13.9796   28.0627   33.2355 H         7 CUB7        0.0000 
     70 DU         14.4460   27.1388   34.3213 H         7 CUB7        0.0000 
     71 NZ         14.9125   26.2149   35.4070 N.2       4 LYS4        0.0000 
     72 O          12.5457   27.9424   31.6769 O.2       2 ALA2        0.0000 
     73 O          13.0121   27.0185   32.7626 O.2       2 ALA2        0.0000 
     74 OD1        13.4786   26.0946   33.8484 O.3       3 ASP3        0.0000 
     75 OD1        13.9450   25.1707   34.9341 O.3       3 ASP3        0.0000 
     76 CA         12.0446   25.9743   32.2897 C.3       6 GLY6        0.0000 
     77 OD1        12.5111   25.0504   33.3755 O.3       3 ASP3        0.0000 
     78 OD1        11.0772   24.9301   31.8168 O.3       3 ASP3        0.0000 
     79 N          20.3305   31.8065   35.7653 N.2       2 ALA2        0.0000 
     80 N          20.7969   30.8826   36.8510 N.2       2 ALA2        0.0000 
     81 CA         21.2634   29.9587   37.9368 C.3       6 GLY6        0.0000 
     82 O          18.4302   32.6102   33.1209 O.2       2 ALA2        0.0000 
     83 OG         18.8966   31.6863   34.2066 O.2       1 SER1        0.0000 
     84 OG         19.3630   30.7624   35.2924 O.2       1 SER1        0.0000 
     85 OG         19.8295   29.8385   36.3781 O.2       1 SER1        0.0000 
     86 DU         20.2959   28.9146   37.4639 H         7 CUB7        0.0000 
     87 DU         20.7623   27.9907   38.5496 H         7 CUB7        0.0000 
     88 O          17.4627   31.5660   32.6480 O.2       2 ALA2        0.0000 
     89 DU         17.9291   30.6421   33.7337 H         7 CUB7        0.0000 
     90 OG         18.3956   29.7182   34.8195 O.2       1 SER1        0.0000 
     91 OG         18.8620   28.7943   35.9052 O.2       1 SER1        0.0000 
     92 DU         19.3284   27.8704   36.9910 H         7 CUB7        0.0000 
     93 DU         19.7949   26.9465   38.0767 H         7 CUB7        0.0000 
     94 CA         16.4952   30.5218   32.1750 C.3       6 GLY6        0.0000 
     95 DU         16.9617   29.5979   33.2608 H         7 CUB7        0.0000 
     96 DU         17.4281   28.6740   34.3465 H         7 CUB7        0.0000 
     97 DU         17.8945   27.7501   35.4323 H         7 CUB7        0.0000 
     98 OD1        18.8274   25.9023   37.6038 O.3       3 ASP3        0.0000 
     99 NZ         19.2938   24.9784   38.6895 N.2       4 LYS4        0.0000 
    100 CA         15.9942   28.5537   32.7879 C.3       6 GLY6        0.0000 
    101 DU         16.9270   26.7059   34.9594 H         7 CUB7        0.0000 
    102 O          15.0267   27.5095   32.3150 O.2       2 ALA2        0.0000 
    103 DU         15.9596   25.6617   34.4864 H         7 CUB7        0.0000 
    104 CA         13.3539   32.1815   34.9368 C.3       6 GLY6        0.0000 
    105 CA         13.8203   31.2576   36.0226 C.3       6 GLY6        0.0000 
    106 O          12.3864   31.1373   34.4639 O.2       2 ALA2        0.0000 
    107 N          12.8529   30.2134   35.5497 N.2       2 ALA2        0.0000 
@<TRIPOS>BOND
@<TRIPOS>SUBSTRUCTURE
     1 SER1        4 GROUP   
     2 ALA2        5 GROUP   
     3 ASP3       63 GROUP   
     4 LYS4       37 GROUP   
     5 PHE5       31 GROUP   
     6 GLY6        1 GROUP   
     7 CUB7        2 GROUP   
@<TRIPOS>SET

