#    Name: 1ueu_CTP_1_INTS_M
#    Modification time : Tue Mar 25 06:34:50 2014

@<TRIPOS>MOLECULE
1ueu_CTP_1_INTS_M
   39     0    15     0     0
SMALL
NO_CHARGES


@<TRIPOS>ATOM
      1 N          13.4820   31.2755   35.3180 N.am      2 SEC2        0.0000 
      2 N          14.3840   30.7760   34.5030 N.am     12 SEL2        0.0000 
      3 N          12.5800   31.7750   36.1330 N.am      7 SEP2        0.0000 
      4 CA         12.3065   26.9505   36.7690 C.3       5 GLC5        0.0000 
      5 CA         13.9190   26.4750   35.7920 C.3      15 GLL5        0.0000 
      6 CA         10.6940   27.4260   37.7460 C.3      10 GLP5        0.0000 
      7 O          13.2270   25.8420   37.7885 O.2       1 ALC1        0.0000 
      8 O          13.4020   26.4920   37.1230 O.2      11 ALL1        0.0000 
      9 O          13.0520   25.1920   38.4540 O.2       6 ALP1        0.0000 
     10 O          14.0675   25.4730   38.3490 O.2       1 ALC1        0.0000 
     11 O          14.7330   24.4540   39.5750 O.2       6 ALP1        0.0000 
     12 Zn         15.4000   23.8385   37.2355 Zn        4 ZIC7        0.0000 
     13 Zn         14.5510   24.1460   36.5420 Zn       14 ZIL7        0.0000 
     14 Zn         16.2490   23.5310   37.9290 Zn        9 ZIP7        0.0000 
     15 Zn         13.3485   23.9005   36.3250 Zn        4 ZIC7        0.0000 
     16 Zn         12.1460   23.6550   36.1080 Zn        9 ZIP7        0.0000 
     17 N          10.5910   24.7485   31.0060 N.am      2 SEC2        0.0000 
     18 N          12.0620   25.0050   31.7830 N.am     12 SEL2        0.0000 
     19 N           9.1200   24.4920   30.2290 N.am      7 SEP2        0.0000 
     20 Zn         12.3170   23.5040   34.9060 Zn        4 ZIC7        0.0000 
     21 Zn         12.4880   23.3530   33.7040 Zn       14 ZIL7        0.0000 
     22 N           9.8560   23.7875   31.1720 N.am      2 SEC2        0.0000 
     23 N          10.5920   23.0830   32.1150 N.am     12 SEL2        0.0000 
     24 NZ          9.4945   23.0840   30.1715 N.4       3 LYC4        0.0000 
     25 NZ          9.8690   21.6760   30.1140 N.4      13 LYL4        0.0000 
     26 NZ          9.1200   24.4920   30.2290 N.4       8 LYP4        0.0000 
     27 N           8.3865   21.0815   30.6120 N.am      2 SEC2        0.0000 
     28 N           9.8690   21.6760   30.1140 N.am     12 SEL2        0.0000 
     29 N           6.9040   20.4870   31.1100 N.am      7 SEP2        0.0000 
     30 NZ          8.9445   22.9520   31.3080 N.4       3 LYC4        0.0000 
     31 NZ          8.7690   21.4120   32.3870 N.4      13 LYL4        0.0000 
     32 N           7.8365   20.9495   31.7485 N.am      2 SEC2        0.0000 
     33 N           8.7690   21.4120   32.3870 N.am     12 SEL2        0.0000 
     34 N          11.1880   19.2820   32.2590 N.am      2 SEC2        0.0000 
     35 N          11.0900   20.5720   32.0050 N.am     12 SEL2        0.0000 
     36 N          11.2860   17.9920   32.5130 N.am      7 SEP2        0.0000 
     37 CA         16.0635   30.8558   36.8210 C.3       5 GLC5        0.0000 
     38 CA         16.5400   29.3030   35.4990 C.3      15 GLL5        0.0000 
     39 CA         15.4870   31.7470   38.3610 C.3      10 GLP5        0.0000 
@<TRIPOS>BOND
@<TRIPOS>SUBSTRUCTURE
     1 ALC1        7 GROUP        1 X    ALC  0     ROOT ALC X 1
     2 SEC2        1 GROUP        1 X    SEC  0     **** SEC X 2
     3 LYC4       24 GROUP        1 X    LYC  0     **** LYC X 4
     4 ZIC7       12 GROUP        1 X    ZIC  0     **** ZIC X 5
     5 GLC5        4 GROUP        1 X    GLC  0     **** GLC X 6
     6 ALP1        9 GROUP        1 Y    ALP  0     ROOT ALP Y 8
     7 SEP2        3 GROUP        1 Y    SEP  0     **** SEP Y 9
     8 LYP4       26 GROUP        1 Y    LYP  0     **** LYP Y 11
     9 ZIP7       14 GROUP        1 Y    ZIP  0     **** ZIP Y 12
    10 GLP5        6 GROUP        1 Y    GLP  0     **** GLP Y 13
    11 ALL1        8 GROUP        1 Z    ALL  0     ROOT ALL Z 15
    12 SEL2        2 GROUP        1 Z    SEL  0     **** SEL Z 16
    13 LYL4       25 GROUP        1 Z    LYL  0     **** LYL Z 18
    14 ZIL7       13 GROUP        1 Z    ZIL  0     **** ZIL Z 19
    15 GLL5        5 GROUP        1 Z    GLL  0     **** GLL Z 20
@<TRIPOS>SET

