#    Name: 1ueu_CTP_1_ligand
#    Modification time : Tue Mar 25 06:34:50 2014

@<TRIPOS>MOLECULE
1ueu_CTP_1_ligand
   40    41     1     0     0
SMALL
NO_CHARGES


@<TRIPOS>ATOM
      1 N1         15.2690   28.7060   35.4640 N.am      1 CTP501      0.0000 
      2 C2         14.1790   29.4580   34.9430 C.2       1 CTP501      0.0000 
      3 N3         14.3840   30.7760   34.5030 N.2       1 CTP501      0.0000 
      4 C4         15.6740   31.3660   34.5950 C.2       1 CTP501      0.0000 
      5 C5         16.7400   30.6260   35.0630 C.2       1 CTP501      0.0000 
      6 C6         16.5400   29.3030   35.4990 C.2       1 CTP501      0.0000 
      7 O2         13.0300   28.9910   34.8770 O.2       1 CTP501      0.0000 
      8 N4         15.8550   32.6250   34.1880 N.pl3     1 CTP501      0.0000 
      9 C1'        15.2470   27.2420   35.7820 C.3       1 CTP501      0.0000 
     10 C2'        13.9190   26.4750   35.7920 C.3       1 CTP501      0.0000 
     11 O2'        13.4020   26.4920   37.1230 O.3       1 CTP501      0.0000 
     12 C3'        14.3800   25.0470   35.4460 C.3       1 CTP501      0.0000 
     13 C4'        15.6550   25.2520   34.6180 C.3       1 CTP501      0.0000 
     14 O4'        16.1290   26.5910   34.8420 O.3       1 CTP501      0.0000 
     15 O3'        14.5510   24.1460   36.5420 O.3       1 CTP501      0.0000 
     16 C5'        15.0380   25.3000   33.2220 C.3       1 CTP501      0.0000 
     17 O5'        13.6450   25.3280   33.5240 O.3       1 CTP501      0.0000 
     18 PA         12.5500   26.2030   32.7420 P.3       1 CTP501      0.0000 
     19 O1A        13.1900   27.2470   31.9070 O.co2     1 CTP501      0.0000 
     20 O2A        11.4750   26.6210   33.6740 O.co2     1 CTP501      0.0000 
     21 O3A        12.0620   25.0050   31.7830 O.3       1 CTP501      0.0000 
     22 PB         12.1580   23.4610   32.2590 P.3       1 CTP501      0.0000 
     23 O1B        12.4880   23.3530   33.7040 O.co2     1 CTP501      0.0000 
     24 O2B        13.0090   22.7120   31.2990 O.co2     1 CTP501      0.0000 
     25 O3B        10.5920   23.0830   32.1150 O.3       1 CTP501      0.0000 
     26 PG          9.9890   21.6750   31.5910 P.3       1 CTP501      0.0000 
     27 O1G         9.8690   21.6760   30.1140 O.co2     1 CTP501      0.0000 
     28 O2G         8.7690   21.4120   32.3870 O.co2     1 CTP501      0.0000 
     29 O3G        11.0900   20.5720   32.0050 O.co2     1 CTP501      0.0000 
     30 H          17.6841   31.0292   35.0982 H         1 CTP501      0.0000 
     31 H          17.3451   28.7607   35.8518 H         1 CTP501      0.0000 
     32 H          15.0449   33.0948   33.8372 H         1 CTP501      0.0000 
     33 H          16.7843   32.9848   34.2706 H         1 CTP501      0.0000 
     34 H          15.7104   27.1046   36.7912 H         1 CTP501      0.0000 
     35 H          13.3024   26.8319   35.0609 H         1 CTP501      0.0000 
     36 H          13.6284   24.6626   34.7195 H         1 CTP501      0.0000 
     37 H          16.2917   24.5093   34.7105 H         1 CTP501      0.0000 
     38 H          15.3248   24.4185   32.6979 H         1 CTP501      0.0000 
     39 H          15.3693   26.1894   32.7391 H         1 CTP501      0.0000 
     40 H          13.5541   25.5670   37.4714 H         1 CTP501      0.0000 
@<TRIPOS>BOND
     1    2    1 am   
     2    6    1 1    
     3    9    1 1    
     4    3    2 1    
     5    7    2 2    
     6    4    3 2    
     7    5    4 1    
     8    8    4 1    
     9    6    5 2    
    10   30    5 1    
    11   31    6 1    
    12   32    8 1    
    13   33    8 1    
    14   10    9 1    
    15   14    9 1    
    16   34    9 1    
    17   11   10 1    
    18   12   10 1    
    19   35   10 1    
    20   40   11 1    
    21   13   12 1    
    22   15   12 1    
    23   36   12 1    
    24   14   13 1    
    25   16   13 1    
    26   37   13 1    
    27   17   16 1    
    28   38   16 1    
    29   39   16 1    
    30   18   17 1    
    31   19   18 ar   
    32   20   18 ar   
    33   21   18 1    
    34   22   21 1    
    35   23   22 ar   
    36   24   22 ar   
    37   25   22 1    
    38   26   25 1    
    39   27   26 ar   
    40   28   26 ar   
    41   29   26 ar   
@<TRIPOS>SUBSTRUCTURE
     1 CTP501      1 GROUP   
@<TRIPOS>SET

