#    Name: 1mb9_ATP_1_INTS_M
#    Modification time : Tue Mar 25 11:31:53 2014

@<TRIPOS>MOLECULE
1mb9_ATP_1_INTS_M
   86     0    15     0     0
SMALL
NO_CHARGES


@<TRIPOS>ATOM
      1 NZ        -47.1650  102.2660   36.9245 N.4       3 LYC4        0.0000 
      2 NZ        -47.2070  103.7930   36.0270 N.4      13 LYL4        0.0000 
      3 NZ        -47.1230  100.7390   37.8220 N.4       8 LYP4        0.0000 
      4 Zn        -47.5480  103.6270   35.0655 Zn        4 ZIC7        0.0000 
      5 Zn        -47.2070  103.7930   36.0270 Zn       14 ZIL7        0.0000 
      6 Zn        -47.8890  103.4610   34.1040 Zn        9 ZIP7        0.0000 
      7 NZ        -44.5895  103.4220   38.5635 N.4       3 LYC4        0.0000 
      8 NZ        -45.4200  102.7290   37.3540 N.4      13 LYL4        0.0000 
      9 NZ        -43.7590  104.1150   39.7730 N.4       8 LYP4        0.0000 
     10 NZ        -46.2715  101.7340   37.5880 N.4       3 LYC4        0.0000 
     11 Zn        -44.5680  102.4210   36.8720 Zn        4 ZIC7        0.0000 
     12 Zn        -45.4200  102.7290   37.3540 Zn       14 ZIL7        0.0000 
     13 Zn        -43.7160  102.1130   36.3900 Zn        9 ZIP7        0.0000 
     14 N         -46.2715  101.7340   37.5880 N.am      2 SEC2        0.0000 
     15 N         -45.4200  102.7290   37.3540 N.am     12 SEL2        0.0000 
     16 N         -47.1230  100.7390   37.8220 N.am      7 SEP2        0.0000 
     17 NZ        -45.0155  104.5585   38.9255 N.4       3 LYC4        0.0000 
     18 NZ        -46.2720  105.0020   38.0780 N.4      13 LYL4        0.0000 
     19 N         -45.0155  104.5585   38.9255 N.am      2 SEC2        0.0000 
     20 N         -46.2720  105.0020   38.0780 N.am     12 SEL2        0.0000 
     21 N         -43.7590  104.1150   39.7730 N.am      7 SEP2        0.0000 
     22 N         -42.6835  106.1390   33.5985 N.am      2 SEC2        0.0000 
     23 N         -43.7860  105.3620   33.6110 N.am     12 SEL2        0.0000 
     24 N         -41.5810  106.9160   33.5860 N.am      7 SEP2        0.0000 
     25 N         -43.6610  106.3145   32.5810 N.am      2 SEC2        0.0000 
     26 N         -43.5360  107.2670   31.5510 N.am      7 SEP2        0.0000 
     27 Zn        -46.9330  103.7445   33.9945 Zn        4 ZIC7        0.0000 
     28 Zn        -45.9770  104.0280   33.8850 Zn       14 ZIL7        0.0000 
     29 N         -46.2045  104.8580   32.7975 N.am      2 SEC2        0.0000 
     30 N         -45.9770  104.0280   33.8850 N.am     12 SEL2        0.0000 
     31 N         -46.4320  105.6880   31.7100 N.am      7 SEP2        0.0000 
     32 N         -43.6730  105.9500   36.1740 N.am      2 SEC2        0.0000 
     33 N         -44.8540  104.7260   35.9170 N.am     12 SEL2        0.0000 
     34 N         -42.4920  107.1740   36.4310 N.am      7 SEP2        0.0000 
     35 NZ        -46.9420  101.0005   36.1770 N.4       3 LYC4        0.0000 
     36 NZ        -46.7610  101.2620   34.5320 N.4      13 LYL4        0.0000 
     37 Zn        -47.3250  102.3615   34.3180 Zn        4 ZIC7        0.0000 
     38 Zn        -46.7610  101.2620   34.5320 Zn       14 ZIL7        0.0000 
     39 NZ        -45.7395  100.4530   36.5645 N.4       3 LYC4        0.0000 
     40 NZ        -44.3560  100.1670   35.3070 N.4      13 LYL4        0.0000 
     41 Zn        -44.0360  101.1400   35.8485 Zn        4 ZIC7        0.0000 
     42 Zn        -44.3560  100.1670   35.3070 Zn       14 ZIL7        0.0000 
     43 Zn        -43.9835  102.4640   35.4605 Zn        4 ZIC7        0.0000 
     44 Zn        -44.2510  102.8150   34.5310 Zn       14 ZIL7        0.0000 
     45 CA        -40.9165  100.6670   32.3220 C.3       5 GLC5        0.0000 
     46 CA        -42.8450  101.1570   31.4890 C.3      15 GLL5        0.0000 
     47 CA        -38.9880  100.1770   33.1550 C.3      10 GLP5        0.0000 
     48 N         -40.0580  103.8030   30.5480 N.am      2 SEC2        0.0000 
     49 N         -41.1730  103.7680   29.8410 N.am     12 SEL2        0.0000 
     50 N         -38.9430  103.8380   31.2550 N.am      7 SEP2        0.0000 
     51 O         -41.4640  104.8375   28.8650 O.2       1 ALC1        0.0000 
     52 O         -41.1730  103.7680   29.8410 O.2      11 ALL1        0.0000 
     53 O         -41.7550  105.9070   27.8890 O.2       6 ALP1        0.0000 
     54 CA        -42.9170  100.4595   27.7515 C.3       5 GLC5        0.0000 
     55 CA        -42.8950  101.9050   28.9310 C.3      15 GLL5        0.0000 
     56 CA        -42.9390   99.0140   26.5720 C.3      10 GLP5        0.0000 
     57 CA        -47.8225  102.3765   24.4435 C.3       5 GLC5        0.0000 
     58 CA        -47.3290  102.5720   26.2920 C.3      15 GLL5        0.0000 
     59 CA        -48.3160  102.1810   22.5950 C.3      10 GLP5        0.0000 
     60 O         -49.4605  102.7465   25.3670 O.2       1 ALC1        0.0000 
     61 O         -48.4670  102.1250   26.0830 O.2      11 ALL1        0.0000 
     62 O         -50.4540  103.3680   24.6510 O.2       6 ALP1        0.0000 
     63 N         -47.5500  104.1125   24.4740 N.am      2 SEC2        0.0000 
     64 N         -46.8020  103.7100   25.6180 N.am     12 SEL2        0.0000 
     65 N         -48.2980  104.5150   23.3300 N.am      7 SEP2        0.0000 
     66 CA        -43.4605  104.1470   25.6840 C.3       5 GLC5        0.0000 
     67 CA        -45.5020  104.2890   25.7980 C.3      15 GLL5        0.0000 
     68 CA        -41.4190  104.0050   25.5700 C.3      10 GLP5        0.0000 
     69 CA        -44.6985  106.0015   26.6630 C.3       5 GLC5        0.0000 
     70 CA        -43.8950  107.7140   27.5280 C.3      10 GLP5        0.0000 
     71 CA        -46.3630  105.4805   24.6700 C.3       5 GLC5        0.0000 
     72 CA        -47.2240  106.6720   23.5420 C.3      10 GLP5        0.0000 
     73 CA        -44.8080  103.2245   24.3945 C.3       5 GLC5        0.0000 
     74 CA        -44.1140  102.1600   22.9910 C.3      10 GLP5        0.0000 
     75 CA        -43.2475  103.3065   26.4860 C.3       5 GLC5        0.0000 
     76 CA        -45.0760  102.6080   27.4020 C.3      15 GLL5        0.0000 
     77 CA        -45.9550  103.9795   28.8965 C.3       5 GLC5        0.0000 
     78 CA        -46.8340  105.3510   30.3910 C.3      10 GLP5        0.0000 
     79 CA        -44.0075  100.8110   26.9870 C.3       5 GLC5        0.0000 
     80 CA        -42.3845  104.8573   30.9540 C.3       5 GLC5        0.0000 
     81 CA        -42.4430  103.0560   29.9410 C.3      15 GLL5        0.0000 
     82 CA        -42.2260  106.8450   31.2170 C.3      10 GLP5        0.0000 
     83 CA        -40.8045  103.4158   31.6915 C.3       5 GLC5        0.0000 
     84 CA        -39.0660  103.9620   32.6920 C.3      10 GLP5        0.0000 
     85 CA        -41.5735  103.0187   28.0450 C.3       5 GLC5        0.0000 
     86 CA        -40.4780  103.5570   26.6540 C.3      10 GLP5        0.0000 
@<TRIPOS>BOND
@<TRIPOS>SUBSTRUCTURE
     1 ALC1       51 GROUP        1 X    ALC  0     ROOT ALC X 1
     2 SEC2       14 GROUP        1 X    SEC  0     **** SEC X 2
     3 LYC4        1 GROUP        1 X    LYC  0     **** LYC X 4
     4 ZIC7        4 GROUP        1 X    ZIC  0     **** ZIC X 5
     5 GLC5       45 GROUP        1 X    GLC  0     **** GLC X 6
     6 ALP1       53 GROUP        1 Y    ALP  0     ROOT ALP Y 8
     7 SEP2       16 GROUP        1 Y    SEP  0     **** SEP Y 9
     8 LYP4        3 GROUP        1 Y    LYP  0     **** LYP Y 11
     9 ZIP7        6 GROUP        1 Y    ZIP  0     **** ZIP Y 12
    10 GLP5       47 GROUP        1 Y    GLP  0     **** GLP Y 13
    11 ALL1       52 GROUP        1 Z    ALL  0     ROOT ALL Z 15
    12 SEL2       15 GROUP        1 Z    SEL  0     **** SEL Z 16
    13 LYL4        2 GROUP        1 Z    LYL  0     **** LYL Z 18
    14 ZIL7        5 GROUP        1 Z    ZIL  0     **** ZIL Z 19
    15 GLL5       46 GROUP        1 Z    GLL  0     **** GLL Z 20
@<TRIPOS>SET

