#    Name: 1mb9_ATP_1_ligand
#    Modification time : Tue Mar 25 11:31:53 2014

@<TRIPOS>MOLECULE
1mb9_ATP_1_ligand
   43    45     1     0     0
SMALL
NO_CHARGES


@<TRIPOS>ATOM
      1 PG        -45.9570  104.0370   36.8480 P.3       1 ATP702      0.0000 
      2 O1G       -47.2070  103.7930   36.0270 O.co2     1 ATP702      0.0000 
      3 O2G       -45.4200  102.7290   37.3540 O.co2     1 ATP702      0.0000 
      4 O3G       -46.2720  105.0020   38.0780 O.co2     1 ATP702      0.0000 
      5 PB        -44.7070  104.4650   34.3320 P.3       1 ATP702      0.0000 
      6 O1B       -43.7860  105.3620   33.6110 O.co2     1 ATP702      0.0000 
      7 O2B       -45.9770  104.0280   33.8850 O.co2     1 ATP702      0.0000 
      8 O3B       -44.8540  104.7260   35.9170 O.3       1 ATP702      0.0000 
      9 PA        -45.0580  101.2880   34.3930 P.3       1 ATP702      0.0000 
     10 O1A       -46.7610  101.2620   34.5320 O.co2     1 ATP702      0.0000 
     11 O2A       -44.3560  100.1670   35.3070 O.co2     1 ATP702      0.0000 
     12 O3A       -44.2510  102.8150   34.5310 O.3       1 ATP702      0.0000 
     13 O5'       -44.7170  101.0530   33.2390 O.3       1 ATP702      0.0000 
     14 C5'       -43.6920  100.2750   32.6220 C.3       1 ATP702      0.0000 
     15 C4'       -42.8450  101.1570   31.4890 C.3       1 ATP702      0.0000 
     16 O4'       -42.4290  100.6430   30.0770 O.3       1 ATP702      0.0000 
     17 C3'       -42.6430  102.6830   31.4410 C.3       1 ATP702      0.0000 
     18 O3'       -41.6980  103.0770   32.3590 O.3       1 ATP702      0.0000 
     19 C2'       -42.4430  103.0560   29.9410 C.3       1 ATP702      0.0000 
     20 O2'       -41.1730  103.7680   29.8410 O.3       1 ATP702      0.0000 
     21 C1'       -42.8950  101.9050   28.9310 C.3       1 ATP702      0.0000 
     22 N9        -44.4000  101.8240   28.3810 N.pl3     1 ATP702      0.0000 
     23 C8        -45.3710  100.8340   28.7160 C.2       1 ATP702      0.0000 
     24 N7        -46.5100  100.8950   28.0920 N.2       1 ATP702      0.0000 
     25 C5        -46.3820  101.9880   27.2530 C.ar      1 ATP702      0.0000 
     26 C6        -47.3290  102.5720   26.2920 C.ar      1 ATP702      0.0000 
     27 N6        -48.4670  102.1250   26.0830 N.pl3     1 ATP702      0.0000 
     28 N1        -46.8020  103.7100   25.6180 N.ar      1 ATP702      0.0000 
     29 C2        -45.5020  104.2890   25.7980 C.ar      1 ATP702      0.0000 
     30 N3        -44.6150  103.7660   26.6810 N.ar      1 ATP702      0.0000 
     31 C4        -45.0760  102.6080   27.4020 C.ar      1 ATP702      0.0000 
     32 H         -44.0686   99.4133   32.0650 H         1 ATP702      0.0000 
     33 H         -42.9254   99.9254   33.3183 H         1 ATP702      0.0000 
     34 H         -41.6181  100.9206   32.0161 H         1 ATP702      0.0000 
     35 H         -43.6649  103.0885   31.7025 H         1 ATP702      0.0000 
     36 H         -43.2777  103.8828   29.8084 H         1 ATP702      0.0000 
     37 H         -42.1376  101.8126   28.2044 H         1 ATP702      0.0000 
     38 H         -45.1250  100.1396   29.4175 H         1 ATP702      0.0000 
     39 H         -49.1539  102.7899   25.7895 H         1 ATP702      0.0000 
     40 H         -48.5875  101.1430   26.2282 H         1 ATP702      0.0000 
     41 H         -45.2684  105.1214   25.2272 H         1 ATP702      0.0000 
     42 H         -40.9165  103.3783   31.8127 H         1 ATP702      0.0000 
     43 H         -41.4219  104.7114   29.6219 H         1 ATP702      0.0000 
@<TRIPOS>BOND
     1    2    1 ar   
     2    3    1 ar   
     3    4    1 ar   
     4    8    1 1    
     5    6    5 ar   
     6    7    5 ar   
     7    8    5 1    
     8   12    5 1    
     9   10    9 ar   
    10   11    9 ar   
    11   12    9 1    
    12   13    9 1    
    13   14   13 1    
    14   15   14 1    
    15   32   14 1    
    16   33   14 1    
    17   16   15 1    
    18   17   15 1    
    19   34   15 1    
    20   21   16 1    
    21   18   17 1    
    22   19   17 1    
    23   35   17 1    
    24   42   18 1    
    25   20   19 1    
    26   21   19 1    
    27   36   19 1    
    28   43   20 1    
    29   22   21 1    
    30   37   21 1    
    31   23   22 1    
    32   31   22 1    
    33   24   23 2    
    34   38   23 1    
    35   25   24 1    
    36   26   25 ar   
    37   31   25 ar   
    38   27   26 1    
    39   28   26 ar   
    40   39   27 1    
    41   40   27 1    
    42   29   28 ar   
    43   30   29 ar   
    44   41   29 1    
    45   31   30 ar   
@<TRIPOS>SUBSTRUCTURE
     1 ATP702      1 GROUP   
@<TRIPOS>SET

