#    Name: 2GYU_1_CAVITY_N1_ALL.mol2
#    Modification time : Mon Mar 10 15:42:19 2014

@<TRIPOS>MOLECULE
2GYU_1_CAVITY_N1_ALL.mol2
   85     0     5     0     0
SMALL
NO_CHARGES


@<TRIPOS>ATOM
      1 N          40.6499   23.1628    4.8455 N.2       2 ALA2        0.0000 
      2 CA         41.1997   20.9147    2.4178 C.3       4 GLY6        0.0000 
      3 N          40.4142   22.0056    3.0833 N.2       2 ALA2        0.0000 
      4 N          39.6287   23.0965    3.7487 N.2       2 ALA2        0.0000 
      5 O          38.8432   24.1874    4.4142 O.2       2 ALA2        0.0000 
      6 CZ         38.0577   25.2783    5.0797 C.ar      3 PHE5        0.0000 
      7 CZ         37.2721   26.3692    5.7452 C.ar      3 PHE5        0.0000 
      8 N          40.1786   20.8484    1.3210 N.2       2 ALA2        0.0000 
      9 N          39.3930   21.9393    1.9865 N.2       2 ALA2        0.0000 
     10 DU         38.6075   23.0302    2.6520 H         5 CUB7        0.0000 
     11 DU         37.8220   24.1211    3.3175 H         5 CUB7        0.0000 
     12 CZ         37.0365   25.2120    3.9830 C.ar      3 PHE5        0.0000 
     13 CZ         36.2509   26.3029    4.6485 C.ar      3 PHE5        0.0000 
     14 O          37.5863   22.9639    1.5553 O.2       2 ALA2        0.0000 
     15 N          36.8008   24.0548    2.2208 N.2       2 ALA2        0.0000 
     16 DU         36.0153   25.1457    2.8863 H         5 CUB7        0.0000 
     17 N          42.2036   23.0992    3.4026 N.2       2 ALA2        0.0000 
     18 N          41.9680   21.9421    1.6404 N.2       2 ALA2        0.0000 
     19 DU         41.1824   23.0330    2.3059 H         5 CUB7        0.0000 
     20 DU         40.3969   24.1239    2.9714 H         5 CUB7        0.0000 
     21 O          40.9468   21.8758    0.5437 O.2       2 ALA2        0.0000 
     22 CA         40.1612   22.9667    1.2092 C.3       4 GLY6        0.0000 
     23 DU         39.3757   24.0576    1.8746 H         5 CUB7        0.0000 
     24 CA         39.6460   20.9782    3.8606 C.3       4 GLY6        0.0000 
     25 O          38.8605   22.0691    4.5261 O.2       2 ALA2        0.0000 
     26 CA         38.6248   20.9119    2.7639 C.3       4 GLY6        0.0000 
     27 O          37.8393   22.0028    3.4294 O.2       2 ALA2        0.0000 
     28 O          37.0538   23.0937    4.0949 O.2       2 ALA2        0.0000 
     29 N          36.8181   21.9365    2.3327 N.2       2 ALA2        0.0000 
     30 N          36.0326   23.0274    2.9982 N.2       2 ALA2        0.0000 
     31 OG         30.0880   20.2021   10.7557 O.2       1 SER1        0.0000 
     32 CZ         29.3025   21.2930   11.4212 C.ar      3 PHE5        0.0000 
     33 CZ         28.5169   22.3839   12.0867 C.ar      3 PHE5        0.0000 
     34 CZ         28.2813   21.2267   10.3245 C.ar      3 PHE5        0.0000 
     35 CA         38.8339   20.2767   10.8139 C.3       4 GLY6        0.0000 
     36 CA         38.5982   19.1195    9.0517 C.3       4 GLY6        0.0000 
     37 CA         37.8127   20.2104    9.7172 C.3       4 GLY6        0.0000 
     38 CZ         37.0272   21.3013   10.3827 C.ar      3 PHE5        0.0000 
     39 O          36.7915   20.1441    8.6205 O.2       2 ALA2        0.0000 
     40 CZ         36.0060   21.2350    9.2860 C.ar      3 PHE5        0.0000 
     41 CZ         35.2205   22.3259    9.9515 C.ar      3 PHE5        0.0000 
     42 O          35.7704   20.0778    7.5238 O.2       2 ALA2        0.0000 
     43 O          34.9848   21.1687    8.1893 O.2       2 ALA2        0.0000 
     44 CZ         34.1993   22.2596    8.8548 C.ar      3 PHE5        0.0000 
     45 N          34.7492   20.0115    6.4271 N.2       2 ALA2        0.0000 
     46 CZ         33.9636   21.1024    7.0925 C.ar      3 PHE5        0.0000 
     47 CZ         33.1781   22.1933    7.7580 C.ar      3 PHE5        0.0000 
     48 CZ         32.3926   23.2843    8.4235 C.ar      3 PHE5        0.0000 
     49 CA         33.7280   19.9453    5.3303 C.3       4 GLY6        0.0000 
     50 CA         32.9425   21.0362    5.9958 C.3       4 GLY6        0.0000 
     51 CA         32.1569   22.1271    6.6613 C.3       4 GLY6        0.0000 
     52 CA         31.3714   23.2180    7.3268 C.3       4 GLY6        0.0000 
     53 CA         31.9213   20.9699    4.8991 C.3       4 GLY6        0.0000 
     54 CA         31.1358   22.0608    5.5646 C.3       4 GLY6        0.0000 
     55 CA         36.5478   25.0159    0.3467 C.3       4 GLY6        0.0000 
     56 CA         38.0657   19.2493   11.5913 C.3       4 GLY6        0.0000 
     57 CZ         37.0445   19.1830   10.4946 C.ar      3 PHE5        0.0000 
     58 CZ         36.2590   20.2739   11.1601 C.ar      3 PHE5        0.0000 
     59 CZ         36.0233   19.1167    9.3979 C.ar      3 PHE5        0.0000 
     60 CZ         35.2378   20.2076   10.0634 C.ar      3 PHE5        0.0000 
     61 CZ         34.2166   20.1413    8.9667 C.ar      3 PHE5        0.0000 
     62 OG         33.4311   21.2322    9.6321 O.2       1 SER1        0.0000 
     63 CZ         33.1954   20.0751    7.8699 C.ar      3 PHE5        0.0000 
     64 OG         32.4099   21.1660    8.5354 O.2       1 SER1        0.0000 
     65 OG         31.6244   22.2569    9.2009 O.2       1 SER1        0.0000 
     66 CZ         30.8389   23.3478    9.8664 C.ar      3 PHE5        0.0000 
     67 O          32.1743   20.0088    6.7732 O.2       2 ALA2        0.0000 
     68 CZ         31.3887   21.0997    7.4387 C.ar      3 PHE5        0.0000 
     69 CA         30.6032   22.1906    8.1042 C.3       4 GLY6        0.0000 
     70 CZ         29.8177   23.2815    8.7697 C.ar      3 PHE5        0.0000 
     71 CZ         30.3676   21.0334    6.3420 C.ar      3 PHE5        0.0000 
     72 CZ         29.5820   22.1243    7.0075 C.ar      3 PHE5        0.0000 
     73 CZ         31.6417   20.1386    9.3128 C.ar      3 PHE5        0.0000 
     74 OG         30.8562   21.2295    9.9783 O.2       1 SER1        0.0000 
     75 OG         30.0707   22.3204   10.6438 O.2       1 SER1        0.0000 
     76 CZ         29.2851   23.4113   11.3093 C.ar      3 PHE5        0.0000 
     77 CZ         30.6205   20.0723    8.2161 C.ar      3 PHE5        0.0000 
     78 CZ         29.8350   21.1632    8.8816 C.ar      3 PHE5        0.0000 
     79 CZ         29.0495   22.2541    9.5471 C.ar      3 PHE5        0.0000 
     80 CA         37.0711   20.9754    4.2068 C.3       4 GLY6        0.0000 
     81 N          34.4789   23.0909    4.4411 N.2       2 ALA2        0.0000 
     82 O          35.5174   21.0389    5.6497 O.2       2 ALA2        0.0000 
     83 N          34.4962   20.9726    4.5530 N.2       2 ALA2        0.0000 
     84 N          33.7107   22.0636    5.2184 N.2       2 ALA2        0.0000 
     85 N          32.9251   23.1545    5.8839 N.2       2 ALA2        0.0000 
@<TRIPOS>BOND
@<TRIPOS>SUBSTRUCTURE
     1 SER1       31 GROUP   
     2 ALA2        1 GROUP   
     3 PHE5        6 GROUP   
     4 GLY6        2 GROUP   
     5 CUB7       10 GROUP   
@<TRIPOS>SET

