#    Name: 2GYU_1_CAVITY_N1_6.mol2
#    Modification time : Mon Mar 10 15:42:19 2014

@<TRIPOS>MOLECULE
2GYU_1_CAVITY_N1_6.mol2
   60     0     4     0     0
SMALL
NO_CHARGES


@<TRIPOS>ATOM
      1 CZ         37.2721   26.3692    5.7452 C.ar      3 PHE5        0.0000 
      2 CZ         36.2509   26.3029    4.6485 C.ar      3 PHE5        0.0000 
      3 O          38.8605   22.0691    4.5261 O.2       2 ALA2        0.0000 
      4 O          37.8393   22.0028    3.4294 O.2       2 ALA2        0.0000 
      5 O          37.0538   23.0937    4.0949 O.2       2 ALA2        0.0000 
      6 N          36.0326   23.0274    2.9982 N.2       2 ALA2        0.0000 
      7 OG         30.0880   20.2021   10.7557 O.2       1 SER1        0.0000 
      8 CZ         29.3025   21.2930   11.4212 C.ar      3 PHE5        0.0000 
      9 CZ         28.5169   22.3839   12.0867 C.ar      3 PHE5        0.0000 
     10 CZ         28.2813   21.2267   10.3245 C.ar      3 PHE5        0.0000 
     11 CA         38.8339   20.2767   10.8139 C.3       4 GLY6        0.0000 
     12 CA         38.5982   19.1195    9.0517 C.3       4 GLY6        0.0000 
     13 CA         37.8127   20.2104    9.7172 C.3       4 GLY6        0.0000 
     14 CZ         37.0272   21.3013   10.3827 C.ar      3 PHE5        0.0000 
     15 O          36.7915   20.1441    8.6205 O.2       2 ALA2        0.0000 
     16 CZ         36.0060   21.2350    9.2860 C.ar      3 PHE5        0.0000 
     17 CZ         35.2205   22.3259    9.9515 C.ar      3 PHE5        0.0000 
     18 O          35.7704   20.0778    7.5238 O.2       2 ALA2        0.0000 
     19 O          34.9848   21.1687    8.1893 O.2       2 ALA2        0.0000 
     20 CZ         34.1993   22.2596    8.8548 C.ar      3 PHE5        0.0000 
     21 N          34.7492   20.0115    6.4271 N.2       2 ALA2        0.0000 
     22 CZ         33.9636   21.1024    7.0925 C.ar      3 PHE5        0.0000 
     23 CZ         33.1781   22.1933    7.7580 C.ar      3 PHE5        0.0000 
     24 CZ         32.3926   23.2843    8.4235 C.ar      3 PHE5        0.0000 
     25 CA         33.7280   19.9453    5.3303 C.3       4 GLY6        0.0000 
     26 CA         32.9425   21.0362    5.9958 C.3       4 GLY6        0.0000 
     27 CA         32.1569   22.1271    6.6613 C.3       4 GLY6        0.0000 
     28 CA         31.3714   23.2180    7.3268 C.3       4 GLY6        0.0000 
     29 CA         31.9213   20.9699    4.8991 C.3       4 GLY6        0.0000 
     30 CA         31.1358   22.0608    5.5646 C.3       4 GLY6        0.0000 
     31 CA         38.0657   19.2493   11.5913 C.3       4 GLY6        0.0000 
     32 CZ         37.0445   19.1830   10.4946 C.ar      3 PHE5        0.0000 
     33 CZ         36.2590   20.2739   11.1601 C.ar      3 PHE5        0.0000 
     34 CZ         36.0233   19.1167    9.3979 C.ar      3 PHE5        0.0000 
     35 CZ         35.2378   20.2076   10.0634 C.ar      3 PHE5        0.0000 
     36 CZ         34.2166   20.1413    8.9667 C.ar      3 PHE5        0.0000 
     37 OG         33.4311   21.2322    9.6321 O.2       1 SER1        0.0000 
     38 CZ         33.1954   20.0751    7.8699 C.ar      3 PHE5        0.0000 
     39 OG         32.4099   21.1660    8.5354 O.2       1 SER1        0.0000 
     40 OG         31.6244   22.2569    9.2009 O.2       1 SER1        0.0000 
     41 CZ         30.8389   23.3478    9.8664 C.ar      3 PHE5        0.0000 
     42 O          32.1743   20.0088    6.7732 O.2       2 ALA2        0.0000 
     43 CZ         31.3887   21.0997    7.4387 C.ar      3 PHE5        0.0000 
     44 CA         30.6032   22.1906    8.1042 C.3       4 GLY6        0.0000 
     45 CZ         29.8177   23.2815    8.7697 C.ar      3 PHE5        0.0000 
     46 CZ         30.3676   21.0334    6.3420 C.ar      3 PHE5        0.0000 
     47 CZ         29.5820   22.1243    7.0075 C.ar      3 PHE5        0.0000 
     48 CZ         31.6417   20.1386    9.3128 C.ar      3 PHE5        0.0000 
     49 OG         30.8562   21.2295    9.9783 O.2       1 SER1        0.0000 
     50 OG         30.0707   22.3204   10.6438 O.2       1 SER1        0.0000 
     51 CZ         29.2851   23.4113   11.3093 C.ar      3 PHE5        0.0000 
     52 CZ         30.6205   20.0723    8.2161 C.ar      3 PHE5        0.0000 
     53 CZ         29.8350   21.1632    8.8816 C.ar      3 PHE5        0.0000 
     54 CZ         29.0495   22.2541    9.5471 C.ar      3 PHE5        0.0000 
     55 CA         37.0711   20.9754    4.2068 C.3       4 GLY6        0.0000 
     56 N          34.4789   23.0909    4.4411 N.2       2 ALA2        0.0000 
     57 O          35.5174   21.0389    5.6497 O.2       2 ALA2        0.0000 
     58 N          34.4962   20.9726    4.5530 N.2       2 ALA2        0.0000 
     59 N          33.7107   22.0636    5.2184 N.2       2 ALA2        0.0000 
     60 N          32.9251   23.1545    5.8839 N.2       2 ALA2        0.0000 
@<TRIPOS>BOND
@<TRIPOS>SUBSTRUCTURE
     1 SER1        7 GROUP   
     2 ALA2        3 GROUP   
     3 PHE5        1 GROUP   
     4 GLY6       11 GROUP   
@<TRIPOS>SET

