#    Name: 2gyu_HI6_1_ligand
#    Modification time : Tue Mar 25 15:12:17 2014

@<TRIPOS>MOLECULE
2gyu_HI6_1_ligand
   37    38     1     0     0
SMALL
NO_CHARGES


@<TRIPOS>ATOM
      1 O3         37.9220   18.4250    9.7200 O.2       1 HI6702      0.0000 
      2 C14        37.9610   19.5070   10.2600 C.2       1 HI6702      0.0000 
      3 N4         38.9500   19.8320   11.0940 N.am      1 HI6702      0.0000 
      4 C11        36.8460   20.4530    9.9350 C.ar      1 HI6702      0.0000 
      5 C10        36.5620   21.6200   10.6560 C.ar      1 HI6702      0.0000 
      6 C9         35.4820   22.4120   10.2520 C.ar      1 HI6702      0.0000 
      7 N3         34.7340   22.0320    9.1930 N.pl3     1 HI6702      0.0000 
      8 C13        35.0060   20.9210    8.4930 C.ar      1 HI6702      0.0000 
      9 C12        36.0670   20.1100    8.8470 C.ar      1 HI6702      0.0000 
     10 C8         33.6170   22.8210    8.6760 C.3       1 HI6702      0.0000 
     11 O2         32.7690   23.3750    9.6510 O.3       1 HI6702      0.0000 
     12 C7         31.4450   23.3400    9.1270 C.3       1 HI6702      0.0000 
     13 N2         30.7040   22.4120    9.9510 N.pl3     1 HI6702      0.0000 
     14 C2         30.6860   21.1030    9.6230 C.ar      1 HI6702      0.0000 
     15 C1         31.4110   20.5770    8.4220 C.2       1 HI6702      0.0000 
     16 N1         31.1710   20.8630    7.2060 N.2       1 HI6702      0.0000 
     17 O1         31.9460   20.2710    6.2230 O.3       1 HI6702      0.0000 
     18 C3         30.0010   20.1990   10.4490 C.ar      1 HI6702      0.0000 
     19 C4         29.3300   20.6730   11.5790 C.ar      1 HI6702      0.0000 
     20 C5         29.3680   22.0370   11.8800 C.ar      1 HI6702      0.0000 
     21 C6         30.0750   22.8940   11.0380 C.ar      1 HI6702      0.0000 
     22 H          38.9318   20.7639   11.4561 H         1 HI6702      0.0000 
     23 H          39.6207   19.1145   11.2821 H         1 HI6702      0.0000 
     24 H          37.1293   21.8850   11.4558 H         1 HI6702      0.0000 
     25 H          35.2756   23.2772   10.7738 H         1 HI6702      0.0000 
     26 H          34.4231   20.6515    7.6724 H         1 HI6702      0.0000 
     27 H          36.2741   19.2619    8.3074 H         1 HI6702      0.0000 
     28 H          33.0279   22.1742    7.9620 H         1 HI6702      0.0000 
     29 H          34.0350   23.6314    8.0099 H         1 HI6702      0.0000 
     30 H          31.4454   23.0012    8.0891 H         1 HI6702      0.0000 
     31 H          30.9832   24.3285    9.1682 H         1 HI6702      0.0000 
     32 H          32.1996   19.8945    8.7070 H         1 HI6702      0.0000 
     33 H          29.9946   19.2028   10.2236 H         1 HI6702      0.0000 
     34 H          28.8150   20.0268   12.1813 H         1 HI6702      0.0000 
     35 H          28.8861   22.3980   12.7022 H         1 HI6702      0.0000 
     36 H          30.1032   23.9052   11.2697 H         1 HI6702      0.0000 
     37 H          32.8621   20.6505    6.3523 H         1 HI6702      0.0000 
@<TRIPOS>BOND
     1    2    1 2    
     2    3    2 am   
     3    4    2 1    
     4   22    3 1    
     5   23    3 1    
     6    5    4 ar   
     7    9    4 ar   
     8    6    5 ar   
     9   24    5 1    
    10    7    6 ar   
    11   25    6 1    
    12    8    7 ar   
    13   10    7 1    
    14    9    8 ar   
    15   26    8 1    
    16   27    9 1    
    17   11   10 1    
    18   28   10 1    
    19   29   10 1    
    20   12   11 1    
    21   13   12 1    
    22   30   12 1    
    23   31   12 1    
    24   14   13 ar   
    25   21   13 ar   
    26   15   14 1    
    27   18   14 ar   
    28   16   15 2    
    29   32   15 1    
    30   17   16 1    
    31   37   17 1    
    32   19   18 ar   
    33   33   18 1    
    34   20   19 ar   
    35   34   19 1    
    36   21   20 ar   
    37   35   20 1    
    38   36   21 1    
@<TRIPOS>SUBSTRUCTURE
     1 HI6702      1 GROUP   
@<TRIPOS>SET

