#    Name: 3pdn_SFG_1_INTS_M
#    Modification time : Tue Mar 25 06:19:47 2014

@<TRIPOS>MOLECULE
3pdn_SFG_1_INTS_M
   61     0     9     0     0
SMALL
NO_CHARGES


@<TRIPOS>ATOM
      1 O          20.7800   18.6890   23.5635 O.2       1 ALC1        0.0000 
      2 O          19.5010   18.3370   23.0480 O.2       7 ALL1        0.0000 
      3 O          22.0590   19.0410   24.0790 O.2       4 ALP1        0.0000 
      4 O          19.0795   19.5355   23.6720 O.2       1 ALC1        0.0000 
      5 O          18.6580   20.7340   24.2960 O.2       4 ALP1        0.0000 
      6 CA         18.8670   16.9905   20.1720 C.3       3 GLC5        0.0000 
      7 CA         19.6100   18.4260   21.5710 C.3       9 GLL5        0.0000 
      8 CA         18.1240   15.5550   18.7730 C.3       6 GLP5        0.0000 
      9 N          21.7675   16.4270   23.0615 N.am      2 SEC2        0.0000 
     10 N          21.0390   16.4430   21.8690 N.am      8 SEL2        0.0000 
     11 N          22.4960   16.4110   24.2540 N.am      5 SEP2        0.0000 
     12 N          22.1240   16.7890   19.6205 N.am      2 SEC2        0.0000 
     13 N          20.9740   17.3850   19.8920 N.am      8 SEL2        0.0000 
     14 N          23.2740   16.1930   19.3490 N.am      5 SEP2        0.0000 
     15 CA         21.5925   21.0375   20.6900 C.3       3 GLC5        0.0000 
     16 CA         20.0350   19.8610   21.1750 C.3       9 GLL5        0.0000 
     17 CA         23.1500   22.2140   20.2050 C.3       6 GLP5        0.0000 
     18 CA         18.6250   22.1705   22.6455 C.3       3 GLC5        0.0000 
     19 CA         18.7320   20.7220   20.9780 C.3       9 GLL5        0.0000 
     20 CA         18.5180   23.6190   24.3130 C.3       6 GLP5        0.0000 
     21 CA         15.3320   21.8280   20.6605 C.3       3 GLC5        0.0000 
     22 CA         16.3180   20.1330   20.1980 C.3       9 GLL5        0.0000 
     23 CA         14.3460   23.5230   21.1230 C.3       6 GLP5        0.0000 
     24 CA         16.4590   16.8700   20.2875 C.3       3 GLC5        0.0000 
     25 CA         15.9410   18.8700   21.0600 C.3       9 GLL5        0.0000 
     26 CA         16.9770   14.8700   19.5150 C.3       6 GLP5        0.0000 
     27 CA         12.6300   19.5035   21.1005 C.3       3 GLC5        0.0000 
     28 CA         14.4610   18.7840   21.4910 C.3       9 GLL5        0.0000 
     29 CA         10.7990   20.2230   20.7100 C.3       6 GLP5        0.0000 
     30 N          13.5305   16.7815   20.0820 N.am      2 SEC2        0.0000 
     31 N          13.6910   18.1830   20.4570 N.am      8 SEL2        0.0000 
     32 N          13.3700   15.3800   19.7070 N.am      5 SEP2        0.0000 
     33 O          12.5370   17.8040   20.9670 O.2       1 ALC1        0.0000 
     34 O          13.6910   18.1830   20.4570 O.2       7 ALL1        0.0000 
     35 O          11.3830   17.4250   21.4770 O.2       4 ALP1        0.0000 
     36 N          14.1340   15.9685   21.0890 N.am      2 SEC2        0.0000 
     37 N          14.8980   16.5570   22.4710 N.am      8 SEL2        0.0000 
     38 N          15.9095   23.2070   24.8510 N.am      2 SEC2        0.0000 
     39 N          15.4700   21.8080   24.9630 N.am      8 SEL2        0.0000 
     40 N          16.3490   24.6060   24.7390 N.am      5 SEP2        0.0000 
     41 CA         16.8685   21.8775   25.7970 C.3       3 GLC5        0.0000 
     42 CA         15.0380   20.9900   26.0120 C.3       9 GLL5        0.0000 
     43 CA         18.6990   22.7650   25.5820 C.3       6 GLP5        0.0000 
     44 CA         14.4870   22.9815   25.2765 C.3       3 GLC5        0.0000 
     45 CA         13.9360   24.9730   24.5410 C.3       6 GLP5        0.0000 
     46 O          14.8555   23.8700   27.6235 O.2       1 ALC1        0.0000 
     47 O          14.4870   22.4990   27.9310 O.2       7 ALL1        0.0000 
     48 O          15.2240   25.2410   27.3160 O.2       4 ALP1        0.0000 
     49 CA         16.0920   18.6945   27.7560 C.3       3 GLC5        0.0000 
     50 CA         14.3220   18.8520   27.5980 C.3       9 GLL5        0.0000 
     51 CA         17.8620   18.5370   27.9140 C.3       6 GLP5        0.0000 
     52 CA         12.7315   18.3675   26.6475 C.3       3 GLC5        0.0000 
     53 CA         11.1410   17.8830   25.6970 C.3       6 GLP5        0.0000 
     54 CA         16.4725   19.0920   26.7255 C.3       3 GLC5        0.0000 
     55 CA         15.0830   19.6470   25.5370 C.3       9 GLL5        0.0000 
     56 CA         13.1120   18.7650   25.6170 C.3       3 GLC5        0.0000 
     57 CA         13.3760   19.1554   23.4931 C.3       3 GLC5        0.0000 
     58 CA         14.4750   17.8990   22.7820 C.3       9 GLL5        0.0000 
     59 CA         11.6340   19.8590   24.2120 C.3       6 GLP5        0.0000 
     60 CA         16.3795   20.8888   27.8543 C.3       3 GLC5        0.0000 
     61 CA         17.9410   20.6800   29.0240 C.3       6 GLP5        0.0000 
@<TRIPOS>BOND
@<TRIPOS>SUBSTRUCTURE
     1 ALC1        1 GROUP        1 X    ALC  0     ROOT ALC X 1
     2 SEC2        9 GROUP        1 X    SEC  0     **** SEC X 2
     3 GLC5        6 GROUP        1 X    GLC  0     **** GLC X 6
     4 ALP1        3 GROUP        1 Y    ALP  0     ROOT ALP Y 8
     5 SEP2       11 GROUP        1 Y    SEP  0     **** SEP Y 9
     6 GLP5        8 GROUP        1 Y    GLP  0     **** GLP Y 13
     7 ALL1        2 GROUP        1 Z    ALL  0     ROOT ALL Z 15
     8 SEL2       10 GROUP        1 Z    SEL  0     **** SEL Z 16
     9 GLL5        7 GROUP        1 Z    GLL  0     **** GLL Z 20
@<TRIPOS>SET

