#    Name: 3pdn_SFG_1_ligand
#    Modification time : Tue Mar 25 06:19:47 2014

@<TRIPOS>MOLECULE
3pdn_SFG_1_ligand
   48    50     1     0     0
SMALL
NO_CHARGES


@<TRIPOS>ATOM
      1 N          19.5010   18.3370   23.0480 N.4       1 SFG429      0.0000 
      2 CA         19.6100   18.4260   21.5710 C.3       1 SFG429      0.0000 
      3 C          20.6150   17.3530   21.1070 C.2       1 SFG429      0.0000 
      4 O          21.0390   16.4430   21.8690 O.co2     1 SFG429      0.0000 
      5 OXT        20.9740   17.3850   19.8920 O.co2     1 SFG429      0.0000 
      6 CB         20.0350   19.8610   21.1750 C.3       1 SFG429      0.0000 
      7 CG         18.7320   20.7220   20.9780 C.3       1 SFG429      0.0000 
      8 CD         17.8400   20.2390   19.6670 C.3       1 SFG429      0.0000 
      9 NE         17.8180   21.4240   18.7900 N.3       1 SFG429      0.0000 
     10 C5'        16.3180   20.1330   20.1980 C.3       1 SFG429      0.0000 
     11 C4'        15.9410   18.8700   21.0600 C.3       1 SFG429      0.0000 
     12 O4'        16.5860   19.0210   22.3260 O.3       1 SFG429      0.0000 
     13 C3'        14.4610   18.7840   21.4910 C.3       1 SFG429      0.0000 
     14 O3'        13.6910   18.1830   20.4570 O.3       1 SFG429      0.0000 
     15 C2'        14.4750   17.8990   22.7820 C.3       1 SFG429      0.0000 
     16 O2'        14.8980   16.5570   22.4710 O.3       1 SFG429      0.0000 
     17 C1'        15.7680   18.5620   23.4120 C.3       1 SFG429      0.0000 
     18 N9         15.5070   19.7210   24.2570 N.pl3     1 SFG429      0.0000 
     19 C8         15.7470   21.0370   23.9150 C.2       1 SFG429      0.0000 
     20 N7         15.4700   21.8080   24.9630 N.2       1 SFG429      0.0000 
     21 C5         15.0380   20.9900   26.0120 C.ar      1 SFG429      0.0000 
     22 C6         14.5980   21.2050   27.3570 C.ar      1 SFG429      0.0000 
     23 N6         14.4870   22.4990   27.9310 N.pl3     1 SFG429      0.0000 
     24 N1         14.2470   20.1110   28.0850 N.ar      1 SFG429      0.0000 
     25 C2         14.3220   18.8520   27.5980 C.ar      1 SFG429      0.0000 
     26 N3         14.7260   18.5940   26.3240 N.ar      1 SFG429      0.0000 
     27 C4         15.0830   19.6470   25.5370 C.ar      1 SFG429      0.0000 
     28 H          18.6528   18.2134   21.1288 H         1 SFG429      0.0000 
     29 H          20.5729   19.8364   20.2500 H         1 SFG429      0.0000 
     30 H          20.6175   20.2953   21.9609 H         1 SFG429      0.0000 
     31 H          18.9931   21.7550   20.8127 H         1 SFG429      0.0000 
     32 H          18.0925   20.6274   21.8410 H         1 SFG429      0.0000 
     33 H          18.1681   19.4113   19.3026 H         1 SFG429      0.0000 
     34 H          15.6590   20.1709   19.3139 H         1 SFG429      0.0000 
     35 H          16.1128   21.0420   20.7888 H         1 SFG429      0.0000 
     36 H          16.2296   17.9942   20.5826 H         1 SFG429      0.0000 
     37 H          14.1412   19.7532   21.7653 H         1 SFG429      0.0000 
     38 H          13.7098   18.0602   23.3527 H         1 SFG429      0.0000 
     39 H          16.2863   17.7930   23.9579 H         1 SFG429      0.0000 
     40 H          16.0640   21.3214   23.0484 H         1 SFG429      0.0000 
     41 H          13.8062   22.6017   28.6562 H         1 SFG429      0.0000 
     42 H          15.0990   23.1982   27.5615 H         1 SFG429      0.0000 
     43 H          14.0606   18.0433   28.2204 H         1 SFG429      0.0000 
     44 H          20.3814   18.4941   23.4955 H         1 SFG429      0.0000 
     45 H          18.8612   19.0125   23.4146 H         1 SFG429      0.0000 
     46 H          19.1786   17.4376   23.3431 H         1 SFG429      0.0000 
     47 H          12.8431   17.8933   20.9010 H         1 SFG429      0.0000 
     48 H          14.2183   15.9647   22.9037 H         1 SFG429      0.0000 
@<TRIPOS>BOND
     1    2    1 1    
     2   44    1 1    
     3   45    1 1    
     4   46    1 1    
     5    3    2 1    
     6    6    2 1    
     7   28    2 1    
     8    4    3 ar   
     9    5    3 ar   
    10    7    6 1    
    11   29    6 1    
    12   30    6 1    
    13    8    7 1    
    14   31    7 1    
    15   32    7 1    
    16    9    8 1    
    17   10    8 1    
    18   33    8 1    
    19   11   10 1    
    20   34   10 1    
    21   35   10 1    
    22   12   11 1    
    23   13   11 1    
    24   36   11 1    
    25   17   12 1    
    26   14   13 1    
    27   15   13 1    
    28   37   13 1    
    29   47   14 1    
    30   16   15 1    
    31   17   15 1    
    32   38   15 1    
    33   48   16 1    
    34   18   17 1    
    35   39   17 1    
    36   19   18 1    
    37   27   18 1    
    38   20   19 2    
    39   40   19 1    
    40   21   20 1    
    41   22   21 ar   
    42   27   21 ar   
    43   23   22 1    
    44   24   22 ar   
    45   41   23 1    
    46   42   23 1    
    47   25   24 ar   
    48   26   25 ar   
    49   43   25 1    
    50   27   26 ar   
@<TRIPOS>SUBSTRUCTURE
     1 SFG429      1 GROUP   
@<TRIPOS>SET

