#    Name: 1H3A_2_CAVITY_N1_ALL.mol2
#    Modification time : Tue Mar 11 03:57:20 2014

@<TRIPOS>MOLECULE
1H3A_2_CAVITY_N1_ALL.mol2
   96     0     6     0     0
SMALL
NO_CHARGES


@<TRIPOS>ATOM
      1 OG         50.6392   18.4355   60.3954 O.2       1 SER1        0.0000 
      2 OG         51.7694   17.4496   60.4178 O.2       1 SER1        0.0000 
      3 N          50.1556   17.8518   59.1010 N.2       2 ALA2        0.0000 
      4 CZ         51.2859   16.8658   59.1234 C.ar      4 PHE5        0.0000 
      5 OG         49.6721   17.2681   57.8066 O.2       1 SER1        0.0000 
      6 CA         51.5008   17.2646   65.8163 C.3       5 GLY6        0.0000 
      7 CA         48.7569   18.6529   64.4770 C.3       5 GLY6        0.0000 
      8 OG         49.8871   17.6669   64.4995 O.2       1 SER1        0.0000 
      9 OG         49.4036   17.0832   63.2051 O.2       1 SER1        0.0000 
     10 OG         50.5338   16.0972   63.2275 O.2       1 SER1        0.0000 
     11 OG         48.9200   16.4994   61.9107 O.2       1 SER1        0.0000 
     12 CZ         50.0503   15.5135   61.9331 C.ar      4 PHE5        0.0000 
     13 CA         47.3063   16.9017   60.5938 C.3       5 GLY6        0.0000 
     14 DU         48.4365   15.9157   60.6163 H         6 CUB7        0.0000 
     15 CZ         49.5667   14.9297   60.6387 C.ar      4 PHE5        0.0000 
     16 NZ         46.8228   16.3180   59.2994 N.2       3 LYS4        0.0000 
     17 NZ         47.9530   15.3320   59.3219 N.2       3 LYS4        0.0000 
     18 CZ         49.3479   19.4360   69.1179 C.ar      4 PHE5        0.0000 
     19 CA         50.4781   18.4500   69.1403 C.3       5 GLY6        0.0000 
     20 CA         46.6040   20.8242   67.7786 C.3       5 GLY6        0.0000 
     21 CZ         47.7342   19.8382   67.8010 C.ar      4 PHE5        0.0000 
     22 CA         48.8644   18.8522   67.8235 C.3       5 GLY6        0.0000 
     23 CA         49.9946   17.8663   67.8459 C.3       5 GLY6        0.0000 
     24 CA         51.1248   16.8803   67.8684 C.3       5 GLY6        0.0000 
     25 CA         47.2506   19.2545   66.5066 C.3       5 GLY6        0.0000 
     26 CA         48.3808   18.2685   66.5291 C.3       5 GLY6        0.0000 
     27 CA         49.5111   17.2825   66.5515 C.3       5 GLY6        0.0000 
     28 CA         50.6413   16.2966   66.5740 C.3       5 GLY6        0.0000 
     29 CZ         47.8973   17.6848   65.2347 C.ar      4 PHE5        0.0000 
     30 OG         49.0275   16.6988   65.2571 O.2       1 SER1        0.0000 
     31 CZ         50.1577   15.7129   65.2796 C.ar      4 PHE5        0.0000 
     32 CZ         47.4138   17.1011   63.9403 C.ar      4 PHE5        0.0000 
     33 CZ         48.5440   16.1151   63.9627 C.ar      4 PHE5        0.0000 
     34 CZ         49.6742   15.1291   63.9852 C.ar      4 PHE5        0.0000 
     35 CZ         46.9303   16.5173   62.6459 C.ar      4 PHE5        0.0000 
     36 CZ         48.0605   15.5314   62.6683 C.ar      4 PHE5        0.0000 
     37 CZ         49.1907   14.5454   62.6908 C.ar      4 PHE5        0.0000 
     38 CZ         46.4468   15.9336   61.3515 C.ar      4 PHE5        0.0000 
     39 DU         47.5770   14.9477   61.3739 H         6 CUB7        0.0000 
     40 CZ         48.7072   13.9617   61.3964 C.ar      4 PHE5        0.0000 
     41 O          45.9632   15.3499   60.0571 O.2       2 ALA2        0.0000 
     42 CA         47.0934   14.3639   60.0795 C.3       5 GLY6        0.0000 
     43 CA         45.1555   16.9340   70.0740 C.3       5 GLY6        0.0000 
     44 CA         44.6720   16.3503   68.7796 C.3       5 GLY6        0.0000 
     45 CA         45.8022   15.3644   68.8020 C.3       5 GLY6        0.0000 
     46 CZ         44.1884   15.7666   67.4852 C.ar      4 PHE5        0.0000 
     47 OG         45.3186   14.7806   67.5076 O.2       1 SER1        0.0000 
     48 OG         46.4488   13.7947   67.5300 O.2       1 SER1        0.0000 
     49 OG         49.7796   17.4675   61.1530 O.2       1 SER1        0.0000 
     50 OG         50.9098   16.4815   61.1755 O.2       1 SER1        0.0000 
     51 CA         49.2961   16.8838   59.8586 C.3       5 GLY6        0.0000 
     52 CZ         50.4263   15.8978   59.8811 C.ar      4 PHE5        0.0000 
     53 NZ         48.8126   16.3000   58.5642 N.2       3 LYS4        0.0000 
     54 CZ         49.9428   15.3141   58.5867 C.ar      4 PHE5        0.0000 
     55 DU         46.4986   18.4858   70.6107 H         6 CUB7        0.0000 
     56 CA         47.6288   17.4999   70.6332 C.3       5 GLY6        0.0000 
     57 CZ         44.8848   18.8881   69.2939 C.ar      4 PHE5        0.0000 
     58 DU         46.0150   17.9021   69.3163 H         6 CUB7        0.0000 
     59 CA         47.1452   16.9161   69.3388 C.3       5 GLY6        0.0000 
     60 CZ         44.4013   18.3043   67.9995 C.ar      4 PHE5        0.0000 
     61 DU         45.5315   17.3184   68.0219 H         6 CUB7        0.0000 
     62 CA         46.6617   16.3324   68.0444 C.3       5 GLY6        0.0000 
     63 CA         47.7919   15.3464   68.0668 C.3       5 GLY6        0.0000 
     64 CA         48.9221   14.3605   68.0893 C.3       5 GLY6        0.0000 
     65 CZ         45.0480   16.7347   66.7275 C.ar      4 PHE5        0.0000 
     66 OG         46.1782   15.7487   66.7500 O.2       1 SER1        0.0000 
     67 OG         47.3084   14.7627   66.7724 O.2       1 SER1        0.0000 
     68 OG         48.4386   13.7767   66.7949 O.2       1 SER1        0.0000 
     69 OG         45.6947   15.1650   65.4556 O.2       1 SER1        0.0000 
     70 CZ         46.5542   16.1330   64.6979 C.ar      4 PHE5        0.0000 
     71 OG         47.6844   15.1470   64.7204 O.2       1 SER1        0.0000 
     72 OG         48.8146   14.1611   64.7428 O.2       1 SER1        0.0000 
     73 CZ         46.0707   15.5493   63.4035 C.ar      4 PHE5        0.0000 
     74 OG         47.2009   14.5633   63.4260 O.2       1 SER1        0.0000 
     75 OG         48.3311   13.5774   63.4484 O.2       1 SER1        0.0000 
     76 CZ         45.5872   14.9656   62.1091 C.ar      4 PHE5        0.0000 
     77 OG         46.7174   13.9796   62.1316 O.2       1 SER1        0.0000 
     78 NZ         47.8476   12.9936   62.1540 N.2       3 LYS4        0.0000 
     79 CA         45.1037   14.3818   60.8147 C.3       5 GLY6        0.0000 
     80 NZ         46.2339   13.3959   60.8372 N.2       3 LYS4        0.0000 
     81 CZ         46.2279   20.4399   69.8306 C.ar      4 PHE5        0.0000 
     82 CZ         47.3581   19.4539   69.8531 C.ar      4 PHE5        0.0000 
     83 CZ         48.4883   18.4679   69.8755 C.ar      4 PHE5        0.0000 
     84 N          49.6185   17.4819   69.8980 N.2       2 ALA2        0.0000 
     85 CZ         45.7444   19.8561   68.5362 C.ar      4 PHE5        0.0000 
     86 DU         46.8746   18.8702   68.5587 H         6 CUB7        0.0000 
     87 DU         48.0048   17.8842   68.5811 H         6 CUB7        0.0000 
     88 CA         49.1350   16.8982   68.6036 C.3       5 GLY6        0.0000 
     89 CZ         45.2609   19.2724   67.2418 C.ar      4 PHE5        0.0000 
     90 CZ         46.3911   18.2864   67.2643 C.ar      4 PHE5        0.0000 
     91 DU         47.5213   17.3005   67.2867 H         6 CUB7        0.0000 
     92 CA         48.6515   16.3145   67.3092 C.3       5 GLY6        0.0000 
     93 OG         49.7817   15.3285   67.3316 O.2       1 SER1        0.0000 
     94 CZ         47.0378   16.7167   65.9923 C.ar      4 PHE5        0.0000 
     95 OG         48.1680   15.7308   66.0148 O.2       1 SER1        0.0000 
     96 CZ         49.2982   14.7448   66.0372 C.ar      4 PHE5        0.0000 
@<TRIPOS>BOND
@<TRIPOS>SUBSTRUCTURE
     1 SER1        1 GROUP   
     2 ALA2        3 GROUP   
     3 LYS4       16 GROUP   
     4 PHE5        4 GROUP   
     5 GLY6        6 GROUP   
     6 CUB7       14 GROUP   
@<TRIPOS>SET

