#    Name: 1h3a_R04_2_INTS_M
#    Modification time : Tue Mar 25 04:30:05 2014

@<TRIPOS>MOLECULE
1h3a_R04_2_INTS_M
   70     0     3     0     0
SMALL
NO_CHARGES


@<TRIPOS>ATOM
      1 CA         50.6370   15.4860   57.5715 C.3       1 GLC5        0.0000 
      2 CA         49.6750   16.3860   58.7690 C.3       3 GLL5        0.0000 
      3 CA         51.5990   14.5860   56.3740 C.3       2 GLP5        0.0000 
      4 CA         48.4250   14.7355   58.0665 C.3       1 GLC5        0.0000 
      5 CA         47.1750   13.0850   57.3640 C.3       2 GLP5        0.0000 
      6 CA         48.4700   18.0465   59.2240 C.3       1 GLC5        0.0000 
      7 CA         47.2650   19.7070   59.6790 C.3       2 GLP5        0.0000 
      8 CA         51.7720   15.3180   58.8240 C.3       1 GLC5        0.0000 
      9 CA         50.2010   15.6170   59.7320 C.3       3 GLL5        0.0000 
     10 CA         53.3430   15.0190   57.9160 C.3       2 GLP5        0.0000 
     11 CA         50.8270   13.7370   59.2555 C.3       1 GLC5        0.0000 
     12 CA         49.4030   14.6160   60.5500 C.3       3 GLL5        0.0000 
     13 CA         52.2510   12.8580   57.9610 C.3       2 GLP5        0.0000 
     14 CA         48.2890   13.8505   58.9570 C.3       1 GLC5        0.0000 
     15 CA         49.9495   13.9940   63.1005 C.3       1 GLC5        0.0000 
     16 CA         48.3270   15.3330   63.4440 C.3       3 GLL5        0.0000 
     17 CA         51.5720   12.6550   62.7570 C.3       2 GLP5        0.0000 
     18 CA         51.1410   15.0755   63.9435 C.3       1 GLC5        0.0000 
     19 CA         49.3350   15.7320   64.2410 C.3       3 GLL5        0.0000 
     20 CA         52.9470   14.4190   63.6460 C.3       2 GLP5        0.0000 
     21 CA         50.8880   13.8645   65.3240 C.3       1 GLC5        0.0000 
     22 CA         49.6420   15.0620   65.5650 C.3       3 GLL5        0.0000 
     23 CA         52.1340   12.6670   65.0830 C.3       2 GLP5        0.0000 
     24 CA         50.4775   18.5060   70.6480 C.3       1 GLC5        0.0000 
     25 CA         48.7780   18.1390   69.3530 C.3       3 GLL5        0.0000 
     26 CA         52.1770   18.8730   71.9430 C.3       2 GLP5        0.0000 
     27 CA         52.5605   17.6110   68.0560 C.3       1 GLC5        0.0000 
     28 CA         50.9730   17.7960   68.4820 C.3       3 GLL5        0.0000 
     29 CA         54.1480   17.4260   67.6300 C.3       2 GLP5        0.0000 
     30 CA         51.5750   18.3345   70.2125 C.3       1 GLC5        0.0000 
     31 CA         43.0925   22.0815   75.6820 C.3       1 GLC5        0.0000 
     32 CA         44.8570   21.7770   74.7410 C.3       3 GLL5        0.0000 
     33 CA         41.3280   22.3860   76.6230 C.3       2 GLP5        0.0000 
     34 CA         45.5710   19.8455   74.9405 C.3       1 GLC5        0.0000 
     35 CA         46.2850   17.9140   75.1400 C.3       2 GLP5        0.0000 
     36 CA         44.7115   23.4675   73.9845 C.3       1 GLC5        0.0000 
     37 CA         44.5660   25.1580   73.2280 C.3       2 GLP5        0.0000 
     38 CA         43.0420   15.8310   67.1380 C.3       1 GLC5        0.0000 
     39 CA         44.7250   15.9610   67.4760 C.3       3 GLL5        0.0000 
     40 CA         41.3590   15.7010   66.8000 C.3       2 GLP5        0.0000 
     41 CA         44.1885   14.4835   66.1820 C.3       1 GLC5        0.0000 
     42 CA         43.6520   13.0060   64.8880 C.3       2 GLP5        0.0000 
     43 CA         44.3375   16.9165   65.4845 C.3       1 GLC5        0.0000 
     44 CA         43.9500   17.8720   63.4930 C.3       2 GLP5        0.0000 
     45 CA         46.3615   12.1330   61.1235 C.3       1 GLC5        0.0000 
     46 CA         47.1050   13.9420   61.0690 C.3       3 GLL5        0.0000 
     47 CA         45.6180   10.3240   61.1780 C.3       2 GLP5        0.0000 
     48 CA         47.1400   13.5135   59.2165 C.3       1 GLC5        0.0000 
     49 CA         51.0515   14.4718   61.3555 C.3       1 GLC5        0.0000 
     50 CA         52.3010   13.8270   62.5700 C.3       2 GLP5        0.0000 
     51 CA         47.0763   17.2687   62.6960 C.3       1 GLC5        0.0000 
     52 CA         48.0020   16.0000   62.1140 C.3       3 GLL5        0.0000 
     53 CA         45.9880   18.8710   62.6130 C.3       2 GLP5        0.0000 
     54 CA         48.1562   15.4175   69.0143 C.3       1 GLC5        0.0000 
     55 CA         47.7840   16.3330   67.3220 C.3       3 GLL5        0.0000 
     56 CA         47.8290   14.3520   70.6620 C.3       2 GLP5        0.0000 
     57 CA         47.4865   15.8630   69.7000 C.3       1 GLC5        0.0000 
     58 CA         47.3810   17.8140   69.2330 C.3       3 GLL5        0.0000 
     59 CA         48.5265   16.0925   69.7735 C.3       1 GLC5        0.0000 
     60 CA         46.3180   18.7363   73.1965 C.3       1 GLC5        0.0000 
     61 CA         45.9010   19.0420   71.0490 C.3       3 GLL5        0.0000 
     62 CA         46.0830   19.3588   74.0345 C.3       1 GLC5        0.0000 
     63 CA         45.2720   20.7030   73.2860 C.3       3 GLL5        0.0000 
     64 CA         45.4085   18.5892   73.7320 C.3       1 GLC5        0.0000 
     65 CA         44.3740   19.6740   72.8780 C.3       3 GLL5        0.0000 
     66 CA         51.1849   16.1060   68.8155 C.3       1 GLC5        0.0000 
     67 CA         49.1830   16.6330   67.4110 C.3       3 GLL5        0.0000 
     68 CA         52.1700   14.7740   69.4330 C.3       2 GLP5        0.0000 
     69 CA         50.7134   18.7245   67.1085 C.3       1 GLC5        0.0000 
     70 CA         51.2270   20.0110   66.0190 C.3       2 GLP5        0.0000 
@<TRIPOS>BOND
@<TRIPOS>SUBSTRUCTURE
     1 GLC5        1 GROUP        1 X    GLC  0     ROOT GLC X 6
     2 GLP5        3 GROUP        1 Y    GLP  0     ROOT GLP Y 13
     3 GLL5        2 GROUP        1 Z    GLL  0     ROOT GLL Z 20
@<TRIPOS>SET

