#    Name: 1h3a_R04_2_ligand
#    Modification time : Tue Mar 25 04:30:06 2014

@<TRIPOS>MOLECULE
1h3a_R04_2_ligand
   50    52     1     0     0
SMALL
NO_CHARGES


@<TRIPOS>ATOM
      1 C3A        49.6750   16.3860   58.7690 C.2       1 R04800      0.0000 
      2 C2A        50.2010   15.6170   59.7320 C.2       1 R04800      0.0000 
      3 C1A        49.4030   14.6160   60.5500 C.3       1 R04800      0.0000 
      4 N1         48.0330   15.1020   60.9000 N.4       1 R04800      0.0000 
      5 C1B        48.0020   16.0000   62.1140 C.3       1 R04800      0.0000 
      6 C2B        48.3270   15.3330   63.4440 C.2       1 R04800      0.0000 
      7 C3B        49.3350   15.7320   64.2410 C.2       1 R04800      0.0000 
      8 C4B        49.6420   15.0620   65.5650 C.3       1 R04800      0.0000 
      9 O          50.1300   16.0570   66.5010 O.3       1 R04800      0.0000 
     10 C6C        49.1830   16.6330   67.4110 C.ar      1 R04800      0.0000 
     11 C7C        47.7840   16.3330   67.3220 C.ar      1 R04800      0.0000 
     12 C7P        46.9070   16.9340   68.2430 C.ar      1 R04800      0.0000 
     13 N1C        45.5840   16.7900   68.3290 N.pl3     1 R04800      0.0000 
     14 N2C        45.1930   17.4750   69.2550 N.2       1 R04800      0.0000 
     15 C3C        46.1800   18.1340   69.8690 C.2       1 R04800      0.0000 
     16 C3P        47.3810   17.8140   69.2330 C.ar      1 R04800      0.0000 
     17 C4C        48.7780   18.1390   69.3530 C.ar      1 R04800      0.0000 
     18 C5C        49.6700   17.5270   68.4170 C.ar      1 R04800      0.0000 
     19 C1D        45.9010   19.0420   71.0490 C.ar      1 R04800      0.0000 
     20 C6D        46.8010   20.0750   71.4570 C.ar      1 R04800      0.0000 
     21 C5D        46.4900   20.9040   72.5720 C.ar      1 R04800      0.0000 
     22 C4D        45.2720   20.7030   73.2860 C.ar      1 R04800      0.0000 
     23 C3D        44.3740   19.6740   72.8780 C.ar      1 R04800      0.0000 
     24 C2D        44.6900   18.8550   71.7700 C.ar      1 R04800      0.0000 
     25 F          50.9730   17.7960   68.4820 F         1 R04800      0.0000 
     26 BR27       44.8570   21.7770   74.7410 Br        1 R04800      0.0000 
     27 C1E        44.7250   15.9610   67.4760 C.3       1 R04800      0.0000 
     28 C1F        47.1050   13.9420   61.0690 C.3       1 R04800      0.0000 
     29 H          51.2151   15.6545   59.9904 H         1 R04800      0.0000 
     30 H          49.9625   14.3878   61.4731 H         1 R04800      0.0000 
     31 H          49.3280   13.6740   59.9806 H         1 R04800      0.0000 
     32 H          47.6563   15.6949   60.0384 H         1 R04800      0.0000 
     33 H          46.9956   16.4703   62.1913 H         1 R04800      0.0000 
     34 H          48.7122   16.8436   61.9590 H         1 R04800      0.0000 
     35 H          47.6990   14.5394   63.6825 H         1 R04800      0.0000 
     36 H          49.9650   16.5198   64.0037 H         1 R04800      0.0000 
     37 H          50.3887   14.2834   65.3941 H         1 R04800      0.0000 
     38 H          48.7289   14.5896   65.9340 H         1 R04800      0.0000 
     39 H          47.4480   15.7030   66.6099 H         1 R04800      0.0000 
     40 H          49.1035   18.7600   70.0548 H         1 R04800      0.0000 
     41 H          47.6708   20.2171   70.9445 H         1 R04800      0.0000 
     42 H          47.1324   21.6360   72.8586 H         1 R04800      0.0000 
     43 H          43.5036   19.5326   73.3896 H         1 R04800      0.0000 
     44 H          44.0409   18.1168   71.4803 H         1 R04800      0.0000 
     45 H          44.7798   16.2349   66.5158 H         1 R04800      0.0000 
     46 H          44.9792   14.9949   67.5201 H         1 R04800      0.0000 
     47 H          43.7637   16.0237   67.7443 H         1 R04800      0.0000 
     48 H          47.0333   13.3988   60.2325 H         1 R04800      0.0000 
     49 H          47.4103   13.3247   61.7941 H         1 R04800      0.0000 
     50 H          46.1798   14.2381   61.3064 H         1 R04800      0.0000 
@<TRIPOS>BOND
     1    2    1 2    
     2    3    2 1    
     3   29    2 1    
     4    4    3 1    
     5   30    3 1    
     6   31    3 1    
     7    5    4 1    
     8   28    4 1    
     9   32    4 1    
    10    6    5 1    
    11   33    5 1    
    12   34    5 1    
    13    7    6 2    
    14   35    6 1    
    15    8    7 1    
    16   36    7 1    
    17    9    8 1    
    18   37    8 1    
    19   38    8 1    
    20   10    9 1    
    21   11   10 ar   
    22   18   10 ar   
    23   12   11 ar   
    24   39   11 1    
    25   13   12 1    
    26   16   12 ar   
    27   14   13 1    
    28   27   13 1    
    29   15   14 2    
    30   16   15 1    
    31   19   15 1    
    32   17   16 ar   
    33   18   17 ar   
    34   40   17 1    
    35   25   18 1    
    36   20   19 ar   
    37   24   19 ar   
    38   21   20 ar   
    39   41   20 1    
    40   22   21 ar   
    41   42   21 1    
    42   23   22 ar   
    43   26   22 1    
    44   24   23 ar   
    45   43   23 1    
    46   44   24 1    
    47   45   27 1    
    48   46   27 1    
    49   47   27 1    
    50   48   28 1    
    51   49   28 1    
    52   50   28 1    
@<TRIPOS>SUBSTRUCTURE
     1 R04800      1 GROUP   
@<TRIPOS>SET

