#    Name: 3pm4_F5N_1_INTS_M
#    Modification time : Tue Mar 25 08:11:11 2014

@<TRIPOS>MOLECULE
3pm4_F5N_1_INTS_M
   44     0     9     0     0
SMALL
NO_CHARGES


@<TRIPOS>ATOM
      1 N          -0.7660    7.0400   10.6490 N.am      2 SEC2        0.0000 
      2 N           0.6100    6.4990   10.2100 N.am      8 SEL2        0.0000 
      3 N          -2.1420    7.5810   11.0880 N.am      5 SEP2        0.0000 
      4 CA          3.8610    4.5605    9.4120 C.3       3 GLC5        0.0000 
      5 CA          1.8870    4.6430    9.3990 C.3       9 GLL5        0.0000 
      6 CA          5.8350    4.4780    9.4250 C.3       6 GLP5        0.0000 
      7 CA         -2.2895    3.8515   11.1965 C.3       3 GLC5        0.0000 
      8 CA         -2.6480    2.5800    9.6060 C.3       9 GLL5        0.0000 
      9 CA         -1.9310    5.1230   12.7870 C.3       6 GLP5        0.0000 
     10 CA         -4.3870    3.9170    9.4590 C.3       3 GLC5        0.0000 
     11 CA         -6.1260    5.2540    9.3120 C.3       6 GLP5        0.0000 
     12 CA         -1.1940    3.5670   11.5365 C.3       3 GLC5        0.0000 
     13 CA         -0.4570    2.0110   10.2860 C.3       9 GLL5        0.0000 
     14 CA          0.7245    1.4195    8.6935 C.3       3 GLC5        0.0000 
     15 CA          1.9060    0.8280    7.1010 C.3       6 GLP5        0.0000 
     16 O           2.3470    2.1635    9.7995 O.2       1 ALC1        0.0000 
     17 O           0.7560    2.5470   10.2290 O.2       7 ALL1        0.0000 
     18 O           3.9380    1.7800    9.3700 O.2       4 ALP1        0.0000 
     19 O           1.8065    2.1015   10.7690 O.2       1 ALC1        0.0000 
     20 O           2.8570    1.6560   11.3090 O.2       4 ALP1        0.0000 
     21 O           2.5670    6.2750    7.6395 O.2       1 ALC1        0.0000 
     22 O           2.0670    6.9420    8.5710 O.2       7 ALL1        0.0000 
     23 O           3.0670    5.6080    6.7080 O.2       4 ALP1        0.0000 
     24 CA          1.5978    2.5103    8.3080 C.3       3 GLC5        0.0000 
     25 CA         -0.9407    4.4923   11.1242 C.3       3 GLC5        0.0000 
     26 CA          0.6920    3.7420    9.6310 C.3       9 GLL5        0.0000 
     27 CA         -0.1095    0.4670   12.0329 C.3       3 GLC5        0.0000 
     28 CA         -0.9160    0.7700   10.7650 C.3       9 GLL5        0.0000 
     29 CA          0.7990   -0.3820   13.5580 C.3       6 GLP5        0.0000 
     30 CA          4.0194    9.2114    7.7141 C.3       3 GLC5        0.0000 
     31 CA          1.8710    8.3260    8.6080 C.3       9 GLL5        0.0000 
     32 CA          5.4450    8.7810    6.5870 C.3       6 GLP5        0.0000 
     33 CA          2.7895   11.8947    7.4248 C.3       3 GLC5        0.0000 
     34 CA          2.7770   10.5360    8.9340 C.3       9 GLL5        0.0000 
     35 CA          3.4260   12.9810    6.0370 C.3       6 GLP5        0.0000 
     36 CA          0.3237   12.0215    7.2618 C.3       3 GLC5        0.0000 
     37 CA          1.5290   11.0810    8.6910 C.3       9 GLL5        0.0000 
     38 CA         -0.3430   13.3810    5.9610 C.3       6 GLP5        0.0000 
     39 CA         -1.0525    9.0475    9.2630 C.3       3 GLC5        0.0000 
     40 CA          0.4520   10.2430    8.4340 C.3       9 GLL5        0.0000 
     41 CA         -2.6380    8.5410   10.1220 C.3       6 GLP5        0.0000 
     42 CA          1.1067    9.6051    6.7154 C.3       3 GLC5        0.0000 
     43 CA          0.6140    8.8650    8.3740 C.3       9 GLL5        0.0000 
     44 CA          0.9620    9.4760    4.8690 C.3       6 GLP5        0.0000 
@<TRIPOS>BOND
@<TRIPOS>SUBSTRUCTURE
     1 ALC1       16 GROUP        1 X    ALC  0     ROOT ALC X 1
     2 SEC2        1 GROUP        1 X    SEC  0     **** SEC X 2
     3 GLC5        4 GROUP        1 X    GLC  0     **** GLC X 6
     4 ALP1       18 GROUP        1 Y    ALP  0     ROOT ALP Y 8
     5 SEP2        3 GROUP        1 Y    SEP  0     **** SEP Y 9
     6 GLP5        6 GROUP        1 Y    GLP  0     **** GLP Y 13
     7 ALL1       17 GROUP        1 Z    ALL  0     ROOT ALL Z 15
     8 SEL2        2 GROUP        1 Z    SEL  0     **** SEL Z 16
     9 GLL5        5 GROUP        1 Z    GLL  0     **** GLL Z 20
@<TRIPOS>SET

