#    Name: 3pm4_F5N_1_ligand
#    Modification time : Tue Mar 25 08:11:11 2014

@<TRIPOS>MOLECULE
3pm4_F5N_1_ligand
   33    35     1     0     0
SMALL
NO_CHARGES


@<TRIPOS>ATOM
      1 O1          0.6100    6.4990   10.2100 O.2       1 F5N2001     0.0000 
      2 C2          1.4660    6.0960    9.4310 C.2       1 F5N2001     0.0000 
      3 C3          1.8870    4.6430    9.3990 C.3       1 F5N2001     0.0000 
      4 C4          0.6920    3.7420    9.6310 C.2       1 F5N2001     0.0000 
      5 C5         -0.5930    3.9810    9.2920 C.2       1 F5N2001     0.0000 
      6 N6         -1.3180    2.8890    9.6920 N.pl3     1 F5N2001     0.0000 
      7 C7         -2.6480    2.5800    9.6060 C.ar      1 F5N2001     0.0000 
      8 C8         -3.1000    1.4080   10.1010 C.ar      1 F5N2001     0.0000 
      9 C9         -2.2420    0.4720   10.6940 C.ar      1 F5N2001     0.0000 
     10 C10        -0.9160    0.7700   10.7650 C.ar      1 F5N2001     0.0000 
     11 C11        -0.4570    2.0110   10.2860 C.ar      1 F5N2001     0.0000 
     12 N12         0.7560    2.5470   10.2290 N.pl3     1 F5N2001     0.0000 
     13 N13         2.0670    6.9420    8.5710 N.am      1 F5N2001     0.0000 
     14 C14         1.8710    8.3260    8.6080 C.ar      1 F5N2001     0.0000 
     15 C15         2.9500    9.1690    8.8890 C.ar      1 F5N2001     0.0000 
     16 C16         2.7770   10.5360    8.9340 C.ar      1 F5N2001     0.0000 
     17 C17         1.5290   11.0810    8.6910 C.ar      1 F5N2001     0.0000 
     18 C18         0.4520   10.2430    8.4340 C.ar      1 F5N2001     0.0000 
     19 C19         0.6140    8.8650    8.3740 C.ar      1 F5N2001     0.0000 
     20 H           2.6314    4.4637   10.1748 H         1 F5N2001     0.0000 
     21 H           2.3295    4.4147    8.4294 H         1 F5N2001     0.0000 
     22 H          -0.9400    4.7536    8.8592 H         1 F5N2001     0.0000 
     23 H          -3.3021    3.2510    9.1594 H         1 F5N2001     0.0000 
     24 H          -4.1189    1.1707   10.0508 H         1 F5N2001     0.0000 
     25 H          -2.6192   -0.4025   11.0565 H         1 F5N2001     0.0000 
     26 H          -0.2380    0.1077   11.1619 H         1 F5N2001     0.0000 
     27 H           1.5768    2.1351   10.5710 H         1 F5N2001     0.0000 
     28 H           2.7163    6.5651    7.8313 H         1 F5N2001     0.0000 
     29 H           3.8805    8.7564    9.0630 H         1 F5N2001     0.0000 
     30 H           3.5746   11.1525    9.1481 H         1 F5N2001     0.0000 
     31 H           1.3972   12.0997    8.7001 H         1 F5N2001     0.0000 
     32 H          -0.4883   10.6526    8.2845 H         1 F5N2001     0.0000 
     33 H          -0.1800    8.2584    8.1609 H         1 F5N2001     0.0000 
@<TRIPOS>BOND
     1    2    1 2    
     2    3    2 1    
     3   13    2 am   
     4    4    3 1    
     5   20    3 1    
     6   21    3 1    
     7    5    4 2    
     8   12    4 1    
     9    6    5 1    
    10   22    5 1    
    11    7    6 ar   
    12   11    6 ar   
    13    8    7 ar   
    14   23    7 1    
    15    9    8 ar   
    16   24    8 1    
    17   10    9 ar   
    18   25    9 1    
    19   11   10 ar   
    20   26   10 1    
    21   12   11 1    
    22   27   12 1    
    23   14   13 1    
    24   28   13 1    
    25   15   14 ar   
    26   19   14 ar   
    27   16   15 ar   
    28   29   15 1    
    29   17   16 ar   
    30   30   16 1    
    31   18   17 ar   
    32   31   17 1    
    33   19   18 ar   
    34   32   18 1    
    35   33   19 1    
@<TRIPOS>SUBSTRUCTURE
     1 F5N2001     1 GROUP   
@<TRIPOS>SET

