#    Name: 4hj2_LZ6_2_INTS_M
#    Modification time : Tue Mar 25 01:07:16 2014

@<TRIPOS>MOLECULE
4hj2_LZ6_2_INTS_M
   93     0    15     0     0
SMALL
NO_CHARGES


@<TRIPOS>ATOM
      1 N          27.0845    5.9260    9.1560 N.am      2 SEC2        0.0000 
      2 N          27.4910    6.4760   10.4370 N.am     12 SEL2        0.0000 
      3 N          26.6780    5.3760    7.8750 N.am      7 SEP2        0.0000 
      4 N          28.1980    5.3055    9.6995 N.am      2 SEC2        0.0000 
      5 N          28.9050    4.1350    8.9620 N.am      7 SEP2        0.0000 
      6 N          28.2320    4.2955   10.1645 N.am      2 SEC2        0.0000 
      7 N          27.5590    4.4560   11.3670 N.am     12 SEL2        0.0000 
      8 OD1        24.4810    4.8090   14.1080 O.co2     3 ASC3        0.0000 
      9 OD1        25.6520    5.2220   13.1730 O.co2    13 ASL3        0.0000 
     10 OD1        23.3100    4.3960   15.0430 O.co2     8 ASP3        0.0000 
     11 OD1        24.7320    5.8675   13.9485 O.co2     3 ASC3        0.0000 
     12 OD1        23.8120    6.5130   14.7240 O.co2     8 ASP3        0.0000 
     13 O          24.4810    4.8090   14.1080 O.2       1 ALC1        0.0000 
     14 O          25.6520    5.2220   13.1730 O.2      11 ALL1        0.0000 
     15 O          23.3100    4.3960   15.0430 O.2       6 ALP1        0.0000 
     16 O          24.7320    5.8675   13.9485 O.2       1 ALC1        0.0000 
     17 O          23.8120    6.5130   14.7240 O.2       6 ALP1        0.0000 
     18 O          24.8565    5.6215   12.0645 O.2       1 ALC1        0.0000 
     19 O          24.0610    6.0210   10.9560 O.2       6 ALP1        0.0000 
     20 O          24.7520    4.1390   12.9185 O.2       1 ALC1        0.0000 
     21 O          23.8520    3.0560   12.6640 O.2       6 ALP1        0.0000 
     22 CA         28.1350    9.7735   13.1420 C.3       5 GLC5        0.0000 
     23 CA         28.5650    7.6780   13.1490 C.3      15 GLL5        0.0000 
     24 CA         27.7050   11.8690   13.1350 C.3      10 GLP5        0.0000 
     25 CA         29.7945    7.8330   11.2950 C.3       5 GLC5        0.0000 
     26 CA         31.0240    7.9880    9.4410 C.3      10 GLP5        0.0000 
     27 O          30.3570    9.5525   12.6700 O.2       1 ALC1        0.0000 
     28 O          30.2410    9.2050   13.9860 O.2      11 ALL1        0.0000 
     29 O          30.4730    9.9000   11.3540 O.2       6 ALP1        0.0000 
     30 CA         29.4670   10.8020   14.0365 C.3       5 GLC5        0.0000 
     31 CA         31.2290    9.7350   14.9380 C.3      15 GLL5        0.0000 
     32 CA         32.7970   11.0205   14.5840 C.3       5 GLC5        0.0000 
     33 CA         34.3650   12.3060   14.2300 C.3      10 GLP5        0.0000 
     34 N          30.4945   12.1340   12.6200 N.am      2 SEC2        0.0000 
     35 N          31.0910   11.9990   14.1410 N.am     12 SEL2        0.0000 
     36 N          29.8980   12.2690   11.0990 N.am      7 SEP2        0.0000 
     37 CA         28.8630   12.4785   15.6185 C.3       5 GLC5        0.0000 
     38 CA         30.5800   13.0650   16.6780 C.3      15 GLL5        0.0000 
     39 CA         27.1460   11.8920   14.5590 C.3      10 GLP5        0.0000 
     40 CA         32.5310   12.9225   16.1025 C.3       5 GLC5        0.0000 
     41 CA         34.4820   12.7800   15.5270 C.3      10 GLP5        0.0000 
     42 NZ         27.8910   14.7165   18.1300 N.4       4 LYC4        0.0000 
     43 NZ         29.2040   14.3260   18.1450 N.4      14 LYL4        0.0000 
     44 NZ         25.6470   14.1970   17.8660 N.4       9 LYP4        0.0000 
     45 N          27.8910   14.7165   18.1300 N.am      2 SEC2        0.0000 
     46 N          29.2040   14.3260   18.1450 N.am     12 SEL2        0.0000 
     47 N          26.5780   15.1070   18.1150 N.am      7 SEP2        0.0000 
     48 NZ         27.3710   12.5405   17.8000 N.4       4 LYC4        0.0000 
     49 NZ         28.7480   12.1580   17.8870 N.4      14 LYL4        0.0000 
     50 N          27.3710   12.5405   17.8000 N.am      2 SEC2        0.0000 
     51 N          28.7480   12.1580   17.8870 N.am     12 SEL2        0.0000 
     52 N          25.9940   12.9230   17.7130 N.am      7 SEP2        0.0000 
     53 N          27.8795   11.0875   16.9970 N.am      2 SEC2        0.0000 
     54 N          27.0110   10.0170   16.1070 N.am      7 SEP2        0.0000 
     55 CA         33.7865    8.2435   12.0350 C.3       5 GLC5        0.0000 
     56 CA         33.0070    7.7500   14.0050 C.3      15 GLL5        0.0000 
     57 CA         34.5660    8.7370   10.0650 C.3      10 GLP5        0.0000 
     58 CA         32.1555    6.2900   13.3690 C.3       5 GLC5        0.0000 
     59 CA         31.3040    4.8300   12.7330 C.3      10 GLP5        0.0000 
     60 CA         35.2000    7.8740   12.1730 C.3       5 GLC5        0.0000 
     61 CA         34.8280    7.8930   13.9340 C.3      15 GLL5        0.0000 
     62 CA         35.5720    7.8550   10.4120 C.3      10 GLP5        0.0000 
     63 CA         35.1945   10.2255   16.7945 C.3       5 GLC5        0.0000 
     64 CA         34.0130    9.0810   17.7010 C.3      15 GLL5        0.0000 
     65 CA         36.3760   11.3700   15.8880 C.3      10 GLP5        0.0000 
     66 CA         38.6075    7.7075   15.6725 C.3       5 GLC5        0.0000 
     67 CA         37.2440    6.1070   15.1250 C.3      15 GLL5        0.0000 
     68 CA         39.9710    9.3080   16.2200 C.3      10 GLP5        0.0000 
     69 CA         37.7040    4.6165   12.9315 C.3       5 GLC5        0.0000 
     70 CA         38.1630    5.0920   14.8960 C.3      15 GLL5        0.0000 
     71 CA         37.2450    4.1410   10.9670 C.3      10 GLP5        0.0000 
     72 CA         37.6870    1.9675   14.3395 C.3       5 GLC5        0.0000 
     73 CA         38.9590    2.7190   15.1750 C.3      15 GLL5        0.0000 
     74 CA         36.4150    1.2160   13.5040 C.3      10 GLP5        0.0000 
     75 CA         29.6955    5.9848   13.0705 C.3       5 GLC5        0.0000 
     76 CA         34.0410    9.9932   13.9795 C.3       5 GLC5        0.0000 
     77 CA         35.2590   11.3620   13.7590 C.3      10 GLP5        0.0000 
     78 CA         35.6975    9.4413   14.6100 C.3       5 GLC5        0.0000 
     79 CA         36.2660   10.8920   14.5900 C.3      10 GLP5        0.0000 
     80 CA         38.9857    5.2852   13.7123 C.3       5 GLC5        0.0000 
     81 CA         40.2680    4.9710   12.4140 C.3      10 GLP5        0.0000 
     82 CA         39.7255    3.3825   14.1493 C.3       5 GLC5        0.0000 
     83 CA         38.0030    3.8610   15.5220 C.3      15 GLL5        0.0000 
     84 CA         40.9700    3.4750   12.9500 C.3      10 GLP5        0.0000 
     85 CA         36.9617    2.6406   14.6517 C.3       5 GLC5        0.0000 
     86 CA         35.2545    2.8715   17.5388 C.3       5 GLC5        0.0000 
     87 CA         36.9340    3.6540   16.3900 C.3      15 GLL5        0.0000 
     88 CA         34.0340    1.5810   18.5730 C.3      10 GLP5        0.0000 
     89 CA         40.7227    1.3040   17.4715 C.3       5 GLC5        0.0000 
     90 CA         40.0120    2.5030   16.2640 C.3      15 GLL5        0.0000 
     91 CA         40.9030    0.6060   18.9110 C.3      10 GLP5        0.0000 
     92 CA         40.7563    2.7385   14.4910 C.3       5 GLC5        0.0000 
     93 CA         41.0730    1.5010   15.8000 C.3      15 GLL5        0.0000 
@<TRIPOS>BOND
@<TRIPOS>SUBSTRUCTURE
     1 ALC1       13 GROUP        1 X    ALC  0     ROOT ALC X 1
     2 SEC2        1 GROUP        1 X    SEC  0     **** SEC X 2
     3 ASC3        8 GROUP        1 X    ASC  0     **** ASC X 3
     4 LYC4       42 GROUP        1 X    LYC  0     **** LYC X 4
     5 GLC5       22 GROUP        1 X    GLC  0     **** GLC X 6
     6 ALP1       15 GROUP        1 Y    ALP  0     ROOT ALP Y 8
     7 SEP2        3 GROUP        1 Y    SEP  0     **** SEP Y 9
     8 ASP3       10 GROUP        1 Y    ASP  0     **** ASP Y 10
     9 LYP4       44 GROUP        1 Y    LYP  0     **** LYP Y 11
    10 GLP5       24 GROUP        1 Y    GLP  0     **** GLP Y 13
    11 ALL1       14 GROUP        1 Z    ALL  0     ROOT ALL Z 15
    12 SEL2        2 GROUP        1 Z    SEL  0     **** SEL Z 16
    13 ASL3        9 GROUP        1 Z    ASL  0     **** ASL Z 17
    14 LYL4       43 GROUP        1 Z    LYL  0     **** LYL Z 18
    15 GLL5       23 GROUP        1 Z    GLL  0     **** GLL Z 20
@<TRIPOS>SET

