#    Name: 4hj2_LZ6_2_ligand
#    Modification time : Tue Mar 25 01:07:16 2014

@<TRIPOS>MOLECULE
4hj2_LZ6_2_ligand
   71    71     1     0     0
SMALL
NO_CHARGES


@<TRIPOS>ATOM
      1 O37        27.4910    6.4760   10.4370 O.co2     1 LZ6301      0.0000 
      2 C35        27.2630    5.6710   11.3650 C.2       1 LZ6301      0.0000 
      3 O36        27.5590    4.4560   11.3670 O.co2     1 LZ6301      0.0000 
      4 C34        26.5680    6.2270   12.6100 C.3       1 LZ6301      0.0000 
      5 N38        25.6520    5.2220   13.1730 N.4       1 LZ6301      0.0000 
      6 C33        27.6090    6.6010   13.6670 C.3       1 LZ6301      0.0000 
      7 C32        28.5650    7.6780   13.1490 C.3       1 LZ6301      0.0000 
      8 C30        29.5580    8.0920   14.2360 C.2       1 LZ6301      0.0000 
      9 O31        29.6900    7.4240   15.2610 O.2       1 LZ6301      0.0000 
     10 N29        30.2410    9.2050   13.9860 N.am      1 LZ6301      0.0000 
     11 C21        31.2290    9.7350   14.9380 C.3       1 LZ6301      0.0000 
     12 C22        31.0230   11.2410   15.1070 C.2       1 LZ6301      0.0000 
     13 O28        31.0910   11.9990   14.1410 O.2       1 LZ6301      0.0000 
     14 N23        30.7980   11.6480   16.3530 N.am      1 LZ6301      0.0000 
     15 C24        30.5800   13.0650   16.6780 C.3       1 LZ6301      0.0000 
     16 C25        29.4100   13.1940   17.6560 C.2       1 LZ6301      0.0000 
     17 O27        29.2040   14.3260   18.1450 O.co2     1 LZ6301      0.0000 
     18 O26        28.7480   12.1580   17.8870 O.co2     1 LZ6301      0.0000 
     19 C20        32.6390    9.4990   14.3950 C.3       1 LZ6301      0.0000 
     20 S13        33.0070    7.7500   14.0050 S.3       1 LZ6301      0.0000 
     21 C12        34.8280    7.8930   13.9340 C.3       1 LZ6301      0.0000 
     22 C11        35.4300    8.0880   15.3260 C.3       1 LZ6301      0.0000 
     23 N7         35.2520    6.8530   16.1020 N.pl3     1 LZ6301      0.0000 
     24 C8         34.0640    6.6610   16.9510 C.3       1 LZ6301      0.0000 
     25 C9         34.0930    7.6180   18.1440 C.3       1 LZ6301      0.0000 
     26 CL10       34.0130    9.0810   17.7010 Cl        1 LZ6301      0.0000 
     27 C1         36.1650    5.8970   15.9790 C.ar      1 LZ6301      0.0000 
     28 C6         37.2440    6.1070   15.1250 C.ar      1 LZ6301      0.0000 
     29 C5         38.1630    5.0920   14.8960 C.ar      1 LZ6301      0.0000 
     30 C4         38.0030    3.8610   15.5220 C.ar      1 LZ6301      0.0000 
     31 C3         36.9340    3.6540   16.3900 C.ar      1 LZ6301      0.0000 
     32 C2         36.0160    4.6700   16.6190 C.ar      1 LZ6301      0.0000 
     33 C14        38.9590    2.7190   15.1750 C.3       1 LZ6301      0.0000 
     34 C15        40.0120    2.5030   16.2640 C.3       1 LZ6301      0.0000 
     35 C16        41.0730    1.5010   15.8000 C.3       1 LZ6301      0.0000 
     36 C17        40.4630    0.1450   15.4360 C.2       1 LZ6301      0.0000 
     37 O18        39.7480    0.0960   14.4120 O.co2     1 LZ6301      0.0000 
     38 O19        40.7380   -0.8190   16.1830 O.co2     1 LZ6301      0.0000 
     39 H          26.0275    7.1141   12.3366 H         1 LZ6301      0.0000 
     40 H          28.1816    5.7132   13.9364 H         1 LZ6301      0.0000 
     41 H          27.0995    6.9720   14.5566 H         1 LZ6301      0.0000 
     42 H          27.9900    8.5479   12.8377 H         1 LZ6301      0.0000 
     43 H          29.1119    7.2896   12.2921 H         1 LZ6301      0.0000 
     44 H          30.1177    9.7573   13.1149 H         1 LZ6301      0.0000 
     45 H          31.1407    9.2644   15.8879 H         1 LZ6301      0.0000 
     46 H          30.7638   10.9934   17.1602 H         1 LZ6301      0.0000 
     47 H          30.3425   13.6363   15.7804 H         1 LZ6301      0.0000 
     48 H          31.4663   13.4966   17.1433 H         1 LZ6301      0.0000 
     49 H          33.4186    9.7387   15.1001 H         1 LZ6301      0.0000 
     50 H          32.8233    9.9817   13.4488 H         1 LZ6301      0.0000 
     51 H          34.9608    8.7302   13.2866 H         1 LZ6301      0.0000 
     52 H          35.1059    6.9737   13.4699 H         1 LZ6301      0.0000 
     53 H          34.9250    8.9235   15.8059 H         1 LZ6301      0.0000 
     54 H          36.4854    8.3271   15.2146 H         1 LZ6301      0.0000 
     55 H          34.0243    5.6362   17.3324 H         1 LZ6301      0.0000 
     56 H          33.1488    6.8483   16.3814 H         1 LZ6301      0.0000 
     57 H          35.0176    7.4640   18.7049 H         1 LZ6301      0.0000 
     58 H          33.2495    7.3967   18.8019 H         1 LZ6301      0.0000 
     59 H          37.3596    7.0200   14.6618 H         1 LZ6301      0.0000 
     60 H          38.9591    5.2491   14.2661 H         1 LZ6301      0.0000 
     61 H          36.8259    2.7457   16.8616 H         1 LZ6301      0.0000 
     62 H          35.2271    4.5179   17.2598 H         1 LZ6301      0.0000 
     63 H          39.4616    2.9463   14.2312 H         1 LZ6301      0.0000 
     64 H          38.3849    1.7978   15.0445 H         1 LZ6301      0.0000 
     65 H          39.5283    2.1228   17.1608 H         1 LZ6301      0.0000 
     66 H          40.4914    3.4519   16.4931 H         1 LZ6301      0.0000 
     67 H          41.8064    1.3610   16.5987 H         1 LZ6301      0.0000 
     68 H          41.5907    1.9068   14.9267 H         1 LZ6301      0.0000 
     69 H          24.9447    4.9558   12.5180 H         1 LZ6301      0.0000 
     70 H          26.1344    4.3873   13.4388 H         1 LZ6301      0.0000 
     71 H          25.1835    5.5619   13.9884 H         1 LZ6301      0.0000 
@<TRIPOS>BOND
     1    2    1 ar   
     2    3    2 ar   
     3    4    2 1    
     4    5    4 1    
     5    6    4 1    
     6   39    4 1    
     7   69    5 1    
     8   70    5 1    
     9   71    5 1    
    10    7    6 1    
    11   40    6 1    
    12   41    6 1    
    13    8    7 1    
    14   42    7 1    
    15   43    7 1    
    16    9    8 2    
    17   10    8 am   
    18   11   10 1    
    19   44   10 1    
    20   12   11 1    
    21   19   11 1    
    22   45   11 1    
    23   13   12 2    
    24   14   12 am   
    25   15   14 1    
    26   46   14 1    
    27   16   15 1    
    28   47   15 1    
    29   48   15 1    
    30   17   16 ar   
    31   18   16 ar   
    32   20   19 1    
    33   49   19 1    
    34   50   19 1    
    35   21   20 1    
    36   22   21 1    
    37   51   21 1    
    38   52   21 1    
    39   23   22 1    
    40   53   22 1    
    41   54   22 1    
    42   24   23 1    
    43   27   23 1    
    44   25   24 1    
    45   55   24 1    
    46   56   24 1    
    47   26   25 1    
    48   57   25 1    
    49   58   25 1    
    50   28   27 ar   
    51   32   27 ar   
    52   29   28 ar   
    53   59   28 1    
    54   30   29 ar   
    55   60   29 1    
    56   31   30 ar   
    57   33   30 1    
    58   32   31 ar   
    59   61   31 1    
    60   62   32 1    
    61   34   33 1    
    62   63   33 1    
    63   64   33 1    
    64   35   34 1    
    65   65   34 1    
    66   66   34 1    
    67   36   35 1    
    68   67   35 1    
    69   68   35 1    
    70   37   36 ar   
    71   38   36 ar   
@<TRIPOS>SUBSTRUCTURE
     1 LZ6301      1 GROUP   
@<TRIPOS>SET

