#    Name: 4nw6_2NS_1_INTS_M
#    Modification time : Tue Mar 25 13:20:43 2014

@<TRIPOS>MOLECULE
4nw6_2NS_1_INTS_M
   74     0     9     0     0
SMALL
NO_CHARGES


@<TRIPOS>ATOM
      1 CA        -23.3045   -1.8845  -25.7595 C.3       3 GLC5        0.0000 
      2 CA        -24.3960   -0.6270  -24.5350 C.3       9 GLL5        0.0000 
      3 CA        -22.2130   -3.1420  -26.9840 C.3       6 GLP5        0.0000 
      4 CA        -18.7825    1.7995  -21.2500 C.3       3 GLC5        0.0000 
      5 CA        -19.1580    3.7720  -22.2450 C.3       9 GLL5        0.0000 
      6 CA        -18.4070   -0.1730  -20.2550 C.3       6 GLP5        0.0000 
      7 O         -20.2820   -2.2105  -23.2765 O.2       1 ALC1        0.0000 
      8 O         -19.4710   -1.1740  -23.7200 O.2       7 ALL1        0.0000 
      9 O         -21.0930   -3.2470  -22.8330 O.2       4 ALP1        0.0000 
     10 N         -18.1100   -3.6725  -23.6850 N.am      2 SEC2        0.0000 
     11 N         -17.4010   -2.4240  -23.6770 N.am      8 SEL2        0.0000 
     12 N         -18.8190   -4.9210  -23.6930 N.am      5 SEP2        0.0000 
     13 CA        -16.6590   -1.3170  -21.5045 C.3       3 GLC5        0.0000 
     14 CA        -16.1010   -1.9350  -23.5090 C.3       9 GLL5        0.0000 
     15 CA        -17.2170   -0.6990  -19.5000 C.3       6 GLP5        0.0000 
     16 CA        -14.3815   -2.6240  -21.4340 C.3       3 GLC5        0.0000 
     17 CA        -14.8820   -2.6140  -23.4270 C.3       9 GLL5        0.0000 
     18 CA        -13.8810   -2.6340  -19.4410 C.3       6 GLP5        0.0000 
     19 CA        -12.0695   -2.2310  -24.3675 C.3       3 GLC5        0.0000 
     20 CA        -13.7120   -1.8750  -23.2440 C.3       9 GLL5        0.0000 
     21 CA        -10.4270   -2.5870  -25.4910 C.3       6 GLP5        0.0000 
     22 CA        -16.0875   -0.2475  -21.3550 C.3       3 GLC5        0.0000 
     23 CA        -14.9580    0.2040  -23.2100 C.3       9 GLL5        0.0000 
     24 CA        -17.2615   -0.3585  -21.8310 C.3       3 GLC5        0.0000 
     25 CA        -16.1160   -0.5440  -23.4070 C.3       9 GLL5        0.0000 
     26 CA        -15.3860    1.3765  -20.3390 C.3       3 GLC5        0.0000 
     27 CA        -14.3270    2.3480  -21.9220 C.3       9 GLL5        0.0000 
     28 CA        -16.4450    0.4050  -18.7560 C.3       6 GLP5        0.0000 
     29 O         -13.3435    0.7755  -20.0315 O.2       1 ALC1        0.0000 
     30 O         -13.5690    1.8820  -20.8590 O.2       7 ALL1        0.0000 
     31 O         -13.1180   -0.3310  -19.2040 O.2       4 ALP1        0.0000 
     32 CA        -12.6285    4.8215  -22.5110 C.3       3 GLC5        0.0000 
     33 CA        -14.4610    3.7400  -21.8570 C.3       9 GLL5        0.0000 
     34 CA        -10.7960    5.9030  -23.1650 C.3       6 GLP5        0.0000 
     35 CA        -14.3380    6.2405  -23.8250 C.3       3 GLC5        0.0000 
     36 CA        -15.2100    4.4950  -22.7620 C.3       9 GLL5        0.0000 
     37 CA        -13.4660    7.9860  -24.8880 C.3       6 GLP5        0.0000 
     38 CA        -21.3317    0.7675  -25.6872 C.3       3 GLC5        0.0000 
     39 CA        -21.6540   -0.2620  -23.9590 C.3       9 GLL5        0.0000 
     40 CA        -20.5570    1.2770  -27.4510 C.3       6 GLP5        0.0000 
     41 CA        -22.3242    0.1965  -22.1367 C.3       3 GLC5        0.0000 
     42 CA        -22.5420    0.1350  -20.3500 C.3       6 GLP5        0.0000 
     43 CA        -21.0125    1.7165  -25.3833 C.3       3 GLC5        0.0000 
     44 CA        -22.1370    2.0520  -23.4920 C.3       9 GLL5        0.0000 
     45 CA        -22.0050    1.1455  -21.8328 C.3       3 GLC5        0.0000 
     46 CA        -20.3307    0.9310  -25.4372 C.3       3 GLC5        0.0000 
     47 CA        -19.8910    1.2150  -23.2150 C.3       9 GLL5        0.0000 
     48 CA        -21.3233    0.3600  -21.8867 C.3       3 GLC5        0.0000 
     49 CA        -20.3180   -0.0450  -23.6320 C.3       9 GLL5        0.0000 
     50 CA        -19.3693    0.3366  -21.8298 C.3       3 GLC5        0.0000 
     51 CA        -15.9867   -3.7317  -22.4755 C.3       3 GLC5        0.0000 
     52 CA        -16.4820   -5.1890  -21.4830 C.3       6 GLP5        0.0000 
     53 CA        -13.4775   -4.0648  -22.4648 C.3       3 GLC5        0.0000 
     54 CA        -12.6580   -5.8850  -21.5940 C.3       6 GLP5        0.0000 
     55 CA        -14.3448   -1.8655  -25.0682 C.3       3 GLC5        0.0000 
     56 CA        -14.9600   -2.5490  -26.9470 C.3       6 GLP5        0.0000 
     57 CA        -13.2383   -1.4120  -21.4123 C.3       3 GLC5        0.0000 
     58 CA        -12.7470   -1.6420  -19.6350 C.3       6 GLP5        0.0000 
     59 CA        -14.6471    0.4744  -25.0759 C.3       3 GLC5        0.0000 
     60 CA        -13.7470   -0.4890  -23.1350 C.3       9 GLL5        0.0000 
     61 CA        -14.0600    1.2920  -26.8620 C.3       6 GLP5        0.0000 
     62 CA        -15.3819   -1.9791  -25.1923 C.3       3 GLC5        0.0000 
     63 CA        -13.6787    2.5867  -24.1590 C.3       3 GLC5        0.0000 
     64 CA        -15.0280    1.6910  -23.0200 C.3       9 GLL5        0.0000 
     65 CA        -12.6800    3.1540  -25.8470 C.3       6 GLP5        0.0000 
     66 CA        -13.7577    3.6357  -24.0783 C.3       3 GLC5        0.0000 
     67 CA        -16.2505    5.4908  -24.5275 C.3       3 GLC5        0.0000 
     68 CA        -16.9560    6.8170  -25.7830 C.3       6 GLP5        0.0000 
     69 CA        -17.1615    2.9123  -25.4240 C.3       3 GLC5        0.0000 
     70 CA        -15.8800    3.8340  -23.7820 C.3       9 GLL5        0.0000 
     71 CA        -18.4850    2.6820  -27.0020 C.3       6 GLP5        0.0000 
     72 CA        -14.8415    2.9783  -25.3205 C.3       3 GLC5        0.0000 
     73 CA        -15.7960    2.4510  -23.9100 C.3       9 GLL5        0.0000 
     74 CA        -13.8450    2.8140  -26.7950 C.3       6 GLP5        0.0000 
@<TRIPOS>BOND
@<TRIPOS>SUBSTRUCTURE
     1 ALC1        7 GROUP        1 X    ALC  0     ROOT ALC X 1
     2 SEC2       10 GROUP        1 X    SEC  0     **** SEC X 2
     3 GLC5        1 GROUP        1 X    GLC  0     **** GLC X 6
     4 ALP1        9 GROUP        1 Y    ALP  0     ROOT ALP Y 8
     5 SEP2       12 GROUP        1 Y    SEP  0     **** SEP Y 9
     6 GLP5        3 GROUP        1 Y    GLP  0     **** GLP Y 13
     7 ALL1        8 GROUP        1 Z    ALL  0     ROOT ALL Z 15
     8 SEL2       11 GROUP        1 Z    SEL  0     **** SEL Z 16
     9 GLL5        2 GROUP        1 Z    GLL  0     **** GLL Z 20
@<TRIPOS>SET

