#    Name: 4nw6_2NS_1_ligand
#    Modification time : Tue Mar 25 13:20:43 2014

@<TRIPOS>MOLECULE
4nw6_2NS_1_ligand
   51    55     1     0     0
SMALL
NO_CHARGES


@<TRIPOS>ATOM
      1 C23       -24.3960   -0.6270  -24.5350 C.3       1 2NS1001     0.0000 
      2 O4        -23.8940    0.6630  -24.1800 O.3       1 2NS1001     0.0000 
      3 C17       -22.5590    0.7780  -23.8880 C.ar      1 2NS1001     0.0000 
      4 C16       -21.6540   -0.2620  -23.9590 C.ar      1 2NS1001     0.0000 
      5 C18       -22.1370    2.0520  -23.4920 C.ar      1 2NS1001     0.0000 
      6 O3        -23.0450    3.0980  -23.4630 O.3       1 2NS1001     0.0000 
      7 C22       -23.0340    3.9560  -24.6090 C.3       1 2NS1001     0.0000 
      8 C19       -20.7990    2.2600  -23.1390 C.ar      1 2NS1001     0.0000 
      9 O2        -20.4850    3.5280  -22.7320 O.3       1 2NS1001     0.0000 
     10 C21       -19.1580    3.7720  -22.2450 C.3       1 2NS1001     0.0000 
     11 C20       -19.8910    1.2150  -23.2150 C.ar      1 2NS1001     0.0000 
     12 C15       -20.3180   -0.0450  -23.6320 C.ar      1 2NS1001     0.0000 
     13 N4        -19.4710   -1.1740  -23.7200 N.pl3     1 2NS1001     0.0000 
     14 C14       -18.1180   -1.2690  -23.6630 C.2       1 2NS1001     0.0000 
     15 O1        -17.4180   -0.1100  -23.5160 O.3       1 2NS1001     0.0000 
     16 N3        -17.4010   -2.4240  -23.6770 N.2       1 2NS1001     0.0000 
     17 C2        -16.1010   -1.9350  -23.5090 C.ar      1 2NS1001     0.0000 
     18 C3        -14.8820   -2.6140  -23.4270 C.ar      1 2NS1001     0.0000 
     19 C4        -13.7120   -1.8750  -23.2440 C.ar      1 2NS1001     0.0000 
     20 C5        -13.7470   -0.4890  -23.1350 C.ar      1 2NS1001     0.0000 
     21 C6        -14.9580    0.2040  -23.2100 C.ar      1 2NS1001     0.0000 
     22 C1        -16.1160   -0.5440  -23.4070 C.ar      1 2NS1001     0.0000 
     23 C7        -15.0280    1.6910  -23.0200 C.ar      1 2NS1001     0.0000 
     24 C12       -14.3270    2.3480  -21.9220 C.ar      1 2NS1001     0.0000 
     25 N1        -13.5690    1.8820  -20.8590 N.pl3     1 2NS1001     0.0000 
     26 C13       -13.2650    2.9770  -20.1890 C.2       1 2NS1001     0.0000 
     27 N2        -13.7630    4.1140  -20.7330 N.2       1 2NS1001     0.0000 
     28 C11       -14.4610    3.7400  -21.8570 C.ar      1 2NS1001     0.0000 
     29 C10       -15.2100    4.4950  -22.7620 C.ar      1 2NS1001     0.0000 
     30 C9        -15.8800    3.8340  -23.7820 C.ar      1 2NS1001     0.0000 
     31 C8        -15.7960    2.4510  -23.9100 C.ar      1 2NS1001     0.0000 
     32 H         -21.9613   -1.1995  -24.2529 H         1 2NS1001     0.0000 
     33 H         -18.9061    1.3651  -22.9656 H         1 2NS1001     0.0000 
     34 H         -20.0182   -2.1249  -23.8574 H         1 2NS1001     0.0000 
     35 H         -14.8490   -3.6285  -23.4995 H         1 2NS1001     0.0000 
     36 H         -12.8040   -2.3691  -23.1888 H         1 2NS1001     0.0000 
     37 H         -12.8691    0.0369  -22.9969 H         1 2NS1001     0.0000 
     38 H         -13.3479    0.9887  -20.6929 H         1 2NS1001     0.0000 
     39 H         -12.7134    2.9869  -19.3467 H         1 2NS1001     0.0000 
     40 H         -15.2610    5.5073  -22.6722 H         1 2NS1001     0.0000 
     41 H         -16.4488    4.3743  -24.4557 H         1 2NS1001     0.0000 
     42 H         -16.3065    1.9747  -24.6717 H         1 2NS1001     0.0000 
     43 H         -23.9468   -0.9884  -25.3521 H         1 2NS1001     0.0000 
     44 H         -24.2553   -1.2944  -23.8037 H         1 2NS1001     0.0000 
     45 H         -25.3773   -0.6040  -24.7260 H         1 2NS1001     0.0000 
     46 H         -22.1417    4.3876  -24.7413 H         1 2NS1001     0.0000 
     47 H         -23.2453    3.4564  -25.4491 H         1 2NS1001     0.0000 
     48 H         -23.7064    4.6918  -24.5285 H         1 2NS1001     0.0000 
     49 H         -18.4653    3.5693  -22.9371 H         1 2NS1001     0.0000 
     50 H         -19.0314    4.7263  -21.9742 H         1 2NS1001     0.0000 
     51 H         -18.9466    3.2099  -21.4454 H         1 2NS1001     0.0000 
@<TRIPOS>BOND
     1    2    1 1    
     2   43    1 1    
     3   44    1 1    
     4   45    1 1    
     5    3    2 1    
     6    4    3 ar   
     7    5    3 ar   
     8   12    4 ar   
     9   32    4 1    
    10    6    5 1    
    11    8    5 ar   
    12    7    6 1    
    13   46    7 1    
    14   47    7 1    
    15   48    7 1    
    16    9    8 1    
    17   11    8 ar   
    18   10    9 1    
    19   49   10 1    
    20   50   10 1    
    21   51   10 1    
    22   12   11 ar   
    23   33   11 1    
    24   13   12 1    
    25   14   13 1    
    26   34   13 1    
    27   15   14 1    
    28   16   14 2    
    29   22   15 1    
    30   17   16 1    
    31   18   17 ar   
    32   22   17 ar   
    33   19   18 ar   
    34   35   18 1    
    35   20   19 ar   
    36   36   19 1    
    37   21   20 ar   
    38   37   20 1    
    39   22   21 ar   
    40   23   21 1    
    41   24   23 ar   
    42   31   23 ar   
    43   25   24 1    
    44   28   24 ar   
    45   26   25 1    
    46   38   25 1    
    47   27   26 2    
    48   39   26 1    
    49   28   27 1    
    50   29   28 ar   
    51   30   29 ar   
    52   40   29 1    
    53   31   30 ar   
    54   41   30 1    
    55   42   31 1    
@<TRIPOS>SUBSTRUCTURE
     1 2NS1001     1 GROUP   
@<TRIPOS>SET

