#    Name: 2qg4_UGA_8_INTS_M
#    Modification time : Mon Mar 24 22:07:12 2014

@<TRIPOS>MOLECULE
2qg4_UGA_8_INTS_M
   84     0    12     0     0
SMALL
NO_CHARGES


@<TRIPOS>ATOM
      1 CA         27.7770   19.6480  -61.2020 C.3       4 GLC5        0.0000 
      2 CA         27.7680   19.6110  -63.2440 C.3      12 GLL5        0.0000 
      3 CA         27.7860   19.6850  -59.1600 C.3       8 GLP5        0.0000 
      4 N          28.3220   22.0900  -62.2675 N.am      2 SEC2        0.0000 
      5 N          27.6070   21.0010  -62.8940 N.am     10 SEL2        0.0000 
      6 N          29.0370   23.1790  -61.6410 N.am      6 SEP2        0.0000 
      7 N          30.3035   20.5170  -61.7090 N.am      2 SEC2        0.0000 
      8 N          30.1770   19.4120  -62.6860 N.am     10 SEL2        0.0000 
      9 N          30.4300   21.6220  -60.7320 N.am      6 SEP2        0.0000 
     10 O          31.3700   19.6655  -63.2625 O.2       1 ALC1        0.0000 
     11 O          30.1770   19.4120  -62.6860 O.2       9 ALL1        0.0000 
     12 O          32.5630   19.9190  -63.8390 O.2       5 ALP1        0.0000 
     13 CA         31.4465   17.8325  -63.9580 C.3       4 GLC5        0.0000 
     14 CA         29.2240   17.8370  -64.2270 C.3      12 GLL5        0.0000 
     15 CA         33.6690   17.8280  -63.6890 C.3       8 GLP5        0.0000 
     16 O          30.7315   18.5210  -65.6040 O.2       1 ALC1        0.0000 
     17 O          30.5270   17.5530  -64.7260 O.2       9 ALL1        0.0000 
     18 O          30.9360   19.4890  -66.4820 O.2       5 ALP1        0.0000 
     19 NZ         29.5045   15.0955  -64.2970 N.4       3 LYC4        0.0000 
     20 NZ         28.4470   15.2300  -65.1570 N.4      11 LYL4        0.0000 
     21 NZ         30.5620   14.9610  -63.4370 N.4       7 LYP4        0.0000 
     22 N          29.5045   15.0955  -64.2970 N.am      2 SEC2        0.0000 
     23 N          28.4470   15.2300  -65.1570 N.am     10 SEL2        0.0000 
     24 N          30.5620   14.9610  -63.4370 N.am      6 SEP2        0.0000 
     25 N          27.7685   14.8110  -63.9640 N.am      2 SEC2        0.0000 
     26 N          27.0900   14.3920  -62.7710 N.am      6 SEP2        0.0000 
     27 N          27.5220   21.5955  -68.4270 N.am      2 SEC2        0.0000 
     28 N          26.3740   20.9350  -67.8030 N.am     10 SEL2        0.0000 
     29 N          28.6700   22.2560  -69.0510 N.am      6 SEP2        0.0000 
     30 N          25.7315   23.6405  -66.4060 N.am      2 SEC2        0.0000 
     31 N          25.4080   22.2220  -65.9050 N.am     10 SEL2        0.0000 
     32 N          26.0550   25.0590  -66.9070 N.am      6 SEP2        0.0000 
     33 NZ         25.6790   24.6460  -65.6325 N.4       3 LYC4        0.0000 
     34 NZ         25.3030   24.2330  -64.3580 N.4      11 LYL4        0.0000 
     35 NZ         26.0550   25.0590  -66.9070 N.4       7 LYP4        0.0000 
     36 CA         22.8520   20.4755  -63.0105 C.3       4 GLC5        0.0000 
     37 CA         22.4650   21.5670  -64.6110 C.3      12 GLL5        0.0000 
     38 CA         23.2390   19.3840  -61.4100 C.3       8 GLP5        0.0000 
     39 CA         22.6215   21.4995  -66.5565 C.3       4 GLC5        0.0000 
     40 CA         22.7780   21.4320  -68.5020 C.3       8 GLP5        0.0000 
     41 CA         19.6890   21.1110  -63.5615 C.3       4 GLC5        0.0000 
     42 CA         20.9880   21.9380  -64.5760 C.3      12 GLL5        0.0000 
     43 CA         18.3900   20.2840  -62.5470 C.3       8 GLP5        0.0000 
     44 N          18.6345   21.5175  -65.9685 N.am      2 SEC2        0.0000 
     45 N          19.3610   22.7980  -66.1460 N.am     10 SEL2        0.0000 
     46 N          17.9080   20.2370  -65.7910 N.am      6 SEP2        0.0000 
     47 N          17.8420   22.6225  -66.9190 N.am      2 SEC2        0.0000 
     48 N          16.3230   22.4470  -67.6920 N.am      6 SEP2        0.0000 
     49 N          18.7280   26.1010  -65.0495 N.am      2 SEC2        0.0000 
     50 N          19.8900   25.3280  -65.3510 N.am     10 SEL2        0.0000 
     51 N          17.5660   26.8740  -64.7480 N.am      6 SEP2        0.0000 
     52 N          18.6070   25.5720  -66.0555 N.am      2 SEC2        0.0000 
     53 N          17.3240   25.8160  -66.7600 N.am      6 SEP2        0.0000 
     54 CA         20.6535   22.8950  -61.6360 C.3       4 GLC5        0.0000 
     55 CA         20.1840   23.8470  -63.4790 C.3      12 GLL5        0.0000 
     56 CA         21.1230   21.9430  -59.7930 C.3       8 GLP5        0.0000 
     57 CA         19.2870   22.0655  -63.0130 C.3       4 GLC5        0.0000 
     58 CA         23.2845   23.8655  -61.0160 C.3       4 GLC5        0.0000 
     59 CA         21.8720   24.8770  -61.9100 C.3      12 GLL5        0.0000 
     60 CA         24.6970   22.8540  -60.1220 C.3       8 GLP5        0.0000 
     61 N          16.9075   24.9500  -61.8715 N.am      2 SEC2        0.0000 
     62 N          18.2820   25.0240  -61.8610 N.am     10 SEL2        0.0000 
     63 N          15.5330   24.8760  -61.8820 N.am      6 SEP2        0.0000 
     64 O          18.8670   26.7510  -59.7840 O.2       1 ALC1        0.0000 
     65 O          19.7870   25.9610  -60.4230 O.2       9 ALL1        0.0000 
     66 O          17.9470   27.5410  -59.1450 O.2       5 ALP1        0.0000 
     67 N          20.5550   27.7250  -58.0110 N.am      2 SEC2        0.0000 
     68 N          21.2960   26.8870  -59.0220 N.am     10 SEL2        0.0000 
     69 N          19.8140   28.5630  -57.0000 N.am      6 SEP2        0.0000 
     70 CA         23.2160   24.4310  -59.8090 C.3       4 GLC5        0.0000 
     71 CA         22.1570   25.6520  -60.7770 C.3      12 GLL5        0.0000 
     72 CA         24.2750   23.2100  -58.8410 C.3       8 GLP5        0.0000 
     73 CA         26.1307   18.6298  -62.8422 C.3       4 GLC5        0.0000 
     74 CA         24.9760   17.8030  -61.8760 C.3       8 GLP5        0.0000 
     75 CA         28.8458   21.1775  -64.6535 C.3       4 GLC5        0.0000 
     76 CA         29.2130   22.9070  -65.8270 C.3       8 GLP5        0.0000 
     77 CA         29.5455   17.0363  -66.3545 C.3       4 GLC5        0.0000 
     78 CA         30.3800   16.3430  -67.9330 C.3       8 GLP5        0.0000 
     79 CA         21.1092   21.9838  -66.8947 C.3       4 GLC5        0.0000 
     80 CA         21.3920   21.4870  -68.6890 C.3       8 GLP5        0.0000 
     81 CA         21.2475   24.6943  -66.8540 C.3       4 GLC5        0.0000 
     82 CA         20.6650   23.0230  -65.6250 C.3      12 GLL5        0.0000 
     83 CA         21.8010   25.7240  -68.4870 C.3       8 GLP5        0.0000 
     84 CA         21.5688   23.6037  -60.5682 C.3       4 GLC5        0.0000 
@<TRIPOS>BOND
@<TRIPOS>SUBSTRUCTURE
     1 ALC1       10 GROUP        1 X    ALC  0     ROOT ALC X 1
     2 SEC2        4 GROUP        1 X    SEC  0     **** SEC X 2
     3 LYC4       19 GROUP        1 X    LYC  0     **** LYC X 4
     4 GLC5        1 GROUP        1 X    GLC  0     **** GLC X 6
     5 ALP1       12 GROUP        1 Y    ALP  0     ROOT ALP Y 8
     6 SEP2        6 GROUP        1 Y    SEP  0     **** SEP Y 9
     7 LYP4       21 GROUP        1 Y    LYP  0     **** LYP Y 11
     8 GLP5        3 GROUP        1 Y    GLP  0     **** GLP Y 13
     9 ALL1       11 GROUP        1 Z    ALL  0     ROOT ALL Z 15
    10 SEL2        5 GROUP        1 Z    SEL  0     **** SEL Z 16
    11 LYL4       20 GROUP        1 Z    LYL  0     **** LYL Z 18
    12 GLL5        2 GROUP        1 Z    GLL  0     **** GLL Z 20
@<TRIPOS>SET

