#    Name: 2qg4_UGA_8_ligand
#    Modification time : Mon Mar 24 22:07:12 2014

@<TRIPOS>MOLECULE
2qg4_UGA_8_ligand
   56    58     1     0     0
SMALL
NO_CHARGES


@<TRIPOS>ATOM
      1 C1'        26.8030   19.3020  -64.3730 C.3       1 UGA501      0.0000 
      2 C2'        27.7680   19.6110  -63.2440 C.3       1 UGA501      0.0000 
      3 O2'        27.6070   21.0010  -62.8940 O.3       1 UGA501      0.0000 
      4 C3'        29.1890   19.2850  -63.7160 C.3       1 UGA501      0.0000 
      5 O3'        30.1770   19.4120  -62.6860 O.3       1 UGA501      0.0000 
      6 C4'        29.2240   17.8370  -64.2270 C.3       1 UGA501      0.0000 
      7 O4'        30.5270   17.5530  -64.7260 O.3       1 UGA501      0.0000 
      8 C5'        28.1980   17.6220  -65.3250 C.3       1 UGA501      0.0000 
      9 O5'        26.9070   17.9530  -64.8680 O.3       1 UGA501      0.0000 
     10 C6'        28.0490   16.2040  -65.8310 C.2       1 UGA501      0.0000 
     11 O'P        28.4470   15.2300  -65.1570 O.co2     1 UGA501      0.0000 
     12 O'Q        27.4790   16.0790  -66.9240 O.co2     1 UGA501      0.0000 
     13 PB         25.7860   20.6580  -66.3450 P.3       1 UGA501      0.0000 
     14 O1B        24.6400   19.6840  -66.2910 O.co2     1 UGA501      0.0000 
     15 O2B        26.3740   20.9350  -67.8030 O.co2     1 UGA501      0.0000 
     16 O3B        27.0190   20.2120  -65.4630 O.3       1 UGA501      0.0000 
     17 O3A        25.4080   22.2220  -65.9050 O.3       1 UGA501      0.0000 
     18 PA         24.8790   22.8270  -64.5260 P.3       1 UGA501      0.0000 
     19 O1A        25.3030   24.2330  -64.3580 O.co2     1 UGA501      0.0000 
     20 O2A        25.3160   21.9680  -63.3170 O.co2     1 UGA501      0.0000 
     21 O5D        23.2420   22.7510  -64.5200 O.3       1 UGA501      0.0000 
     22 C5D        22.4650   21.5670  -64.6110 C.3       1 UGA501      0.0000 
     23 C4D        20.9880   21.9380  -64.5760 C.3       1 UGA501      0.0000 
     24 O4D        20.7980   22.5350  -63.2680 O.3       1 UGA501      0.0000 
     25 C3D        20.6650   23.0230  -65.6250 C.3       1 UGA501      0.0000 
     26 O3D        19.3610   22.7980  -66.1460 O.3       1 UGA501      0.0000 
     27 C2D        20.7230   24.3060  -64.8170 C.3       1 UGA501      0.0000 
     28 O2D        19.8900   25.3280  -65.3510 O.3       1 UGA501      0.0000 
     29 C1D        20.1840   23.8470  -63.4790 C.3       1 UGA501      0.0000 
     30 N1         20.5230   24.6630  -62.2990 N.am      1 UGA501      0.0000 
     31 C6         21.8720   24.8770  -61.9100 C.2       1 UGA501      0.0000 
     32 C2         19.4730   25.2080  -61.5540 C.2       1 UGA501      0.0000 
     33 O2         18.2820   25.0240  -61.8610 O.2       1 UGA501      0.0000 
     34 N3         19.7870   25.9610  -60.4230 N.am      1 UGA501      0.0000 
     35 C4         21.1030   26.1910  -60.0270 C.2       1 UGA501      0.0000 
     36 O4         21.2960   26.8870  -59.0220 O.2       1 UGA501      0.0000 
     37 C5         22.1570   25.6520  -60.7770 C.2       1 UGA501      0.0000 
     38 H          25.7834   19.4662  -63.9817 H         1 UGA501      0.0000 
     39 H          27.5248   18.9676  -62.4169 H         1 UGA501      0.0000 
     40 H          29.4208   19.9212  -64.5634 H         1 UGA501      0.0000 
     41 H          28.9784   17.1886  -63.3967 H         1 UGA501      0.0000 
     42 H          28.4499   18.2519  -66.1794 H         1 UGA501      0.0000 
     43 H          22.6583   20.8844  -63.7771 H         1 UGA501      0.0000 
     44 H          22.6516   21.0245  -65.5435 H         1 UGA501      0.0000 
     45 H          20.3945   21.1005  -64.7145 H         1 UGA501      0.0000 
     46 H          21.4306   23.0242  -66.3394 H         1 UGA501      0.0000 
     47 H          21.7320   24.5822  -64.6892 H         1 UGA501      0.0000 
     48 H          19.1197   23.7048  -63.5576 H         1 UGA501      0.0000 
     49 H          22.6264   24.4641  -62.4593 H         1 UGA501      0.0000 
     50 H          19.0115   26.3649  -59.8556 H         1 UGA501      0.0000 
     51 H          23.1250   25.8222  -60.5007 H         1 UGA501      0.0000 
     52 H          26.9346   21.3552  -63.5439 H         1 UGA501      0.0000 
     53 H          30.8659   20.0309  -63.0633 H         1 UGA501      0.0000 
     54 H          30.5108   17.8559  -65.6789 H         1 UGA501      0.0000 
     55 H          18.9232   23.6971  -66.1447 H         1 UGA501      0.0000 
     56 H          20.5205   25.9909  -65.7549 H         1 UGA501      0.0000 
@<TRIPOS>BOND
     1    2    1 1    
     2    9    1 1    
     3   16    1 1    
     4   38    1 1    
     5    3    2 1    
     6    4    2 1    
     7   39    2 1    
     8   52    3 1    
     9    5    4 1    
    10    6    4 1    
    11   40    4 1    
    12   53    5 1    
    13    7    6 1    
    14    8    6 1    
    15   41    6 1    
    16   54    7 1    
    17    9    8 1    
    18   10    8 1    
    19   42    8 1    
    20   11   10 ar   
    21   12   10 ar   
    22   14   13 ar   
    23   15   13 ar   
    24   16   13 1    
    25   17   13 1    
    26   18   17 1    
    27   19   18 ar   
    28   20   18 ar   
    29   21   18 1    
    30   22   21 1    
    31   23   22 1    
    32   43   22 1    
    33   44   22 1    
    34   24   23 1    
    35   25   23 1    
    36   45   23 1    
    37   29   24 1    
    38   26   25 1    
    39   27   25 1    
    40   46   25 1    
    41   55   26 1    
    42   28   27 1    
    43   29   27 1    
    44   47   27 1    
    45   56   28 1    
    46   30   29 1    
    47   48   29 1    
    48   31   30 1    
    49   32   30 1    
    50   37   31 2    
    51   49   31 1    
    52   33   32 2    
    53   34   32 1    
    54   35   34 1    
    55   50   34 1    
    56   36   35 2    
    57   37   35 1    
    58   51   37 1    
@<TRIPOS>SUBSTRUCTURE
     1 UGA501      1 GROUP   
@<TRIPOS>SET

