#    Name: 2ynd_646_4_INTS_M
#    Modification time : Tue Mar 25 09:30:47 2014

@<TRIPOS>MOLECULE
2ynd_646_4_INTS_M
   61     0     9     0     0
SMALL
NO_CHARGES


@<TRIPOS>ATOM
      1 CA        -17.7580   30.9765  -61.9255 C.3       3 GLC5        0.0000 
      2 CA        -18.4310   32.3520  -60.7890 C.3       9 GLL5        0.0000 
      3 CA        -17.0850   29.6010  -63.0620 C.3       6 GLP5        0.0000 
      4 CA        -19.8230   31.5885  -59.8805 C.3       3 GLC5        0.0000 
      5 CA        -21.2150   30.8250  -58.9720 C.3       6 GLP5        0.0000 
      6 CA        -18.0330   33.8225  -62.2575 C.3       3 GLC5        0.0000 
      7 CA        -17.6350   35.2930  -63.7260 C.3       6 GLP5        0.0000 
      8 CA        -19.9495   32.8175  -61.5735 C.3       3 GLC5        0.0000 
      9 CA        -21.4680   33.2830  -62.3580 C.3       6 GLP5        0.0000 
     10 CA        -11.6395   33.3740  -59.1130 C.3       3 GLC5        0.0000 
     11 CA        -13.3770   32.0770  -58.9400 C.3       9 GLL5        0.0000 
     12 CA         -9.9020   34.6710  -59.2860 C.3       6 GLP5        0.0000 
     13 CA        -12.7215   30.8465  -59.9505 C.3       3 GLC5        0.0000 
     14 CA        -12.0660   29.6160  -60.9610 C.3       6 GLP5        0.0000 
     15 CA        -13.8475   34.2205  -58.6695 C.3       3 GLC5        0.0000 
     16 CA        -14.3180   36.3640  -58.3990 C.3       6 GLP5        0.0000 
     17 CA        -11.8290   34.4535  -60.2590 C.3       3 GLC5        0.0000 
     18 CA        -13.7560   34.2360  -61.2320 C.3       9 GLL5        0.0000 
     19 CA        -11.9905   33.3265  -61.9335 C.3       3 GLC5        0.0000 
     20 CA        -10.2250   32.4170  -62.6350 C.3       6 GLP5        0.0000 
     21 CA        -14.7865   32.8870  -62.6130 C.3       3 GLC5        0.0000 
     22 CA        -15.8170   31.5380  -63.9940 C.3       6 GLP5        0.0000 
     23 CA        -13.3070   34.5350  -63.1725 C.3       3 GLC5        0.0000 
     24 CA        -12.8580   34.8340  -65.1130 C.3       6 GLP5        0.0000 
     25 CA        -14.3265   35.7480  -60.8865 C.3       3 GLC5        0.0000 
     26 CA        -14.8970   37.2600  -60.5410 C.3       6 GLP5        0.0000 
     27 CA        -14.7495   28.0585  -55.0355 C.3       3 GLC5        0.0000 
     28 CA        -14.8200   29.8730  -56.2190 C.3       9 GLL5        0.0000 
     29 CA        -14.6790   26.2440  -53.8520 C.3       6 GLP5        0.0000 
     30 CA        -16.0460   35.5270  -57.2805 C.3       3 GLC5        0.0000 
     31 CA        -17.7740   34.6900  -56.1620 C.3       9 GLL5        0.0000 
     32 CA        -18.0650   36.4710  -55.8330 C.3       3 GLC5        0.0000 
     33 CA        -18.3560   38.2520  -55.5040 C.3       6 GLP5        0.0000 
     34 CA        -10.2500   38.3965  -52.6925 C.3       3 GLC5        0.0000 
     35 CA         -9.9680   39.6060  -54.5570 C.3       9 GLL5        0.0000 
     36 CA        -10.5320   37.1870  -50.8280 C.3       6 GLP5        0.0000 
     37 CA         -9.5080   37.6485  -57.2395 C.3       3 GLC5        0.0000 
     38 CA        -10.2610   38.3600  -55.4030 C.3       9 GLL5        0.0000 
     39 CA         -8.7550   36.9370  -59.0760 C.3       6 GLP5        0.0000 
     40 CA        -11.6420   37.6180  -56.9760 C.3       3 GLC5        0.0000 
     41 CA        -13.0230   36.8760  -58.5490 C.3       6 GLP5        0.0000 
     42 CA        -12.8830   37.8040  -56.7575 C.3       3 GLC5        0.0000 
     43 CA        -12.7430   38.7320  -54.9660 C.3       9 GLL5        0.0000 
     44 CA        -12.7490   38.4450  -52.7405 C.3       3 GLC5        0.0000 
     45 CA        -12.7550   38.1580  -50.5150 C.3       6 GLP5        0.0000 
     46 N         -16.6780   34.5235  -61.8285 N.am      1 SEC2        0.0000 
     47 N         -16.0960   33.3420  -61.2550 N.am      7 SEL2        0.0000 
     48 N         -17.2600   35.7050  -62.4020 N.am      4 SEP2        0.0000 
     49 OD1       -11.6265   42.0270  -54.5775 O.co2     2 ASC3        0.0000 
     50 OD1       -11.0610   40.6130  -54.5310 O.co2     8 ASL3        0.0000 
     51 OD1       -12.1920   43.4410  -54.6240 O.co2     5 ASP3        0.0000 
     52 CA        -11.1345   36.8590  -52.6720 C.3       3 GLC5        0.0000 
     53 CA        -11.7370   36.5310  -54.5160 C.3       9 GLL5        0.0000 
     54 CA         -9.7407   34.0632  -52.7195 C.3       3 GLC5        0.0000 
     55 CA        -12.0870   33.9050  -53.4850 C.3       9 GLL5        0.0000 
     56 CA         -7.9090   33.7890  -52.1600 C.3       6 GLP5        0.0000 
     57 CA        -11.0523   35.7622  -52.0535 C.3       3 GLC5        0.0000 
     58 CA        -11.0580   34.7700  -53.0730 C.3       9 GLL5        0.0000 
     59 CA        -14.4488   30.6165  -60.4145 C.3       3 GLC5        0.0000 
     60 CA        -14.7040   32.3700  -59.6200 C.3       9 GLL5        0.0000 
     61 CA        -13.4860   29.0890  -61.2600 C.3       6 GLP5        0.0000 
@<TRIPOS>BOND
@<TRIPOS>SUBSTRUCTURE
     1 SEC2       46 GROUP        1 X    SEC  0     ROOT SEC X 2
     2 ASC3       49 GROUP        1 X    ASC  0     **** ASC X 3
     3 GLC5        1 GROUP        1 X    GLC  0     **** GLC X 6
     4 SEP2       48 GROUP        1 Y    SEP  0     ROOT SEP Y 9
     5 ASP3       51 GROUP        1 Y    ASP  0     **** ASP Y 10
     6 GLP5        3 GROUP        1 Y    GLP  0     **** GLP Y 13
     7 SEL2       47 GROUP        1 Z    SEL  0     ROOT SEL Z 16
     8 ASL3       50 GROUP        1 Z    ASL  0     **** ASL Z 17
     9 GLL5        2 GROUP        1 Z    GLL  0     **** GLL Z 20
@<TRIPOS>SET

