#    Name: 2ynd_646_4_ligand
#    Modification time : Tue Mar 25 09:30:47 2014

@<TRIPOS>MOLECULE
2ynd_646_4_ligand
   55    58     1     0     0
SMALL
NO_CHARGES


@<TRIPOS>ATOM
      1 CAA       -18.4310   32.3520  -60.7890 C.3       1 6461001     0.0000 
      2 CAB       -13.3770   32.0770  -58.9400 C.3       1 6461001     0.0000 
      3 CAC       -13.7560   34.2360  -61.2320 C.3       1 6461001     0.0000 
      4 OAD       -18.4610   32.4920  -57.5840 O.2       1 6461001     0.0000 
      5 OAE       -17.8850   30.2750  -56.6420 O.2       1 6461001     0.0000 
      6 CLF       -14.8200   29.8730  -56.2190 Cl        1 6461001     0.0000 
      7 CLG       -17.7740   34.6900  -56.1620 Cl        1 6461001     0.0000 
      8 CAH       -11.0580   34.7700  -53.0730 C.ar      1 6461001     0.0000 
      9 CAI       -12.0870   33.9050  -53.4850 C.ar      1 6461001     0.0000 
     10 CAJ       -13.9720   32.2980  -55.3230 C.ar      1 6461001     0.0000 
     11 CAK       -15.2530   34.3110  -55.3480 C.ar      1 6461001     0.0000 
     12 CAL       -12.7990   35.7120  -54.9520 C.ar      1 6461001     0.0000 
     13 CAM        -9.9680   39.6060  -54.5570 C.3       1 6461001     0.0000 
     14 CAN       -12.3520   40.1970  -55.1180 C.3       1 6461001     0.0000 
     15 CAO       -10.2610   38.3600  -55.4030 C.3       1 6461001     0.0000 
     16 CAP       -12.7430   38.7320  -54.9660 C.3       1 6461001     0.0000 
     17 NAQ       -10.8950   36.0270  -53.5730 N.ar      1 6461001     0.0000 
     18 NAR       -16.0960   33.3420  -61.2550 N.2       1 6461001     0.0000 
     19 NAS       -11.0610   40.6130  -54.5310 N.4       1 6461001     0.0000 
     20 NAT       -16.6820   31.0020  -58.5570 N.pl3     1 6461001     0.0000 
     21 CAU       -16.9420   32.5530  -60.5620 C.2       1 6461001     0.0000 
     22 CAV       -14.7040   32.3700  -59.6200 C.2       1 6461001     0.0000 
     23 CAW       -15.0500   31.6410  -55.9230 C.ar      1 6461001     0.0000 
     24 CAX       -16.3220   33.6540  -55.9540 C.ar      1 6461001     0.0000 
     25 CAY       -12.9920   34.4090  -54.4100 C.ar      1 6461001     0.0000 
     26 CAZ       -14.1090   33.6300  -55.0020 C.ar      1 6461001     0.0000 
     27 CBA       -11.7370   36.5310  -54.5160 C.ar      1 6461001     0.0000 
     28 CBB       -16.1190   31.9180  -59.5180 C.2       1 6461001     0.0000 
     29 CBC       -16.2430   32.2880  -56.2840 C.ar      1 6461001     0.0000 
     30 NBD       -11.5650   37.8550  -54.9720 N.3       1 6461001     0.0000 
     31 NBE       -14.7530   33.1750  -60.8200 N.pl3     1 6461001     0.0000 
     32 SBF       -17.4110   31.5200  -57.1950 S.o2      1 6461001     0.0000 
     33 H         -10.3901   34.4123  -52.3417 H         1 6461001     0.0000 
     34 H         -12.1568   32.9720  -53.1240 H         1 6461001     0.0000 
     35 H         -13.1073   31.7936  -55.1312 H         1 6461001     0.0000 
     36 H         -15.3285   35.3276  -55.1585 H         1 6461001     0.0000 
     37 H         -13.4467   36.0548  -55.6713 H         1 6461001     0.0000 
     38 H          -9.0361   40.0704  -54.9418 H         1 6461001     0.0000 
     39 H          -9.7376   39.2724  -53.5237 H         1 6461001     0.0000 
     40 H         -13.1797   40.8194  -54.6855 H         1 6461001     0.0000 
     41 H         -12.3640   40.4432  -56.2129 H         1 6461001     0.0000 
     42 H          -9.4815   37.6357  -55.2251 H         1 6461001     0.0000 
     43 H         -10.2762   38.6491  -56.4423 H         1 6461001     0.0000 
     44 H         -13.4236   38.4689  -55.7881 H         1 6461001     0.0000 
     45 H         -13.3026   38.6194  -54.0266 H         1 6461001     0.0000 
     46 H         -16.6639   30.0087  -58.6585 H         1 6461001     0.0000 
     47 H         -18.6223   31.9926  -61.7024 H         1 6461001     0.0000 
     48 H         -18.8231   31.7076  -60.1325 H         1 6461001     0.0000 
     49 H         -18.9394   33.2084  -60.6986 H         1 6461001     0.0000 
     50 H         -12.6324   32.6191  -59.3295 H         1 6461001     0.0000 
     51 H         -13.4079   32.2817  -57.9617 H         1 6461001     0.0000 
     52 H         -13.1178   31.1154  -59.0302 H         1 6461001     0.0000 
     53 H         -12.8402   34.0416  -60.8805 H         1 6461001     0.0000 
     54 H         -13.6792   34.3073  -62.2265 H         1 6461001     0.0000 
     55 H         -14.0144   35.1404  -60.8924 H         1 6461001     0.0000 
@<TRIPOS>BOND
     1   21    1 1    
     2   47    1 1    
     3   48    1 1    
     4   49    1 1    
     5   22    2 1    
     6   50    2 1    
     7   51    2 1    
     8   52    2 1    
     9   31    3 1    
    10   53    3 1    
    11   54    3 1    
    12   55    3 1    
    13   32    4 2    
    14   32    5 2    
    15   23    6 1    
    16   24    7 1    
    17    9    8 ar   
    18   17    8 ar   
    19   33    8 1    
    20   25    9 ar   
    21   34    9 1    
    22   23   10 ar   
    23   26   10 ar   
    24   35   10 1    
    25   24   11 ar   
    26   26   11 ar   
    27   36   11 1    
    28   25   12 ar   
    29   27   12 ar   
    30   37   12 1    
    31   15   13 1    
    32   19   13 1    
    33   38   13 1    
    34   39   13 1    
    35   16   14 1    
    36   19   14 1    
    37   40   14 1    
    38   41   14 1    
    39   30   15 1    
    40   42   15 1    
    41   43   15 1    
    42   30   16 1    
    43   44   16 1    
    44   45   16 1    
    45   27   17 ar   
    46   21   18 2    
    47   31   18 1    
    48   28   20 1    
    49   32   20 1    
    50   46   20 1    
    51   28   21 1    
    52   28   22 2    
    53   31   22 1    
    54   29   23 ar   
    55   29   24 ar   
    56   26   25 1    
    57   30   27 1    
    58   32   29 1    
@<TRIPOS>SUBSTRUCTURE
     1 6461001     1 GROUP   
@<TRIPOS>SET

