#    Name: 3inx_JZC_1_INTS_M
#    Modification time : Tue Mar 25 16:59:03 2014

@<TRIPOS>MOLECULE
3inx_JZC_1_INTS_M
   86     0     6     0     0
SMALL
NO_CHARGES


@<TRIPOS>ATOM
      1 CA         64.5320   10.7850   22.5170 C.3       2 GLC5        0.0000 
      2 CA         66.0120   12.1170   23.2050 C.3       6 GLL5        0.0000 
      3 CA         63.0520    9.4530   21.8290 C.3       4 GLP5        0.0000 
      4 CA         65.8055   13.4645   24.5740 C.3       2 GLC5        0.0000 
      5 CA         65.5990   14.8120   25.9430 C.3       4 GLP5        0.0000 
      6 N          66.0030   12.2910   27.6310 N.am      1 SEC2        0.0000 
      7 N          66.7220   11.1220   27.3180 N.am      5 SEL2        0.0000 
      8 N          65.2840   13.4600   27.9440 N.am      3 SEP2        0.0000 
      9 N          65.1860   10.9005   27.5365 N.am      1 SEC2        0.0000 
     10 N          63.6500   10.6790   27.7550 N.am      3 SEP2        0.0000 
     11 N          68.2945   11.7710   20.5450 N.am      1 SEC2        0.0000 
     12 N          67.2250   12.9120   21.2900 N.am      5 SEL2        0.0000 
     13 N          69.3640   10.6300   19.8000 N.am      3 SEP2        0.0000 
     14 CA         65.7890    9.5885   25.3860 C.3       2 GLC5        0.0000 
     15 CA         67.3030   11.1160   25.0210 C.3       6 GLL5        0.0000 
     16 CA         64.2750    8.0610   25.7510 C.3       4 GLP5        0.0000 
     17 CA         66.4510   12.9640   25.4820 C.3       2 GLC5        0.0000 
     18 CA         70.0235   11.7885   26.4320 C.3       2 GLC5        0.0000 
     19 CA         69.9230   10.9420   24.7850 C.3       6 GLL5        0.0000 
     20 CA         70.1240   12.6350   28.0790 C.3       4 GLP5        0.0000 
     21 CA         71.3690    9.8950   25.6210 C.3       2 GLC5        0.0000 
     22 CA         72.8150    8.8480   26.4570 C.3       4 GLP5        0.0000 
     23 CA         71.5550    8.8880   24.7675 C.3       2 GLC5        0.0000 
     24 CA         70.2950    8.9280   23.0780 C.3       6 GLL5        0.0000 
     25 CA         68.6410   10.2450   28.6505 C.3       2 GLC5        0.0000 
     26 CA         67.9510    8.7390   27.8700 C.3       6 GLL5        0.0000 
     27 CA         69.3310   11.7510   29.4310 C.3       4 GLP5        0.0000 
     28 CA         67.5555    5.4220   27.9505 C.3       2 GLC5        0.0000 
     29 CA         67.8290    7.2180   27.6550 C.3       6 GLL5        0.0000 
     30 CA         67.2820    3.6260   28.2460 C.3       4 GLP5        0.0000 
     31 CA         66.1730    6.4310   25.5990 C.3       2 GLC5        0.0000 
     32 CA         68.1950    6.3310   25.4250 C.3       6 GLL5        0.0000 
     33 CA         64.1510    6.5310   25.7730 C.3       4 GLP5        0.0000 
     34 CA         67.6355    7.6295   21.7075 C.3       2 GLC5        0.0000 
     35 CA         68.8560    6.8660   23.0580 C.3       6 GLL5        0.0000 
     36 CA         66.4150    8.3930   20.3570 C.3       4 GLP5        0.0000 
     37 CA         74.3270   10.9675   25.3285 C.3       2 GLC5        0.0000 
     38 CA         73.7510   11.9620   23.5090 C.3       6 GLL5        0.0000 
     39 CA         74.9030    9.9730   27.1480 C.3       4 GLP5        0.0000 
     40 CA         72.9605   12.4000   21.8195 C.3       2 GLC5        0.0000 
     41 CA         72.1700   12.8380   20.1300 C.3       4 GLP5        0.0000 
     42 CA         75.4995   12.7815   22.4270 C.3       2 GLC5        0.0000 
     43 CA         77.2480   13.6010   21.3450 C.3       4 GLP5        0.0000 
     44 CA         72.3170   15.7735   22.8725 C.3       2 GLC5        0.0000 
     45 CA         72.5760   14.6350   24.1850 C.3       6 GLL5        0.0000 
     46 CA         72.0580   16.9120   21.5600 C.3       4 GLP5        0.0000 
     47 CA         71.1635   15.5495   23.3415 C.3       2 GLC5        0.0000 
     48 CA         71.4530   14.8930   25.2010 C.3       6 GLL5        0.0000 
     49 CA         70.8740   16.2060   21.4820 C.3       4 GLP5        0.0000 
     50 CA         70.4645   16.6755   24.7750 C.3       2 GLC5        0.0000 
     51 CA         69.4760   18.4580   24.3490 C.3       4 GLP5        0.0000 
     52 CA         70.1025   16.6090   26.2830 C.3       2 GLC5        0.0000 
     53 CA         71.9770   15.8970   26.2290 C.3       6 GLL5        0.0000 
     54 CA         68.2280   17.3210   26.3370 C.3       4 GLP5        0.0000 
     55 CA         72.7320   17.5995   26.2135 C.3       2 GLC5        0.0000 
     56 CA         73.4870   19.3020   26.1980 C.3       4 GLP5        0.0000 
     57 CA         71.6395   13.9560   27.5310 C.3       2 GLC5        0.0000 
     58 CA         73.1550   15.2770   26.9830 C.3       6 GLL5        0.0000 
     59 CA         73.7905   16.9360   27.5455 C.3       2 GLC5        0.0000 
     60 CA         74.4260   18.5950   28.1080 C.3       4 GLP5        0.0000 
     61 CA         74.5140   16.8085   25.9625 C.3       2 GLC5        0.0000 
     62 CA         74.3010   14.9110   26.0330 C.3       6 GLL5        0.0000 
     63 CA         74.7270   18.7060   25.8920 C.3       4 GLP5        0.0000 
     64 CA         66.9172   10.9480   21.6493 C.3       2 GLC5        0.0000 
     65 CA         67.2130   12.3330   22.5260 C.3       6 GLL5        0.0000 
     66 CA         67.2220    9.6710   20.4330 C.3       4 GLP5        0.0000 
     67 CA         66.4543   14.2665   22.6272 C.3       2 GLC5        0.0000 
     68 CA         66.2960   16.3080   22.3890 C.3       4 GLP5        0.0000 
     69 CA         67.8505   10.6617   22.0590 C.3       2 GLC5        0.0000 
     70 CA         68.4390   11.9590   23.0560 C.3       6 GLL5        0.0000 
     71 CA         68.4030   12.5580   26.2033 C.3       2 GLC5        0.0000 
     72 CA         68.5190   11.3460   24.3140 C.3       6 GLL5        0.0000 
     73 CA         68.8950   13.8850   27.7390 C.3       4 GLP5        0.0000 
     74 CA         68.5020    9.1265   21.8820 C.3       2 GLC5        0.0000 
     75 CA         69.2690    8.2360   23.5840 C.3       6 GLL5        0.0000 
     76 CA         66.0825    8.0198   26.7568 C.3       2 GLC5        0.0000 
     77 CA         66.5960    7.3978   28.8612 C.3       2 GLC5        0.0000 
     78 CA         65.3020    6.8170   29.9600 C.3       4 GLP5        0.0000 
     79 CA         68.6321    4.7477   26.2444 C.3       2 GLC5        0.0000 
     80 CA         69.0210    5.8670   24.2280 C.3       6 GLL5        0.0000 
     81 CA         68.5080    3.2950   27.3750 C.3       4 GLP5        0.0000 
     82 CA         67.3985    5.5088   23.0661 C.3       2 GLC5        0.0000 
     83 CA         66.0650    4.5350   22.1900 C.3       4 GLP5        0.0000 
     84 CA         70.3050   14.6400   26.7270 C.3       2 GLC5        0.0000 
     85 CA         71.9760   15.7615   28.2150 C.3       2 GLC5        0.0000 
     86 CA         71.3860   15.9360   29.8240 C.3       4 GLP5        0.0000 
@<TRIPOS>BOND
@<TRIPOS>SUBSTRUCTURE
     1 SEC2        6 GROUP        1 X    SEC  0     ROOT SEC X 2
     2 GLC5        1 GROUP        1 X    GLC  0     **** GLC X 6
     3 SEP2        8 GROUP        1 Y    SEP  0     ROOT SEP Y 9
     4 GLP5        3 GROUP        1 Y    GLP  0     **** GLP Y 13
     5 SEL2        7 GROUP        1 Z    SEL  0     ROOT SEL Z 16
     6 GLL5        2 GROUP        1 Z    GLL  0     **** GLL Z 20
@<TRIPOS>SET

