#    Name: 3inx_JZC_1_ligand
#    Modification time : Tue Mar 25 16:59:03 2014

@<TRIPOS>MOLECULE
3inx_JZC_1_ligand
   61    63     1     0     0
SMALL
NO_CHARGES


@<TRIPOS>ATOM
      1 C1         66.0120   12.1170   23.2050 C.ar      1 JZC2001     0.0000 
      2 N1         71.8090   10.7420   23.1990 N.2       1 JZC2001     0.0000 
      3 O1         67.9330    9.3890   26.5810 O.3       1 JZC2001     0.0000 
      4 C2         67.2130   12.3330   22.5260 C.ar      1 JZC2001     0.0000 
      5 N2         73.8220   14.1530   24.8330 N.am      1 JZC2001     0.0000 
      6 O2         66.7220   11.1220   27.3180 O.2       1 JZC2001     0.0000 
      7 C3         68.4390   11.9590   23.0560 C.ar      1 JZC2001     0.0000 
      8 O3         67.2250   12.9120   21.2900 O.3       1 JZC2001     0.0000 
      9 C4         68.5190   11.3460   24.3140 C.ar      1 JZC2001     0.0000 
     10 O4         64.8900   11.3050   25.1830 O.co2     1 JZC2001     0.0000 
     11 C5         67.3030   11.1160   25.0210 C.ar      1 JZC2001     0.0000 
     12 O5         72.3100   11.8670   23.6850 O.3       1 JZC2001     0.0000 
     13 C6         66.0610   11.5280   24.4890 C.ar      1 JZC2001     0.0000 
     14 O6         75.3710   12.6720   25.1680 O.2       1 JZC2001     0.0000 
     15 C7         69.9230   10.9420   24.7850 C.3       1 JZC2001     0.0000 
     16 C8         67.2730   10.5220   26.3790 C.2       1 JZC2001     0.0000 
     17 C9         70.7130   10.2330   23.6650 C.2       1 JZC2001     0.0000 
     18 C10        70.2950    8.9280   23.0780 C.2       1 JZC2001     0.0000 
     19 C11        67.9510    8.7390   27.8700 C.3       1 JZC2001     0.0000 
     20 C12        67.8290    7.2180   27.6550 C.3       1 JZC2001     0.0000 
     21 C13        68.7880    6.7370   26.5740 C.2       1 JZC2001     0.0000 
     22 C14        68.1950    6.3310   25.4250 C.2       1 JZC2001     0.0000 
     23 C15        69.0210    5.8670   24.2280 C.3       1 JZC2001     0.0000 
     24 C16        69.2690    8.2360   23.5840 C.2       1 JZC2001     0.0000 
     25 C17        68.8560    6.8660   23.0580 C.3       1 JZC2001     0.0000 
     26 C18        73.7510   11.9620   23.5090 C.3       1 JZC2001     0.0000 
     27 C19        74.3600   12.9340   24.5380 C.2       1 JZC2001     0.0000 
     28 C20        72.5760   14.6350   24.1850 C.3       1 JZC2001     0.0000 
     29 C21        71.4530   14.8930   25.2010 C.3       1 JZC2001     0.0000 
     30 C22        71.9770   15.8970   26.2290 C.3       1 JZC2001     0.0000 
     31 C23        73.1550   15.2770   26.9830 C.3       1 JZC2001     0.0000 
     32 C24        74.3010   14.9110   26.0330 C.3       1 JZC2001     0.0000 
     33 H          65.1229   12.3735   22.7940 H         1 JZC2001     0.0000 
     34 H          69.3061   12.1313   22.5230 H         1 JZC2001     0.0000 
     35 H          69.8365   10.2692   25.6371 H         1 JZC2001     0.0000 
     36 H          70.4688   11.8327   25.0934 H         1 JZC2001     0.0000 
     37 H          70.8494    8.6097   22.2679 H         1 JZC2001     0.0000 
     38 H          67.1162    9.0550   28.4923 H         1 JZC2001     0.0000 
     39 H          68.8812    8.9261   28.4026 H         1 JZC2001     0.0000 
     40 H          66.8055    6.9848   27.3644 H         1 JZC2001     0.0000 
     41 H          68.0529    6.7111   28.5928 H         1 JZC2001     0.0000 
     42 H          69.7456    6.7521   26.7745 H         1 JZC2001     0.0000 
     43 H          67.1814    6.3081   25.2844 H         1 JZC2001     0.0000 
     44 H          68.6805    4.8913   23.9059 H         1 JZC2001     0.0000 
     45 H          70.0669    5.8194   24.5028 H         1 JZC2001     0.0000 
     46 H          68.6808    8.5790   24.3686 H         1 JZC2001     0.0000 
     47 H          67.8291    6.8843   22.7557 H         1 JZC2001     0.0000 
     48 H          69.4999    6.5730   22.2544 H         1 JZC2001     0.0000 
     49 H          74.0053   12.3303   22.5096 H         1 JZC2001     0.0000 
     50 H          74.2323   10.9877   23.6435 H         1 JZC2001     0.0000 
     51 H          72.2161   13.8961   23.4554 H         1 JZC2001     0.0000 
     52 H          72.7676   15.5699   23.6400 H         1 JZC2001     0.0000 
     53 H          71.1989   13.9719   25.6929 H         1 JZC2001     0.0000 
     54 H          70.6013   15.3074   24.6932 H         1 JZC2001     0.0000 
     55 H          71.1892   16.1383   26.9296 H         1 JZC2001     0.0000 
     56 H          72.3074   16.7926   25.7206 H         1 JZC2001     0.0000 
     57 H          72.8176   14.3769   27.4988 H         1 JZC2001     0.0000 
     58 H          73.5202   15.9877   27.7258 H         1 JZC2001     0.0000 
     59 H          74.7998   15.8358   25.7161 H         1 JZC2001     0.0000 
     60 H          75.0340   14.3101   26.5864 H         1 JZC2001     0.0000 
     61 H          67.7816   13.7360   21.3957 H         1 JZC2001     0.0000 
@<TRIPOS>BOND
     1    4    1 ar   
     2   13    1 ar   
     3   33    1 1    
     4   12    2 1    
     5   17    2 2    
     6   16    3 1    
     7   19    3 1    
     8    7    4 ar   
     9    8    4 1    
    10   27    5 am   
    11   28    5 1    
    12   32    5 1    
    13   16    6 2    
    14    9    7 ar   
    15   34    7 1    
    16   61    8 1    
    17   11    9 ar   
    18   15    9 1    
    19   13   10 ar   
    20   13   11 ar   
    21   16   11 1    
    22   26   12 1    
    23   27   14 2    
    24   17   15 1    
    25   35   15 1    
    26   36   15 1    
    27   18   17 1    
    28   24   18 2    
    29   37   18 1    
    30   20   19 1    
    31   38   19 1    
    32   39   19 1    
    33   21   20 1    
    34   40   20 1    
    35   41   20 1    
    36   22   21 2    
    37   42   21 1    
    38   23   22 1    
    39   43   22 1    
    40   25   23 1    
    41   44   23 1    
    42   45   23 1    
    43   25   24 1    
    44   46   24 1    
    45   47   25 1    
    46   48   25 1    
    47   27   26 1    
    48   49   26 1    
    49   50   26 1    
    50   29   28 1    
    51   51   28 1    
    52   52   28 1    
    53   30   29 1    
    54   53   29 1    
    55   54   29 1    
    56   31   30 1    
    57   55   30 1    
    58   56   30 1    
    59   32   31 1    
    60   57   31 1    
    61   58   31 1    
    62   59   32 1    
    63   60   32 1    
@<TRIPOS>SUBSTRUCTURE
     1 JZC2001     1 GROUP   
@<TRIPOS>SET

