#    Name: 3a0t_ADP_1_INTS_M
#    Modification time : Mon Apr  7 18:53:44 2014

@<TRIPOS>MOLECULE
3a0t_ADP_1_INTS_M
   69     0    15     0     0
SMALL
NO_CHARGES


@<TRIPOS>ATOM
      1 NZ        -32.7425   11.9165   39.3045 N.4       3 LYC4        0.0000 
      2 NZ        -33.7370   12.7010   39.8720 N.4      13 LYL4        0.0000 
      3 NZ        -31.7480   11.1320   38.7370 N.4       8 LYP4        0.0000 
      4 Zn        -34.0020   13.3715   39.1490 Zn        4 ZIC7        0.0000 
      5 Zn        -33.7370   12.7010   39.8720 Zn       14 ZIL7        0.0000 
      6 Zn        -34.2670   14.0420   38.4260 Zn        9 ZIP7        0.0000 
      7 N         -32.7425   11.9165   39.3045 N.am      2 SEC2        0.0000 
      8 N         -33.7370   12.7010   39.8720 N.am     12 SEL2        0.0000 
      9 N         -31.7480   11.1320   38.7370 N.am      7 SEP2        0.0000 
     10 NZ        -32.9835   11.1895   40.3085 N.4       3 LYC4        0.0000 
     11 NZ        -34.2190   11.2470   41.8800 N.4      13 LYL4        0.0000 
     12 N         -33.9860   10.8615   43.1170 N.am      2 SEC2        0.0000 
     13 N         -34.2190   11.2470   41.8800 N.am     12 SEL2        0.0000 
     14 N         -33.7530   10.4760   44.3540 N.am      7 SEP2        0.0000 
     15 N         -34.7350   15.2645   42.5140 N.am      2 SEC2        0.0000 
     16 N         -34.1410   13.7860   42.0930 N.am     12 SEL2        0.0000 
     17 N         -35.3290   16.7430   42.9350 N.am      7 SEP2        0.0000 
     18 N         -35.1560   13.9535   43.1195 N.am      2 SEC2        0.0000 
     19 N         -36.1710   14.1210   44.1460 N.am      7 SEP2        0.0000 
     20 N         -38.8785   13.4410   38.9370 N.am      2 SEC2        0.0000 
     21 N         -38.2680   12.5740   39.8650 N.am     12 SEL2        0.0000 
     22 N         -39.4890   14.3080   38.0090 N.am      7 SEP2        0.0000 
     23 Zn        -35.1950   13.6425   38.4595 Zn        4 ZIC7        0.0000 
     24 Zn        -36.1230   13.2430   38.4930 Zn       14 ZIL7        0.0000 
     25 N         -35.8315   12.8125   37.1745 N.am      2 SEC2        0.0000 
     26 N         -36.1230   13.2430   38.4930 N.am     12 SEL2        0.0000 
     27 N         -35.5400   12.3820   35.8560 N.am      7 SEP2        0.0000 
     28 CA        -38.0720    9.9940   38.4400 C.3       5 GLC5        0.0000 
     29 CA        -37.0730    9.9270   40.2240 C.3      15 GLL5        0.0000 
     30 CA        -39.0710   10.0610   36.6560 C.3      10 GLP5        0.0000 
     31 CA        -38.2550    7.7160   39.4420 C.3       5 GLC5        0.0000 
     32 CA        -36.4090    8.5540   40.0640 C.3      15 GLL5        0.0000 
     33 CA        -40.1010    6.8780   38.8200 C.3      10 GLP5        0.0000 
     34 N         -34.2260    8.0870   42.7200 N.am      2 SEC2        0.0000 
     35 N         -34.3020    8.6700   41.3580 N.am     12 SEL2        0.0000 
     36 N         -34.1500    7.5040   44.0820 N.am      7 SEP2        0.0000 
     37 N         -33.5605    7.3015   41.7335 N.am      2 SEC2        0.0000 
     38 N         -32.8190    5.9330   42.1090 N.am      7 SEP2        0.0000 
     39 O         -33.8225    6.0545   41.2315 O.2       1 ALC1        0.0000 
     40 O         -34.8260    6.1760   40.3540 O.2      11 ALL1        0.0000 
     41 O         -32.8190    5.9330   42.1090 O.2       6 ALP1        0.0000 
     42 CA        -37.5285    6.3530   38.7930 C.3       5 GLC5        0.0000 
     43 CA        -35.7170    7.1080   38.3800 C.3      15 GLL5        0.0000 
     44 CA        -39.3400    5.5980   39.2060 C.3      10 GLP5        0.0000 
     45 CA        -33.9535    9.7345   34.8370 C.3       5 GLC5        0.0000 
     46 CA        -34.4260    7.6330   34.9980 C.3      15 GLL5        0.0000 
     47 CA        -33.4810   11.8360   34.6760 C.3      10 GLP5        0.0000 
     48 CA        -31.8085    7.0785   33.9870 C.3       5 GLC5        0.0000 
     49 CA        -33.6470    7.0570   33.8850 C.3      15 GLL5        0.0000 
     50 CA        -29.9700    7.1000   34.0890 C.3      10 GLP5        0.0000 
     51 CA        -34.6975    5.8495   32.5550 C.3       5 GLC5        0.0000 
     52 CA        -35.7480    4.6420   31.2250 C.3      10 GLP5        0.0000 
     53 O         -32.6855    7.3810   31.6015 O.2       1 ALC1        0.0000 
     54 O         -33.4330    7.7860   32.7570 O.2      11 ALL1        0.0000 
     55 O         -31.9380    6.9760   30.4460 O.2       6 ALP1        0.0000 
     56 CA        -31.7055    6.0730   34.6165 C.3       5 GLC5        0.0000 
     57 CA        -33.4410    5.0460   35.1440 C.3      15 GLL5        0.0000 
     58 CA        -35.0070    4.0745   35.1235 C.3       5 GLC5        0.0000 
     59 CA        -36.5730    3.1030   35.1030 C.3      10 GLP5        0.0000 
     60 CA        -33.8170    3.8740   33.3930 C.3       5 GLC5        0.0000 
     61 CA        -34.1930    2.7020   31.6420 C.3      10 GLP5        0.0000 
     62 CA        -37.8280    8.1412   41.6405 C.3       5 GLC5        0.0000 
     63 CA        -38.9150    7.0420   43.1370 C.3      10 GLP5        0.0000 
     64 CA        -33.0222    8.9813   39.7317 C.3       5 GLC5        0.0000 
     65 CA        -34.8860    8.5600   40.0480 C.3      15 GLL5        0.0000 
     66 CA        -31.3100   10.0730   39.7430 C.3      10 GLP5        0.0000 
     67 CA        -35.7659    5.7692   35.0419 C.3       5 GLC5        0.0000 
     68 CA        -34.6070    6.7940   36.1920 C.3      15 GLL5        0.0000 
     69 CA        -37.2100    4.4690   34.7670 C.3      10 GLP5        0.0000 
@<TRIPOS>BOND
@<TRIPOS>SUBSTRUCTURE
     1 ALC1       39 GROUP        1 X    ALC  0     ROOT ALC X 1
     2 SEC2        7 GROUP        1 X    SEC  0     **** SEC X 2
     3 LYC4        1 GROUP        1 X    LYC  0     **** LYC X 4
     4 ZIC7        4 GROUP        1 X    ZIC  0     **** ZIC X 5
     5 GLC5       28 GROUP        1 X    GLC  0     **** GLC X 6
     6 ALP1       41 GROUP        1 Y    ALP  0     ROOT ALP Y 8
     7 SEP2        9 GROUP        1 Y    SEP  0     **** SEP Y 9
     8 LYP4        3 GROUP        1 Y    LYP  0     **** LYP Y 11
     9 ZIP7        6 GROUP        1 Y    ZIP  0     **** ZIP Y 12
    10 GLP5       30 GROUP        1 Y    GLP  0     **** GLP Y 13
    11 ALL1       40 GROUP        1 Z    ALL  0     ROOT ALL Z 15
    12 SEL2        8 GROUP        1 Z    SEL  0     **** SEL Z 16
    13 LYL4        2 GROUP        1 Z    LYL  0     **** LYL Z 18
    14 ZIL7        5 GROUP        1 Z    ZIL  0     **** ZIL Z 19
    15 GLL5       29 GROUP        1 Z    GLL  0     **** GLL Z 20
@<TRIPOS>SET

