#    Name: 3a0t_ADP_1_ligand
#    Modification time : Mon Apr  7 18:53:44 2014

@<TRIPOS>MOLECULE
3a0t_ADP_1_ligand
   39    41     1     0     0
SMALL
NO_CHARGES


@<TRIPOS>ATOM
      1 PB        -34.4140   12.5850   41.2140 P.3       1 ADP801      0.0000 
      2 O1B       -33.7370   12.7010   39.8720 O.co2     1 ADP801      0.0000 
      3 O2B       -34.2190   11.2470   41.8800 O.co2     1 ADP801      0.0000 
      4 O3B       -34.1410   13.7860   42.0930 O.co2     1 ADP801      0.0000 
      5 PA        -36.7950   12.4370   39.5790 P.3       1 ADP801      0.0000 
      6 O1A       -38.2680   12.5740   39.8650 O.co2     1 ADP801      0.0000 
      7 O2A       -36.1230   13.2430   38.4930 O.co2     1 ADP801      0.0000 
      8 O3A       -36.0130   12.6310   40.9770 O.3       1 ADP801      0.0000 
      9 O5'       -36.5550   10.8700   39.2830 O.3       1 ADP801      0.0000 
     10 C5'       -37.0730    9.9270   40.2240 C.3       1 ADP801      0.0000 
     11 C4'       -36.4090    8.5540   40.0640 C.3       1 ADP801      0.0000 
     12 O4'       -36.7540    8.0040   38.7960 O.3       1 ADP801      0.0000 
     13 C3'       -34.8860    8.5600   40.0480 C.3       1 ADP801      0.0000 
     14 O3'       -34.3020    8.6700   41.3580 O.3       1 ADP801      0.0000 
     15 C2'       -34.5830    7.2190   39.3930 C.3       1 ADP801      0.0000 
     16 O2'       -34.8260    6.1760   40.3540 O.3       1 ADP801      0.0000 
     17 C1'       -35.7170    7.1080   38.3800 C.3       1 ADP801      0.0000 
     18 N9        -35.2680    7.5600   37.0510 N.pl3     1 ADP801      0.0000 
     19 C8        -35.4950    8.7770   36.5060 C.2       1 ADP801      0.0000 
     20 N7        -34.9950    8.8420   35.2460 N.2       1 ADP801      0.0000 
     21 C5        -34.4260    7.6330   34.9980 C.ar      1 ADP801      0.0000 
     22 C6        -33.6470    7.0570   33.8850 C.ar      1 ADP801      0.0000 
     23 N6        -33.4330    7.7860   32.7570 N.pl3     1 ADP801      0.0000 
     24 N1        -33.2220    5.7750   34.0160 N.ar      1 ADP801      0.0000 
     25 C2        -33.4410    5.0460   35.1440 C.ar      1 ADP801      0.0000 
     26 N3        -34.0960    5.5180   36.2280 N.ar      1 ADP801      0.0000 
     27 C4        -34.6070    6.7940   36.1920 C.ar      1 ADP801      0.0000 
     28 H         -38.1594    9.7854   40.1015 H         1 ADP801      0.0000 
     29 H         -36.9064   10.2561   41.2629 H         1 ADP801      0.0000 
     30 H         -36.7384    7.8980   40.8494 H         1 ADP801      0.0000 
     31 H         -34.5710    9.3252   39.3713 H         1 ADP801      0.0000 
     32 H         -33.6901    7.2134   38.9391 H         1 ADP801      0.0000 
     33 H         -36.0592    6.1092   38.3441 H         1 ADP801      0.0000 
     34 H         -35.9570    9.5128   36.9572 H         1 ADP801      0.0000 
     35 H         -33.3723    8.7767   32.8783 H         1 ADP801      0.0000 
     36 H         -33.3552    7.2670   31.9058 H         1 ADP801      0.0000 
     37 H         -33.0735    4.0460   35.1705 H         1 ADP801      0.0000 
     38 H         -34.2485    9.6526   41.5357 H         1 ADP801      0.0000 
     39 H         -33.9366    6.0010   40.7762 H         1 ADP801      0.0000 
@<TRIPOS>BOND
     1    2    1 ar   
     2    3    1 ar   
     3    4    1 ar   
     4    8    1 1    
     5    6    5 ar   
     6    7    5 ar   
     7    8    5 1    
     8    9    5 1    
     9   10    9 1    
    10   11   10 1    
    11   28   10 1    
    12   29   10 1    
    13   12   11 1    
    14   13   11 1    
    15   30   11 1    
    16   17   12 1    
    17   14   13 1    
    18   15   13 1    
    19   31   13 1    
    20   38   14 1    
    21   16   15 1    
    22   17   15 1    
    23   32   15 1    
    24   39   16 1    
    25   18   17 1    
    26   33   17 1    
    27   19   18 1    
    28   27   18 1    
    29   20   19 2    
    30   34   19 1    
    31   21   20 1    
    32   22   21 ar   
    33   27   21 ar   
    34   23   22 1    
    35   24   22 ar   
    36   35   23 1    
    37   36   23 1    
    38   25   24 ar   
    39   26   25 ar   
    40   37   25 1    
    41   27   26 ar   
@<TRIPOS>SUBSTRUCTURE
     1 ADP801      1 GROUP   
@<TRIPOS>SET

