#    Name: 2oip_MTX_6_INTS_M
#    Modification time : Tue Mar 25 22:45:58 2014

@<TRIPOS>MOLECULE
2oip_MTX_6_INTS_M
   56     0    12     0     0
SMALL
NO_CHARGES


@<TRIPOS>ATOM
      1 CA        -76.9015  120.0650   23.9935 C.3       4 GLC5        0.0000 
      2 CA        -78.1670  118.4450   24.0340 C.3      12 GLL5        0.0000 
      3 CA        -75.6360  121.6850   23.9530 C.3       8 GLP5        0.0000 
      4 CA        -76.5975  117.8130   24.5315 C.3       4 GLC5        0.0000 
      5 CA        -75.0280  117.1810   25.0290 C.3       8 GLP5        0.0000 
      6 CA        -78.6595  117.0455   25.1615 C.3       4 GLC5        0.0000 
      7 CA        -79.1520  115.6460   26.2890 C.3       8 GLP5        0.0000 
      8 CA        -76.4280  119.9170   22.9420 C.3       4 GLC5        0.0000 
      9 CA        -77.2200  118.1490   21.9310 C.3      12 GLL5        0.0000 
     10 CA        -76.1240  117.6650   23.4800 C.3       4 GLC5        0.0000 
     11 O         -75.1000  118.4450   21.9950 O.2       1 ALC1        0.0000 
     12 O         -76.1840  118.2930   21.0790 O.2       9 ALL1        0.0000 
     13 O         -74.0160  118.5970   22.9110 O.2       5 ALP1        0.0000 
     14 O         -74.8825  117.2110   21.3920 O.2       1 ALC1        0.0000 
     15 O         -73.5810  116.1290   21.7050 O.2       5 ALP1        0.0000 
     16 CA        -82.3515  117.4785   20.9350 C.3       4 GLC5        0.0000 
     17 CA        -80.6780  116.3640   20.7350 C.3      12 GLL5        0.0000 
     18 CA        -84.0250  118.5930   21.1350 C.3       8 GLP5        0.0000 
     19 CA        -79.2895  116.5230   24.3360 C.3       4 GLC5        0.0000 
     20 CA        -79.4270  117.4000   22.3830 C.3      12 GLL5        0.0000 
     21 CA        -78.1495  114.9840   18.6305 C.3       4 GLC5        0.0000 
     22 CA        -79.7600  116.0040   18.4400 C.3      12 GLL5        0.0000 
     23 CA        -76.5390  113.9640   18.8210 C.3       8 GLP5        0.0000 
     24 CA        -77.3955  116.3190   15.9095 C.3       4 GLC5        0.0000 
     25 CA        -78.3930  117.3340   16.8150 C.3      12 GLL5        0.0000 
     26 CA        -76.3980  115.3040   15.0040 C.3       8 GLP5        0.0000 
     27 CA        -77.4660  115.6490   17.8180 C.3       4 GLC5        0.0000 
     28 CA        -80.2265  121.7235   15.8320 C.3       4 GLC5        0.0000 
     29 CA        -81.2190  120.4040   17.1590 C.3      12 GLL5        0.0000 
     30 CA        -79.2340  123.0430   14.5050 C.3       8 GLP5        0.0000 
     31 CA        -80.7650  119.0350   15.1180 C.3       4 GLC5        0.0000 
     32 CA        -80.2560  119.4230   17.2710 C.3      12 GLL5        0.0000 
     33 CA        -81.2740  118.6470   12.9650 C.3       8 GLP5        0.0000 
     34 CA        -82.8825  123.5620   15.8340 C.3       4 GLC5        0.0000 
     35 CA        -84.1150  123.4470   17.2670 C.3      12 GLL5        0.0000 
     36 CA        -81.6500  123.6770   14.4010 C.3       8 GLP5        0.0000 
     37 N         -82.7485  126.5195   16.6225 N.am      2 SEC2        0.0000 
     38 N         -83.9580  125.8000   17.3790 N.am     10 SEL2        0.0000 
     39 N         -81.5390  127.2390   15.8660 N.am      6 SEP2        0.0000 
     40 NZ        -81.0970  125.4565   17.6075 N.4       3 LYC4        0.0000 
     41 NZ        -82.2030  124.6180   17.9410 N.4      11 LYL4        0.0000 
     42 NZ        -80.2860  127.1500   16.3020 N.4       7 LYP4        0.0000 
     43 N         -81.0970  125.4565   17.6075 N.am      2 SEC2        0.0000 
     44 N         -82.2030  124.6180   17.9410 N.am     10 SEL2        0.0000 
     45 N         -79.9910  126.2950   17.2740 N.am      6 SEP2        0.0000 
     46 N         -81.8710  125.9285   16.9035 N.am      2 SEC2        0.0000 
     47 CA        -85.1730  121.9465   20.1170 C.3       4 GLC5        0.0000 
     48 CA        -85.1340  123.2160   18.3700 C.3      12 GLL5        0.0000 
     49 CA        -85.2120  120.6770   21.8640 C.3       8 GLP5        0.0000 
     50 CA        -84.3680  125.5920   19.8045 C.3       4 GLC5        0.0000 
     51 CA        -85.6050  124.5480   18.9420 C.3      12 GLL5        0.0000 
     52 CA        -83.1310  126.6360   20.6670 C.3       8 GLP5        0.0000 
     53 CA        -80.6598  114.6319   20.0826 C.3       4 GLC5        0.0000 
     54 CA        -81.3640  113.0450   20.7990 C.3       8 GLP5        0.0000 
     55 CA        -83.1857  118.5875   19.2849 C.3       4 GLC5        0.0000 
     56 CA        -82.9240  118.7450   17.4250 C.3      12 GLL5        0.0000 
@<TRIPOS>BOND
@<TRIPOS>SUBSTRUCTURE
     1 ALC1       11 GROUP        1 X    ALC  0     ROOT ALC X 1
     2 SEC2       37 GROUP        1 X    SEC  0     **** SEC X 2
     3 LYC4       40 GROUP        1 X    LYC  0     **** LYC X 4
     4 GLC5        1 GROUP        1 X    GLC  0     **** GLC X 6
     5 ALP1       13 GROUP        1 Y    ALP  0     ROOT ALP Y 8
     6 SEP2       39 GROUP        1 Y    SEP  0     **** SEP Y 9
     7 LYP4       42 GROUP        1 Y    LYP  0     **** LYP Y 11
     8 GLP5        3 GROUP        1 Y    GLP  0     **** GLP Y 13
     9 ALL1       12 GROUP        1 Z    ALL  0     ROOT ALL Z 15
    10 SEL2       38 GROUP        1 Z    SEL  0     **** SEL Z 16
    11 LYL4       41 GROUP        1 Z    LYL  0     **** LYL Z 18
    12 GLL5        2 GROUP        1 Z    GLL  0     **** GLL Z 20
@<TRIPOS>SET

