#    Name: 2oip_MTX_6_ligand
#    Modification time : Tue Mar 25 22:45:58 2014

@<TRIPOS>MOLECULE
2oip_MTX_6_ligand
   53    55     1     0     0
SMALL
NO_CHARGES


@<TRIPOS>ATOM
      1 N1        -79.3050  117.8580   23.6390 N.ar      1 MTX613      0.0000 
      2 C2        -78.1670  118.4450   24.0340 C.ar      1 MTX613      0.0000 
      3 NA2       -78.0630  118.8920   25.2990 N.pl3     1 MTX613      0.0000 
      4 N3        -77.1300  118.5910   23.1950 N.ar      1 MTX613      0.0000 
      5 C4        -77.2200  118.1490   21.9310 C.ar      1 MTX613      0.0000 
      6 NA4       -76.1840  118.2930   21.0790 N.pl3     1 MTX613      0.0000 
      7 C4A       -78.3780  117.5400   21.5020 C.ar      1 MTX613      0.0000 
      8 N5        -78.4840  117.0920   20.2410 N.ar      1 MTX613      0.0000 
      9 C6        -79.6240  116.5030   19.8500 C.ar      1 MTX613      0.0000 
     10 C7        -80.6780  116.3640   20.7350 C.ar      1 MTX613      0.0000 
     11 N8        -80.5670  116.8130   21.9840 N.ar      1 MTX613      0.0000 
     12 C8A       -79.4270  117.4000   22.3830 C.ar      1 MTX613      0.0000 
     13 C9        -79.7600  116.0040   18.4400 C.3       1 MTX613      0.0000 
     14 N10       -79.6150  117.1520   17.5720 N.pl3     1 MTX613      0.0000 
     15 CM        -78.3930  117.3340   16.8150 C.3       1 MTX613      0.0000 
     16 C11       -82.5500  120.0630   17.2320 C.ar      1 MTX613      0.0000 
     17 C12       -81.2190  120.4040   17.1590 C.ar      1 MTX613      0.0000 
     18 C13       -80.2560  119.4230   17.2710 C.ar      1 MTX613      0.0000 
     19 C14       -80.6210  118.1080   17.4650 C.ar      1 MTX613      0.0000 
     20 C15       -81.9560  117.7600   17.5410 C.ar      1 MTX613      0.0000 
     21 C16       -82.9240  118.7450   17.4250 C.ar      1 MTX613      0.0000 
     22 C         -83.5660  121.1470   17.1240 C.2       1 MTX613      0.0000 
     23 O         -84.8250  120.8610   16.8380 O.2       1 MTX613      0.0000 
     24 N         -83.2010  122.3270   17.3390 N.am      1 MTX613      0.0000 
     25 CA        -84.1150  123.4470   17.2670 C.3       1 MTX613      0.0000 
     26 CT        -83.3790  124.7110   17.5490 C.2       1 MTX613      0.0000 
     27 O1        -83.9580  125.8000   17.3790 O.co2     1 MTX613      0.0000 
     28 O2        -82.2030  124.6180   17.9410 O.co2     1 MTX613      0.0000 
     29 CB        -85.1340  123.2160   18.3700 C.3       1 MTX613      0.0000 
     30 CG        -85.6050  124.5480   18.9420 C.3       1 MTX613      0.0000 
     31 CD        -86.8830  124.3810   19.7290 C.2       1 MTX613      0.0000 
     32 OE1       -87.3680  123.2420   19.8590 O.co2     1 MTX613      0.0000 
     33 OE2       -87.4130  125.3960   20.2200 O.co2     1 MTX613      0.0000 
     34 H         -77.2149  119.3695   25.5286 H         1 MTX613      0.0000 
     35 H         -78.8431  118.7068   25.8966 H         1 MTX613      0.0000 
     36 H         -76.4206  118.4129   20.1148 H         1 MTX613      0.0000 
     37 H         -75.2716  118.2669   21.4874 H         1 MTX613      0.0000 
     38 H         -81.5501  115.9042   20.4018 H         1 MTX613      0.0000 
     39 H         -80.7349  115.5430   18.3217 H         1 MTX613      0.0000 
     40 H         -78.9858  115.2681   18.2503 H         1 MTX613      0.0000 
     41 H         -80.9416  121.3866   17.0214 H         1 MTX613      0.0000 
     42 H         -79.2547  119.6757   17.2090 H         1 MTX613      0.0000 
     43 H         -82.2304  116.7810   17.6821 H         1 MTX613      0.0000 
     44 H         -83.9217  118.4948   17.4826 H         1 MTX613      0.0000 
     45 H         -82.2058  122.5999   17.5882 H         1 MTX613      0.0000 
     46 H         -84.6095  123.4903   16.3419 H         1 MTX613      0.0000 
     47 H         -84.6818  122.6246   19.1632 H         1 MTX613      0.0000 
     48 H         -85.9882  122.6763   17.9671 H         1 MTX613      0.0000 
     49 H         -85.7692  125.2500   18.1214 H         1 MTX613      0.0000 
     50 H         -84.8252  124.9526   19.5912 H         1 MTX613      0.0000 
     51 H         -77.5941  117.4090   17.4118 H         1 MTX613      0.0000 
     52 H         -78.2238  116.5692   16.1934 H         1 MTX613      0.0000 
     53 H         -78.4215  118.1638   16.2577 H         1 MTX613      0.0000 
@<TRIPOS>BOND
     1    2    1 ar   
     2   12    1 ar   
     3    3    2 1    
     4    4    2 ar   
     5   34    3 1    
     6   35    3 1    
     7    5    4 ar   
     8    6    5 1    
     9    7    5 ar   
    10   36    6 1    
    11   37    6 1    
    12    8    7 ar   
    13   12    7 ar   
    14    9    8 ar   
    15   10    9 ar   
    16   13    9 1    
    17   11   10 ar   
    18   38   10 1    
    19   12   11 ar   
    20   14   13 1    
    21   39   13 1    
    22   40   13 1    
    23   15   14 1    
    24   19   14 1    
    25   51   15 1    
    26   52   15 1    
    27   53   15 1    
    28   17   16 ar   
    29   21   16 ar   
    30   22   16 1    
    31   18   17 ar   
    32   41   17 1    
    33   19   18 ar   
    34   42   18 1    
    35   20   19 ar   
    36   21   20 ar   
    37   43   20 1    
    38   44   21 1    
    39   23   22 2    
    40   24   22 am   
    41   25   24 1    
    42   45   24 1    
    43   26   25 1    
    44   29   25 1    
    45   46   25 1    
    46   27   26 ar   
    47   28   26 ar   
    48   30   29 1    
    49   47   29 1    
    50   48   29 1    
    51   31   30 1    
    52   49   30 1    
    53   50   30 1    
    54   32   31 ar   
    55   33   31 ar   
@<TRIPOS>SUBSTRUCTURE
     1 MTX613      1 GROUP   
@<TRIPOS>SET

