#    Name: 3grr_SAH_1_INTS_M
#    Modification time : Tue Mar 25 12:53:33 2014

@<TRIPOS>MOLECULE
3grr_SAH_1_INTS_M
   79     0    12     0     0
SMALL
NO_CHARGES


@<TRIPOS>ATOM
      1 OD1        16.1460   19.7635   15.8015 O.co2     3 ASC3        0.0000 
      2 OD1        17.7090   19.5270   14.8100 O.co2    11 ASL3        0.0000 
      3 OD1        14.5830   20.0000   16.7930 O.co2     7 ASP3        0.0000 
      4 O          16.0125   19.4405   14.5295 O.2       1 ALC1        0.0000 
      5 O          17.7090   19.5270   14.8100 O.2       9 ALL1        0.0000 
      6 O          14.3160   19.3540   14.2490 O.2       5 ALP1        0.0000 
      7 CA         18.9140   18.2495   14.9085 C.3       4 GLC5        0.0000 
      8 CA         17.9340   19.3710   13.3410 C.3      12 GLL5        0.0000 
      9 CA         19.8940   17.1280   16.4760 C.3       8 GLP5        0.0000 
     10 CA         20.1735   18.5915   15.0315 C.3       4 GLC5        0.0000 
     11 CA         20.4530   20.0550   13.5870 C.3      12 GLL5        0.0000 
     12 CA         21.0325   20.3270   11.0335 C.3       4 GLC5        0.0000 
     13 CA         21.8240   20.7150   12.6090 C.3      12 GLL5        0.0000 
     14 CA         20.2410   19.9390    9.4580 C.3       8 GLP5        0.0000 
     15 N          18.9140   16.4470   11.3980 N.am      2 SEC2        0.0000 
     16 N          18.1560   17.5730   11.7640 N.am     10 SEL2        0.0000 
     17 N          19.6720   15.3210   11.0320 N.am      6 SEP2        0.0000 
     18 CA         19.4555   23.7360   14.7385 C.3       4 GLC5        0.0000 
     19 CA         20.8590   23.2690   13.4810 C.3      12 GLL5        0.0000 
     20 CA         18.0520   24.2030   15.9960 C.3       8 GLP5        0.0000 
     21 CA         20.5355   22.6355   10.7055 C.3       4 GLC5        0.0000 
     22 CA         20.8430   23.9510   12.1150 C.3      12 GLL5        0.0000 
     23 CA         20.2280   21.3200    9.2960 C.3       8 GLP5        0.0000 
     24 N          18.0635   23.3395   11.7670 N.am      2 SEC2        0.0000 
     25 N          19.4910   24.1910   11.7880 N.am     10 SEL2        0.0000 
     26 N          16.6360   22.4880   11.7460 N.am      6 SEP2        0.0000 
     27 O          18.7040   25.0740   12.4835 O.2       1 ALC1        0.0000 
     28 O          19.4910   24.1910   11.7880 O.2       9 ALL1        0.0000 
     29 O          17.9170   25.9570   13.1790 O.2       5 ALP1        0.0000 
     30 O          19.2645   25.8595   11.9660 O.2       1 ALC1        0.0000 
     31 O          19.0380   27.5280   12.1440 O.2       5 ALP1        0.0000 
     32 O          20.0945   26.9195   11.8160 O.2       1 ALC1        0.0000 
     33 O          21.1510   26.3110   11.4880 O.2       9 ALL1        0.0000 
     34 CA         19.6290   24.8840   14.8865 C.3       4 GLC5        0.0000 
     35 CA         21.2060   25.5650   13.7770 C.3      12 GLL5        0.0000 
     36 CA         21.6785   27.6850   13.5670 C.3       4 GLC5        0.0000 
     37 CA         22.1510   29.8050   13.3570 C.3       8 GLP5        0.0000 
     38 CA         22.4395   24.7600   15.3300 C.3       4 GLC5        0.0000 
     39 CA         23.6730   23.9550   16.8830 C.3       8 GLP5        0.0000 
     40 CA         22.2230   29.6375   15.7675 C.3       4 GLC5        0.0000 
     41 CA         22.9970   28.5120   17.2000 C.3      12 GLL5        0.0000 
     42 CA         21.4490   30.7630   14.3350 C.3       8 GLP5        0.0000 
     43 CA         22.3340   30.4640   17.8245 C.3       4 GLC5        0.0000 
     44 CA         21.6710   32.4160   18.4490 C.3       8 GLP5        0.0000 
     45 CA         23.6795   27.0540   18.7415 C.3       4 GLC5        0.0000 
     46 CA         24.3620   25.5960   20.2830 C.3       8 GLP5        0.0000 
     47 O          24.1005   30.1895   18.5365 O.2       1 ALC1        0.0000 
     48 O          24.1130   29.0300   17.7200 O.2       9 ALL1        0.0000 
     49 O          24.0880   31.3490   19.3530 O.2       5 ALP1        0.0000 
     50 N          21.5260   29.7320   18.8940 N.am      2 SEC2        0.0000 
     51 N          21.7710   28.8410   17.7420 N.am     10 SEL2        0.0000 
     52 N          21.2810   30.6230   20.0460 N.am      6 SEP2        0.0000 
     53 CA         20.4475   26.6570   18.5600 C.3       4 GLC5        0.0000 
     54 CA         20.5980   28.3140   17.2280 C.3      12 GLL5        0.0000 
     55 CA         20.2970   25.0000   19.8920 C.3       8 GLP5        0.0000 
     56 CA         19.0800   29.1395   18.4250 C.3       4 GLC5        0.0000 
     57 CA         17.5620   29.9650   19.6220 C.3       8 GLP5        0.0000 
     58 CA         18.8735   28.5040   16.1955 C.3       4 GLC5        0.0000 
     59 CA         17.1490   28.6940   15.1630 C.3       8 GLP5        0.0000 
     60 CA         21.0235   29.5385   15.7815 C.3       4 GLC5        0.0000 
     61 CA         21.1345   30.3650   17.8385 C.3       4 GLC5        0.0000 
     62 CA         20.6435   28.4185   19.2280 C.3       4 GLC5        0.0000 
     63 CA         20.6890   28.5230   21.2280 C.3       8 GLP5        0.0000 
     64 N          19.8950   28.6545   15.2560 N.am      2 SEC2        0.0000 
     65 N          20.6610   27.4620   16.1480 N.am     10 SEL2        0.0000 
     66 N          19.1290   29.8470   14.3640 N.am      6 SEP2        0.0000 
     67 CA         17.7130   20.6847   11.8585 C.3       4 GLC5        0.0000 
     68 CA         19.1260   20.1960   12.8490 C.3      12 GLL5        0.0000 
     69 CA         16.8960   21.5860   10.6220 C.3       8 GLP5        0.0000 
     70 CA         20.0153   20.0323   11.3380 C.3       4 GLC5        0.0000 
     71 CA         22.8045   21.9248   11.3677 C.3       4 GLC5        0.0000 
     72 CA         23.7260   22.3960    9.5960 C.3       8 GLP5        0.0000 
     73 CA         22.5367   23.3427   15.2292 C.3       4 GLC5        0.0000 
     74 CA         21.9420   22.1920   13.6700 C.3      12 GLL5        0.0000 
     75 CA         22.6163   24.2473   11.0235 C.3       4 GLC5        0.0000 
     76 CA         24.0240   23.8850    9.8210 C.3       8 GLP5        0.0000 
     77 CA         22.3035   28.5948   14.6085 C.3       4 GLC5        0.0000 
     78 CA         21.8620   27.1270   15.6060 C.3      12 GLL5        0.0000 
     79 CA         23.0645   25.6697   16.3715 C.3       4 GLC5        0.0000 
@<TRIPOS>BOND
@<TRIPOS>SUBSTRUCTURE
     1 ALC1        4 GROUP        1 X    ALC  0     ROOT ALC X 1
     2 SEC2       15 GROUP        1 X    SEC  0     **** SEC X 2
     3 ASC3        1 GROUP        1 X    ASC  0     **** ASC X 3
     4 GLC5        7 GROUP        1 X    GLC  0     **** GLC X 6
     5 ALP1        6 GROUP        1 Y    ALP  0     ROOT ALP Y 8
     6 SEP2       17 GROUP        1 Y    SEP  0     **** SEP Y 9
     7 ASP3        3 GROUP        1 Y    ASP  0     **** ASP Y 10
     8 GLP5        9 GROUP        1 Y    GLP  0     **** GLP Y 13
     9 ALL1        5 GROUP        1 Z    ALL  0     ROOT ALL Z 15
    10 SEL2       16 GROUP        1 Z    SEL  0     **** SEL Z 16
    11 ASL3        2 GROUP        1 Z    ASL  0     **** ASL Z 17
    12 GLL5        8 GROUP        1 Z    GLL  0     **** GLL Z 20
@<TRIPOS>SET

