#    Name: 3grr_SAH_1_ligand
#    Modification time : Tue Mar 25 12:53:33 2014

@<TRIPOS>MOLECULE
3grr_SAH_1_ligand
   46    48     1     0     0
SMALL
NO_CHARGES


@<TRIPOS>ATOM
      1 N          17.7090   19.5270   14.8100 N.4       1 SAH300      0.0000 
      2 CA         17.9340   19.3710   13.3410 C.3       1 SAH300      0.0000 
      3 CB         19.1260   20.1960   12.8490 C.3       1 SAH300      0.0000 
      4 CG         20.4530   20.0550   13.5870 C.3       1 SAH300      0.0000 
      5 SD         21.8240   20.7150   12.6090 S.3       1 SAH300      0.0000 
      6 C          18.0980   17.9120   12.9470 C.2       1 SAH300      0.0000 
      7 O          18.1560   17.5730   11.7640 O.co2     1 SAH300      0.0000 
      8 OXT        18.1710   17.0360   13.8070 O.co2     1 SAH300      0.0000 
      9 C5'        21.9420   22.1920   13.6700 C.3       1 SAH300      0.0000 
     10 C4'        20.8590   23.2690   13.4810 C.3       1 SAH300      0.0000 
     11 O4'        21.0740   24.3080   14.4180 O.3       1 SAH300      0.0000 
     12 C3'        20.8430   23.9510   12.1150 C.3       1 SAH300      0.0000 
     13 O3'        19.4910   24.1910   11.7880 O.3       1 SAH300      0.0000 
     14 C2'        21.5740   25.2680   12.3370 C.3       1 SAH300      0.0000 
     15 O2'        21.1510   26.3110   11.4880 O.3       1 SAH300      0.0000 
     16 C1'        21.2060   25.5650   13.7770 C.3       1 SAH300      0.0000 
     17 N9         22.1960   26.3210   14.5480 N.pl3     1 SAH300      0.0000 
     18 C8         23.5620   26.3290   14.4160 C.2       1 SAH300      0.0000 
     19 N7         24.0730   27.1440   15.3660 N.2       1 SAH300      0.0000 
     20 C5         23.0500   27.6420   16.1140 C.ar      1 SAH300      0.0000 
     21 C6         22.9970   28.5120   17.2000 C.ar      1 SAH300      0.0000 
     22 N6         24.1130   29.0300   17.7200 N.pl3     1 SAH300      0.0000 
     23 N1         21.7710   28.8410   17.7420 N.ar      1 SAH300      0.0000 
     24 C2         20.5980   28.3140   17.2280 C.ar      1 SAH300      0.0000 
     25 N3         20.6610   27.4620   16.1480 N.ar      1 SAH300      0.0000 
     26 C4         21.8620   27.1270   15.6060 C.ar      1 SAH300      0.0000 
     27 H          17.0400   19.7518   12.8107 H         1 SAH300      0.0000 
     28 H          18.8301   21.2778   12.8535 H         1 SAH300      0.0000 
     29 H          19.2946   19.9581   11.7660 H         1 SAH300      0.0000 
     30 H          20.7493   19.0414   13.7445 H         1 SAH300      0.0000 
     31 H          20.5084   20.6346   14.4820 H         1 SAH300      0.0000 
     32 H          22.9449   22.5536   13.4466 H         1 SAH300      0.0000 
     33 H          21.9389   21.7564   14.6683 H         1 SAH300      0.0000 
     34 H          19.8879   22.8190   13.6458 H         1 SAH300      0.0000 
     35 H          21.3619   23.3633   11.4340 H         1 SAH300      0.0000 
     36 H          22.6207   25.0701   12.3119 H         1 SAH300      0.0000 
     37 H          20.2513   26.0734   13.7908 H         1 SAH300      0.0000 
     38 H          24.0578   25.8368   13.7587 H         1 SAH300      0.0000 
     39 H          23.9951   29.6083   18.5273 H         1 SAH300      0.0000 
     40 H          24.9662   28.7930   17.2553 H         1 SAH300      0.0000 
     41 H          19.6948   28.5576   17.6492 H         1 SAH300      0.0000 
     42 H          18.5052   19.2363   15.3406 H         1 SAH300      0.0000 
     43 H          17.5224   20.4776   15.0583 H         1 SAH300      0.0000 
     44 H          16.9316   18.9834   15.1264 H         1 SAH300      0.0000 
     45 H          19.1927   24.9010   12.4259 H         1 SAH300      0.0000 
     46 H          20.6647   26.9492   12.0848 H         1 SAH300      0.0000 
@<TRIPOS>BOND
     1    2    1 1    
     2   42    1 1    
     3   43    1 1    
     4   44    1 1    
     5    3    2 1    
     6    6    2 1    
     7   27    2 1    
     8    4    3 1    
     9   28    3 1    
    10   29    3 1    
    11    5    4 1    
    12   30    4 1    
    13   31    4 1    
    14    9    5 1    
    15    7    6 ar   
    16    8    6 ar   
    17   10    9 1    
    18   32    9 1    
    19   33    9 1    
    20   11   10 1    
    21   12   10 1    
    22   34   10 1    
    23   16   11 1    
    24   13   12 1    
    25   14   12 1    
    26   35   12 1    
    27   45   13 1    
    28   15   14 1    
    29   16   14 1    
    30   36   14 1    
    31   46   15 1    
    32   17   16 1    
    33   37   16 1    
    34   18   17 1    
    35   26   17 1    
    36   19   18 2    
    37   38   18 1    
    38   20   19 1    
    39   21   20 ar   
    40   26   20 ar   
    41   22   21 1    
    42   23   21 ar   
    43   39   22 1    
    44   40   22 1    
    45   24   23 ar   
    46   25   24 ar   
    47   41   24 1    
    48   26   25 ar   
@<TRIPOS>SUBSTRUCTURE
     1 SAH300      1 GROUP   
@<TRIPOS>SET

