#    Name: 1nbo_NAD_2_INTS_M
#    Modification time : Mon Mar 24 17:59:35 2014

@<TRIPOS>MOLECULE
1nbo_NAD_2_INTS_M
   64     0     9     0     0
SMALL
NO_CHARGES


@<TRIPOS>ATOM
      1 N          16.3680  145.5465   35.9880 N.am      2 SEC2        0.0000 
      2 N          16.2810  144.0820   36.0530 N.am      8 SEL2        0.0000 
      3 N          16.4550  147.0110   35.9230 N.am      5 SEP2        0.0000 
      4 CA         11.2380  143.3170   33.7435 C.3       3 GLC5        0.0000 
      5 CA         12.7350  143.1430   35.0820 C.3       9 GLL5        0.0000 
      6 CA          9.7410  143.4910   32.4050 C.3       6 GLP5        0.0000 
      7 O          11.3420  144.8325   38.7515 O.2       1 ALC1        0.0000 
      8 O          12.5880  143.8850   38.7190 O.2       7 ALL1        0.0000 
      9 O          10.0960  145.7800   38.7840 O.2       4 ALP1        0.0000 
     10 O           9.7520  141.4790   40.2055 O.2       1 ALC1        0.0000 
     11 O          10.9640  141.6960   39.3350 O.2       7 ALL1        0.0000 
     12 O           8.5400  141.2620   41.0760 O.2       4 ALP1        0.0000 
     13 CA          9.4465  144.7555   36.4015 C.3       3 GLC5        0.0000 
     14 CA         10.0290  142.7750   37.2860 C.3       9 GLL5        0.0000 
     15 CA          8.8640  146.7360   35.5170 C.3       6 GLP5        0.0000 
     16 CA          7.6535  142.1330   34.4300 C.3       3 GLC5        0.0000 
     17 CA          6.9560  141.2450   35.9840 C.3       9 GLL5        0.0000 
     18 CA          8.3510  143.0210   32.8760 C.3       6 GLP5        0.0000 
     19 CA          3.8210  140.9885   36.8690 C.3       3 GLC5        0.0000 
     20 CA          5.5380  141.4030   35.7700 C.3       9 GLL5        0.0000 
     21 CA          2.1040  140.5740   37.9680 C.3       6 GLP5        0.0000 
     22 CA          6.5450  142.7945   34.6035 C.3       3 GLC5        0.0000 
     23 CA          7.5520  144.1860   33.4370 C.3       6 GLP5        0.0000 
     24 O           3.2890  140.0030   35.5175 O.2       1 ALC1        0.0000 
     25 O           4.7630  140.4810   35.2030 O.2       7 ALL1        0.0000 
     26 O           1.8150  139.5250   35.8320 O.2       4 ALP1        0.0000 
     27 CA          6.2525  144.6700   38.2800 C.3       3 GLC5        0.0000 
     28 CA          5.7260  143.5460   36.7850 C.3       9 GLL5        0.0000 
     29 CA          6.7790  145.7940   39.7750 C.3       6 GLP5        0.0000 
     30 CA          6.1340  142.1715   38.2970 C.3       3 GLC5        0.0000 
     31 CA          6.5420  140.7970   39.8090 C.3       6 GLP5        0.0000 
     32 CA          6.6390  143.8660   35.1110 C.3       3 GLC5        0.0000 
     33 CA          7.5815  143.2495   35.0135 C.3       3 GLC5        0.0000 
     34 CA          7.6110  142.3130   36.5900 C.3       9 GLL5        0.0000 
     35 N          16.3305  147.0860   33.3180 N.am      2 SEC2        0.0000 
     36 N          16.2030  145.6230   33.0980 N.am      8 SEL2        0.0000 
     37 N          16.4580  148.5490   33.5380 N.am      5 SEP2        0.0000 
     38 CA         15.9955  146.1450   28.4510 C.3       3 GLC5        0.0000 
     39 CA         15.6910  144.4620   27.7680 C.3       9 GLL5        0.0000 
     40 CA         16.3000  147.8280   29.1340 C.3       6 GLP5        0.0000 
     41 N          22.9585  145.8460   29.2130 N.am      2 SEC2        0.0000 
     42 N          21.5950  145.6620   28.9600 N.am      8 SEL2        0.0000 
     43 N          24.3220  146.0300   29.4660 N.am      5 SEP2        0.0000 
     44 CA         19.9715  146.9055   25.4895 C.3       3 GLC5        0.0000 
     45 CA         18.4520  146.5910   26.4360 C.3       9 GLL5        0.0000 
     46 CA         21.4910  147.2200   24.5430 C.3       6 GLP5        0.0000 
     47 CA         13.2848  144.9275   36.7039 C.3       3 GLC5        0.0000 
     48 CA         14.1920  146.6820   36.7270 C.3       6 GLP5        0.0000 
     49 CA          6.7355  141.3077   38.0213 C.3       3 GLC5        0.0000 
     50 CA         15.2692  146.0195   29.7045 C.3       3 GLC5        0.0000 
     51 CA         14.3810  144.2360   31.0210 C.3       9 GLL5        0.0000 
     52 CA         12.6393  142.4348   29.3723 C.3       3 GLC5        0.0000 
     53 CA         14.0960  144.1860   29.5290 C.3       9 GLL5        0.0000 
     54 CA         11.0600  141.3830   29.5410 C.3       6 GLP5        0.0000 
     55 CA         14.4177  143.9265   26.3365 C.3       3 GLC5        0.0000 
     56 CA         15.7100  142.9980   28.1720 C.3       9 GLL5        0.0000 
     57 CA         13.1350  144.1230   24.7030 C.3       6 GLP5        0.0000 
     58 CA         17.4543  146.5258   28.8528 C.3       3 GLC5        0.0000 
     59 CA         17.9950  144.9020   28.6400 C.3       9 GLL5        0.0000 
     60 CA         20.6352  145.7432   26.4468 C.3       3 GLC5        0.0000 
     61 CA         19.2220  145.5450   28.5030 C.3       9 GLL5        0.0000 
     62 CA         21.9130  145.5050   24.9470 C.3       6 GLP5        0.0000 
     63 CA         17.1924  147.0371   27.9190 C.3       3 GLC5        0.0000 
     64 CA         17.1970  145.9880   26.4950 C.3       9 GLL5        0.0000 
@<TRIPOS>BOND
@<TRIPOS>SUBSTRUCTURE
     1 ALC1        7 GROUP        1 X    ALC  0     ROOT ALC X 1
     2 SEC2        1 GROUP        1 X    SEC  0     **** SEC X 2
     3 GLC5        4 GROUP        1 X    GLC  0     **** GLC X 6
     4 ALP1        9 GROUP        1 Y    ALP  0     ROOT ALP Y 8
     5 SEP2        3 GROUP        1 Y    SEP  0     **** SEP Y 9
     6 GLP5        6 GROUP        1 Y    GLP  0     **** GLP Y 13
     7 ALL1        8 GROUP        1 Z    ALL  0     ROOT ALL Z 15
     8 SEL2        2 GROUP        1 Z    SEL  0     **** SEL Z 16
     9 GLL5        5 GROUP        1 Z    GLL  0     **** GLL Z 20
@<TRIPOS>SET

