#    Name: 1nbo_NAD_2_ligand
#    Modification time : Mon Mar 24 17:59:36 2014

@<TRIPOS>MOLECULE
1nbo_NAD_2_ligand
   70    74     1     0     0
SMALL
NO_CHARGES


@<TRIPOS>ATOM
      1 PA         15.4220  143.2250   35.1330 P.3       1 NAD6335     0.0000 
      2 O1A        15.3750  141.8550   35.7370 O.co2     1 NAD6335     0.0000 
      3 O2A        16.2810  144.0820   36.0530 O.co2     1 NAD6335     0.0000 
      4 O5B        14.0290  143.9400   35.0900 O.3       1 NAD6335     0.0000 
      5 C5B        12.7350  143.1430   35.0820 C.3       1 NAD6335     0.0000 
      6 C4B        12.0390  143.6310   36.3370 C.3       1 NAD6335     0.0000 
      7 O4B        10.5950  143.4860   36.1600 O.3       1 NAD6335     0.0000 
      8 C3B        12.3680  142.9590   37.6520 C.3       1 NAD6335     0.0000 
      9 O3B        12.5880  143.8850   38.7190 O.3       1 NAD6335     0.0000 
     10 C2B        11.1860  142.0160   37.9320 C.3       1 NAD6335     0.0000 
     11 O2B        10.9640  141.6960   39.3350 O.3       1 NAD6335     0.0000 
     12 C1B        10.0290  142.7750   37.2860 C.3       1 NAD6335     0.0000 
     13 N9A         8.9470  141.9250   36.6830 N.pl3     1 NAD6335     0.0000 
     14 C8A         9.0290  140.6670   36.1220 C.2       1 NAD6335     0.0000 
     15 N7A         7.8450  140.2410   35.6920 N.2       1 NAD6335     0.0000 
     16 C5A         6.9560  141.2450   35.9840 C.ar      1 NAD6335     0.0000 
     17 C6A         5.5380  141.4030   35.7700 C.ar      1 NAD6335     0.0000 
     18 N6A         4.7630  140.4810   35.2030 N.pl3     1 NAD6335     0.0000 
     19 N1A         4.9680  142.5730   36.1960 N.ar      1 NAD6335     0.0000 
     20 C2A         5.7260  143.5460   36.7850 C.ar      1 NAD6335     0.0000 
     21 N3A         7.0560  143.5020   37.0310 N.ar      1 NAD6335     0.0000 
     22 C4A         7.6110  142.3130   36.5900 C.ar      1 NAD6335     0.0000 
     23 O3         15.8690  143.2420   33.6370 O.3       1 NAD6335     0.0000 
     24 PN         16.4650  144.2530   32.6150 P.3       1 NAD6335     0.0000 
     25 O1N        17.8730  143.8530   32.4830 O.co2     1 NAD6335     0.0000 
     26 O2N        16.2030  145.6230   33.0980 O.co2     1 NAD6335     0.0000 
     27 O5D        15.8050  143.9340   31.1830 O.3       1 NAD6335     0.0000 
     28 C5D        14.3810  144.2360   31.0210 C.3       1 NAD6335     0.0000 
     29 C4D        14.0960  144.1860   29.5290 C.3       1 NAD6335     0.0000 
     30 O4D        14.9500  145.1130   28.7920 O.3       1 NAD6335     0.0000 
     31 C3D        14.3410  142.7870   28.8780 C.3       1 NAD6335     0.0000 
     32 O3D        13.2490  142.6730   27.9040 O.3       1 NAD6335     0.0000 
     33 C2D        15.7100  142.9980   28.1720 C.3       1 NAD6335     0.0000 
     34 O2D        15.8770  142.1880   27.0120 O.3       1 NAD6335     0.0000 
     35 C1D        15.6910  144.4620   27.7680 C.3       1 NAD6335     0.0000 
     36 N1N        17.0400  145.1380   27.6550 N.pl3     1 NAD6335     0.0000 
     37 C2N        17.9950  144.9020   28.6400 C.ar      1 NAD6335     0.0000 
     38 C3N        19.2220  145.5450   28.5030 C.ar      1 NAD6335     0.0000 
     39 C7N        20.4630  145.4560   29.4600 C.2       1 NAD6335     0.0000 
     40 O7N        21.5950  145.6620   28.9600 O.2       1 NAD6335     0.0000 
     41 N7N        20.3290  145.1710   30.7170 N.am      1 NAD6335     0.0000 
     42 C4N        19.4930  146.4180   27.3900 C.ar      1 NAD6335     0.0000 
     43 C5N        18.4520  146.5910   26.4360 C.ar      1 NAD6335     0.0000 
     44 C6N        17.1970  145.9880   26.4950 C.ar      1 NAD6335     0.0000 
     45 H          12.9478  142.1099   35.1634 H         1 NAD6335     0.0000 
     46 H          12.1626  143.3942   34.2285 H         1 NAD6335     0.0000 
     47 H          12.2395  144.7114   36.4503 H         1 NAD6335     0.0000 
     48 H          13.2354  142.3205   37.4811 H         1 NAD6335     0.0000 
     49 H          11.3485  141.1299   37.3229 H         1 NAD6335     0.0000 
     50 H           9.6166  143.4688   37.9748 H         1 NAD6335     0.0000 
     51 H           9.8758  140.1669   36.0603 H         1 NAD6335     0.0000 
     52 H           4.0349  140.1052   35.7763 H         1 NAD6335     0.0000 
     53 H           4.9788  140.2473   34.2549 H         1 NAD6335     0.0000 
     54 H           5.2005  144.4481   37.0856 H         1 NAD6335     0.0000 
     55 H          14.1497  145.2245   31.3870 H         1 NAD6335     0.0000 
     56 H          13.7688  143.4989   31.5176 H         1 NAD6335     0.0000 
     57 H          13.0563  144.4387   29.3462 H         1 NAD6335     0.0000 
     58 H          14.3800  142.0849   29.5867 H         1 NAD6335     0.0000 
     59 H          16.4749  142.8694   28.9007 H         1 NAD6335     0.0000 
     60 H          15.1615  144.5512   26.8295 H         1 NAD6335     0.0000 
     61 H          17.8060  144.2913   29.4195 H         1 NAD6335     0.0000 
     62 H          19.3910  145.0618   31.0459 H         1 NAD6335     0.0000 
     63 H          21.1760  145.0866   31.2418 H         1 NAD6335     0.0000 
     64 H          20.3703  146.8751   27.3000 H         1 NAD6335     0.0000 
     65 H          18.6589  147.2332   25.6176 H         1 NAD6335     0.0000 
     66 H          16.4898  146.1070   25.8455 H         1 NAD6335     0.0000 
     67 H          11.7959  144.4951   38.6995 H         1 NAD6335     0.0000 
     68 H           9.9700  141.6836   39.4433 H         1 NAD6335     0.0000 
     69 H          13.6796  142.3219   27.0726 H         1 NAD6335     0.0000 
     70 H          16.5917  141.5322   27.2551 H         1 NAD6335     0.0000 
@<TRIPOS>BOND
     1    2    1 ar   
     2    3    1 ar   
     3    4    1 1    
     4   23    1 1    
     5    5    4 1    
     6    6    5 1    
     7   45    5 1    
     8   46    5 1    
     9    7    6 1    
    10    8    6 1    
    11   47    6 1    
    12   12    7 1    
    13    9    8 1    
    14   10    8 1    
    15   48    8 1    
    16   67    9 1    
    17   11   10 1    
    18   12   10 1    
    19   49   10 1    
    20   68   11 1    
    21   13   12 1    
    22   50   12 1    
    23   14   13 1    
    24   22   13 1    
    25   15   14 2    
    26   51   14 1    
    27   16   15 1    
    28   17   16 ar   
    29   22   16 ar   
    30   18   17 1    
    31   19   17 ar   
    32   52   18 1    
    33   53   18 1    
    34   20   19 ar   
    35   21   20 ar   
    36   54   20 1    
    37   22   21 ar   
    38   24   23 1    
    39   25   24 ar   
    40   26   24 ar   
    41   27   24 1    
    42   28   27 1    
    43   29   28 1    
    44   55   28 1    
    45   56   28 1    
    46   30   29 1    
    47   31   29 1    
    48   57   29 1    
    49   35   30 1    
    50   32   31 1    
    51   33   31 1    
    52   58   31 1    
    53   69   32 1    
    54   34   33 1    
    55   35   33 1    
    56   59   33 1    
    57   70   34 1    
    58   36   35 1    
    59   60   35 1    
    60   37   36 ar   
    61   44   36 ar   
    62   38   37 ar   
    63   61   37 1    
    64   39   38 1    
    65   42   38 ar   
    66   40   39 2    
    67   41   39 am   
    68   62   41 1    
    69   63   41 1    
    70   43   42 ar   
    71   64   42 1    
    72   44   43 ar   
    73   65   43 1    
    74   66   44 1    
@<TRIPOS>SUBSTRUCTURE
     1 NAD6335     1 GROUP   
@<TRIPOS>SET

