#    Name: 3u04_BB2_1_INTS_M
#    Modification time : Mon Mar 24 21:15:15 2014

@<TRIPOS>MOLECULE
3u04_BB2_1_INTS_M
   78     0    12     0     0
SMALL
NO_CHARGES


@<TRIPOS>ATOM
      1 CA        -12.7910    3.1040   11.3730 C.3       4 GLC5        0.0000 
      2 CA        -11.0700    3.4110   12.2170 C.3      12 GLL5        0.0000 
      3 CA        -14.5120    2.7970   10.5290 C.3       8 GLP5        0.0000 
      4 Zn        -11.3980    6.5610   11.3785 Zn        3 ZIC7        0.0000 
      5 Zn        -11.7840    5.5830   11.3070 Zn       11 ZIL7        0.0000 
      6 Zn        -11.0120    7.5390   11.4500 Zn        7 ZIP7        0.0000 
      7 N         -13.0420    6.5085   11.7325 N.am      2 SEC2        0.0000 
      8 N         -11.7840    5.5830   11.3070 N.am     10 SEL2        0.0000 
      9 N         -14.3000    7.4340   12.1580 N.am      6 SEP2        0.0000 
     10 N         -12.4580    5.2655   10.1200 N.am      2 SEC2        0.0000 
     11 N         -13.1320    4.9480    8.9330 N.am      6 SEP2        0.0000 
     12 O         -11.8055    4.0945   14.4075 O.2       1 ALC1        0.0000 
     13 O         -11.2640    5.4000   13.4580 O.2       9 ALL1        0.0000 
     14 O         -12.3470    2.7890   15.3570 O.2       5 ALP1        0.0000 
     15 O         -10.5005    5.2405   14.5420 O.2       1 ALC1        0.0000 
     16 O          -9.7370    5.0810   15.6260 O.2       5 ALP1        0.0000 
     17 Zn        -11.1855    7.1460   12.4970 Zn        3 ZIC7        0.0000 
     18 Zn        -11.3590    6.7530   13.5440 Zn       11 ZIL7        0.0000 
     19 O         -11.0810    6.8375   14.8980 O.2       1 ALC1        0.0000 
     20 O         -11.3590    6.7530   13.5440 O.2       9 ALL1        0.0000 
     21 O         -10.8030    6.9220   16.2520 O.2       5 ALP1        0.0000 
     22 N         -10.0090    0.0825   12.9755 N.am      2 SEC2        0.0000 
     23 N          -9.8170    0.8790   11.8120 N.am     10 SEL2        0.0000 
     24 N         -10.2010   -0.7140   14.1390 N.am      6 SEP2        0.0000 
     25 CA         -8.2515    1.4140   13.7860 C.3       4 GLC5        0.0000 
     26 CA         -8.6450    3.2940   12.9160 C.3      12 GLL5        0.0000 
     27 CA         -7.8580   -0.4660   14.6560 C.3       8 GLP5        0.0000 
     28 CA         -8.4945    5.3760   12.8405 C.3       4 GLC5        0.0000 
     29 CA         -8.3440    7.4580   12.7650 C.3       8 GLP5        0.0000 
     30 CA         -6.5535    1.0695   12.8315 C.3       4 GLC5        0.0000 
     31 CA         -7.1760    2.9430   12.5470 C.3      12 GLL5        0.0000 
     32 CA         -5.9310   -0.8040   13.1160 C.3       8 GLP5        0.0000 
     33 CA         -6.6965    5.8420   12.3855 C.3       4 GLC5        0.0000 
     34 CA         -6.4200    4.2000   12.2240 C.3      12 GLL5        0.0000 
     35 CA         -6.9730    7.4840   12.5470 C.3       8 GLP5        0.0000 
     36 CA         -5.3660    5.7995   12.6980 C.3       4 GLC5        0.0000 
     37 CA         -4.9240    4.0670   11.8960 C.3      12 GLL5        0.0000 
     38 CA         -5.8080    7.5320   13.5000 C.3       8 GLP5        0.0000 
     39 CA         -5.1990    0.9790   12.2085 C.3       4 GLC5        0.0000 
     40 CA         -4.4670    2.7620   11.3010 C.3      12 GLL5        0.0000 
     41 CA         -2.9405    1.7150   10.9060 C.3       4 GLC5        0.0000 
     42 CA         -1.4140    0.6680   10.5110 C.3       8 GLP5        0.0000 
     43 O          -8.6675    3.2800    9.2330 O.2       1 ALC1        0.0000 
     44 O          -9.0190    1.8230    9.9220 O.2       9 ALL1        0.0000 
     45 O          -8.3160    4.7370    8.5440 O.2       5 ALP1        0.0000 
     46 CA        -11.6270   -0.6910   10.8720 C.3       4 GLC5        0.0000 
     47 CA        -10.9660   -0.3080    8.7560 C.3      12 GLL5        0.0000 
     48 CA        -12.2880   -1.0740   12.9880 C.3       8 GLP5        0.0000 
     49 CA        -12.8350    0.6865    9.1435 C.3       4 GLC5        0.0000 
     50 CA        -14.7040    1.6810    9.5310 C.3       8 GLP5        0.0000 
     51 CA         -9.0045    2.7375    6.7165 C.3       4 GLC5        0.0000 
     52 CA         -9.9690    1.3090    7.2060 C.3      12 GLL5        0.0000 
     53 CA         -8.0400    4.1660    6.2270 C.3       8 GLP5        0.0000 
     54 N          -6.7445    2.7635    7.5920 N.am      2 SEC2        0.0000 
     55 N          -6.7570    1.7140    8.4880 N.am     10 SEL2        0.0000 
     56 N          -6.7320    3.8130    6.6960 N.am      6 SEP2        0.0000 
     57 CA         -4.0535   -0.3245    5.0750 C.3       4 GLC5        0.0000 
     58 CA         -4.7870   -0.3230    7.0780 C.3      12 GLL5        0.0000 
     59 CA         -3.3200   -0.3260    3.0720 C.3       8 GLP5        0.0000 
     60 CA         -6.3200    0.1750    5.7410 C.3       4 GLC5        0.0000 
     61 CA         -7.8530    0.6730    4.4040 C.3       8 GLP5        0.0000 
     62 O          -2.8735    1.0345    7.0980 O.2       1 ALC1        0.0000 
     63 O          -3.3730   -0.2750    6.7880 O.2       9 ALL1        0.0000 
     64 O          -2.3740    2.3440    7.4080 O.2       5 ALP1        0.0000 
     65 CA         -7.4008    2.9808   14.7272 C.3       4 GLC5        0.0000 
     66 CA         -6.8910    2.8430   16.7230 C.3       8 GLP5        0.0000 
     67 CA         -5.0955    4.1262   14.0155 C.3       4 GLC5        0.0000 
     68 CA         -4.5190    4.1190   15.9710 C.3       8 GLP5        0.0000 
     69 CA         -3.9657    4.5643   10.1513 C.3       4 GLC5        0.0000 
     70 CA         -3.2360    5.7140    8.7040 C.3       8 GLP5        0.0000 
     71 CA         -2.9512    3.7953   12.1178 C.3       4 GLC5        0.0000 
     72 CA         -1.2070    4.1760   12.6370 C.3       8 GLP5        0.0000 
     73 CA         -8.8287    0.7053    6.0442 C.3       4 GLC5        0.0000 
     74 CA         -9.6400    0.1660    8.1630 C.3      12 GLL5        0.0000 
     75 CA         -3.0550   -0.2157    9.6773 C.3       4 GLC5        0.0000 
     76 CA         -4.9780   -0.4410    8.5790 C.3      12 GLL5        0.0000 
     77 CA         -5.6207   -1.4035   11.1739 C.3       4 GLC5        0.0000 
     78 CA         -5.6010   -2.7020    9.2560 C.3      12 GLL5        0.0000 
@<TRIPOS>BOND
@<TRIPOS>SUBSTRUCTURE
     1 ALC1       12 GROUP        1 X    ALC  0     ROOT ALC X 1
     2 SEC2        7 GROUP        1 X    SEC  0     **** SEC X 2
     3 ZIC7        4 GROUP        1 X    ZIC  0     **** ZIC X 5
     4 GLC5        1 GROUP        1 X    GLC  0     **** GLC X 6
     5 ALP1       14 GROUP        1 Y    ALP  0     ROOT ALP Y 8
     6 SEP2        9 GROUP        1 Y    SEP  0     **** SEP Y 9
     7 ZIP7        6 GROUP        1 Y    ZIP  0     **** ZIP Y 12
     8 GLP5        3 GROUP        1 Y    GLP  0     **** GLP Y 13
     9 ALL1       13 GROUP        1 Z    ALL  0     ROOT ALL Z 15
    10 SEL2        8 GROUP        1 Z    SEL  0     **** SEL Z 16
    11 ZIL7        5 GROUP        1 Z    ZIL  0     **** ZIL Z 19
    12 GLL5        2 GROUP        1 Z    GLL  0     **** GLL Z 20
@<TRIPOS>SET

