#    Name: 3u04_BB2_1_ligand
#    Modification time : Mon Mar 24 21:15:15 2014

@<TRIPOS>MOLECULE
3u04_BB2_1_ligand
   62    62     1     0     0
SMALL
NO_CHARGES


@<TRIPOS>ATOM
      1 C5        -11.0700    3.4110   12.2170 C.3       1 BB2210      0.0000 
      2 C3        -11.4420    4.8540   12.2730 C.2       1 BB2210      0.0000 
      3 O4        -11.7840    5.5830   11.3070 O.2       1 BB2210      0.0000 
      4 N1        -11.2640    5.4000   13.4580 N.am      1 BB2210      0.0000 
      5 O2        -11.3590    6.7530   13.5440 O.3       1 BB2210      0.0000 
      6 C6         -9.6130    3.2250   11.7560 C.3       1 BB2210      0.0000 
      7 C12        -9.4990    1.8740   11.1580 C.2       1 BB2210      0.0000 
      8 O13        -9.8170    0.8790   11.8120 O.2       1 BB2210      0.0000 
      9 C7         -8.6450    3.2940   12.9160 C.3       1 BB2210      0.0000 
     10 C8         -7.1760    2.9430   12.5470 C.3       1 BB2210      0.0000 
     11 C9         -6.4200    4.2000   12.2240 C.3       1 BB2210      0.0000 
     12 C10        -4.9240    4.0670   11.8960 C.3       1 BB2210      0.0000 
     13 C11        -4.4670    2.7620   11.3010 C.3       1 BB2210      0.0000 
     14 N14        -9.0190    1.8230    9.9220 N.am      1 BB2210      0.0000 
     15 C15        -8.6600    0.5530    9.2730 C.3       1 BB2210      0.0000 
     16 C16        -9.6400    0.1660    8.1630 C.3       1 BB2210      0.0000 
     17 C18       -10.9660   -0.3080    8.7560 C.3       1 BB2210      0.0000 
     18 C17        -9.9690    1.3090    7.2060 C.3       1 BB2210      0.0000 
     19 C19        -7.2020    0.6330    8.8380 C.2       1 BB2210      0.0000 
     20 O20        -6.7570    1.7140    8.4880 O.2       1 BB2210      0.0000 
     21 N21        -6.4120   -0.4630    8.9410 N.am      1 BB2210      0.0000 
     22 C22        -4.9780   -0.4410    8.5790 C.3       1 BB2210      0.0000 
     23 C23        -6.8130   -1.7940    9.4550 C.3       1 BB2210      0.0000 
     24 C24        -5.6010   -2.7020    9.2560 C.3       1 BB2210      0.0000 
     25 C25        -4.4140   -1.7580    9.1080 C.3       1 BB2210      0.0000 
     26 C26        -4.7870   -0.3230    7.0780 C.3       1 BB2210      0.0000 
     27 O27        -3.3730   -0.2750    6.7880 O.3       1 BB2210      0.0000 
     28 H         -11.7225    2.8783   11.5191 H         1 BB2210      0.0000 
     29 H         -11.1798    2.9528   13.2043 H         1 BB2210      0.0000 
     30 H         -11.0602    4.8422   14.2979 H         1 BB2210      0.0000 
     31 H          -9.3748    3.9642   11.0344 H         1 BB2210      0.0000 
     32 H          -8.9705    2.6039   13.7126 H         1 BB2210      0.0000 
     33 H          -8.6547    4.3090   13.3477 H         1 BB2210      0.0000 
     34 H          -7.1896    2.2789   11.6900 H         1 BB2210      0.0000 
     35 H          -6.7242    2.4365   13.3926 H         1 BB2210      0.0000 
     36 H          -6.5212    4.9199   13.0769 H         1 BB2210      0.0000 
     37 H          -6.9154    4.7162   11.3614 H         1 BB2210      0.0000 
     38 H          -4.3472    4.2655   12.8327 H         1 BB2210      0.0000 
     39 H          -4.6472    4.9020   11.2063 H         1 BB2210      0.0000 
     40 H          -8.8692    2.6766    9.3419 H         1 BB2210      0.0000 
     41 H          -8.7121   -0.2441   10.0530 H         1 BB2210      0.0000 
     42 H          -9.2277   -0.6540    7.5883 H         1 BB2210      0.0000 
     43 H          -4.4878    0.3614    9.0819 H         1 BB2210      0.0000 
     44 H          -7.6396   -2.1869    8.8932 H         1 BB2210      0.0000 
     45 H          -7.0441   -1.7449   10.5026 H         1 BB2210      0.0000 
     46 H          -5.7226   -3.2726    8.3635 H         1 BB2210      0.0000 
     47 H          -5.4684   -3.3175   10.1166 H         1 BB2210      0.0000 
     48 H          -3.9594   -1.5961   10.0635 H         1 BB2210      0.0000 
     49 H          -3.7179   -2.1603    8.4012 H         1 BB2210      0.0000 
     50 H          -5.2929    0.5824    6.7374 H         1 BB2210      0.0000 
     51 H          -5.2606   -1.1841    6.6026 H         1 BB2210      0.0000 
     52 H          -3.4840    2.7616   11.1173 H         1 BB2210      0.0000 
     53 H          -4.6516    1.9910   11.9105 H         1 BB2210      0.0000 
     54 H          -4.9271    2.5674   10.4347 H         1 BB2210      0.0000 
     55 H         -10.8451   -1.1076    9.3442 H         1 BB2210      0.0000 
     56 H         -11.3992    0.4017    9.3115 H         1 BB2210      0.0000 
     57 H         -11.6206   -0.5638    8.0446 H         1 BB2210      0.0000 
     58 H          -9.1525    1.6502    6.7403 H         1 BB2210      0.0000 
     59 H         -10.6141    1.0253    6.4965 H         1 BB2210      0.0000 
     60 H         -10.3806    2.0857    7.6827 H         1 BB2210      0.0000 
     61 H         -11.1038    6.9709   14.4860 H         1 BB2210      0.0000 
     62 H          -3.1001    0.6664    6.9862 H         1 BB2210      0.0000 
@<TRIPOS>BOND
     1    2    1 1    
     2    6    1 1    
     3   28    1 1    
     4   29    1 1    
     5    3    2 2    
     6    4    2 am   
     7    5    4 1    
     8   30    4 1    
     9   61    5 1    
    10    7    6 1    
    11    9    6 1    
    12   31    6 1    
    13    8    7 2    
    14   14    7 am   
    15   10    9 1    
    16   32    9 1    
    17   33    9 1    
    18   11   10 1    
    19   34   10 1    
    20   35   10 1    
    21   12   11 1    
    22   36   11 1    
    23   37   11 1    
    24   13   12 1    
    25   38   12 1    
    26   39   12 1    
    27   52   13 1    
    28   53   13 1    
    29   54   13 1    
    30   15   14 1    
    31   40   14 1    
    32   16   15 1    
    33   19   15 1    
    34   41   15 1    
    35   17   16 1    
    36   18   16 1    
    37   42   16 1    
    38   55   17 1    
    39   56   17 1    
    40   57   17 1    
    41   58   18 1    
    42   59   18 1    
    43   60   18 1    
    44   20   19 2    
    45   21   19 am   
    46   22   21 1    
    47   23   21 1    
    48   25   22 1    
    49   26   22 1    
    50   43   22 1    
    51   24   23 1    
    52   44   23 1    
    53   45   23 1    
    54   25   24 1    
    55   46   24 1    
    56   47   24 1    
    57   48   25 1    
    58   49   25 1    
    59   27   26 1    
    60   50   26 1    
    61   51   26 1    
    62   62   27 1    
@<TRIPOS>SUBSTRUCTURE
     1 BB2210      1 GROUP   
@<TRIPOS>SET

