#    Name: 4bqj_XKL_1_INTS_M
#    Modification time : Tue Mar 25 08:06:02 2014

@<TRIPOS>MOLECULE
4bqj_XKL_1_INTS_M
   60     0     9     0     0
SMALL
NO_CHARGES


@<TRIPOS>ATOM
      1 N          -0.5970    4.7075    8.8130 N.am      2 SEC2        0.0000 
      2 N           0.4620    4.3430    9.8920 N.am      8 SEL2        0.0000 
      3 N          -1.6560    5.0720    7.7340 N.am      5 SEP2        0.0000 
      4 O           0.0830    5.1600   13.4440 O.2       1 ALC1        0.0000 
      5 O          -0.2030    4.7000   12.0200 O.2       7 ALL1        0.0000 
      6 O           0.3690    5.6200   14.8680 O.2       4 ALP1        0.0000 
      7 CA         -1.2530    6.1260   10.1390 C.3       3 GLC5        0.0000 
      8 CA         -1.6500    4.8890   11.8770 C.3       9 GLL5        0.0000 
      9 CA         -0.8560    7.3630    8.4010 C.3       6 GLP5        0.0000 
     10 CA         -0.6400    6.4120   12.0060 C.3       3 GLC5        0.0000 
     11 CA          0.3700    7.9350   12.1350 C.3       6 GLP5        0.0000 
     12 CA         -2.2040    2.0785   13.3810 C.3       3 GLC5        0.0000 
     13 CA         -2.3800    3.5710   11.7250 C.3       9 GLL5        0.0000 
     14 CA         -2.0280    0.5860   15.0370 C.3       6 GLP5        0.0000 
     15 CA          2.3960    2.8975   12.6365 C.3       3 GLC5        0.0000 
     16 CA          3.1790    3.6560   10.8610 C.3       9 GLL5        0.0000 
     17 CA          1.6130    2.1390   14.4120 C.3       6 GLP5        0.0000 
     18 CA          6.6385    3.2230   13.3045 C.3       3 GLC5        0.0000 
     19 CA          5.6960    3.2330   11.3190 C.3       9 GLL5        0.0000 
     20 CA          7.5810    3.2130   15.2900 C.3       6 GLP5        0.0000 
     21 CA          6.9705    4.3515   13.4045 C.3       3 GLC5        0.0000 
     22 CA          6.8040    4.0360   11.4970 C.3       9 GLL5        0.0000 
     23 CA          7.1370    4.6670   15.3120 C.3       6 GLP5        0.0000 
     24 O           7.7585    6.0775   12.0805 O.2       1 ALC1        0.0000 
     25 O           6.6190    5.3340   11.8890 O.2       7 ALL1        0.0000 
     26 O           8.8980    6.8210   12.2720 O.2       4 ALP1        0.0000 
     27 CA          7.8295    3.3700   13.2650 C.3       3 GLC5        0.0000 
     28 CA          8.0780    3.5270   11.2400 C.3       9 GLL5        0.0000 
     29 O          10.4490    2.5950   10.6590 O.2       1 ALC1        0.0000 
     30 O           9.4640    1.7050   10.5670 O.2       7 ALL1        0.0000 
     31 O          11.4340    3.4850   10.7510 O.2       4 ALP1        0.0000 
     32 CA          6.6580    1.5670    8.0285 C.3       3 GLC5        0.0000 
     33 CA          5.0710    0.3810    8.5780 C.3       9 GLL5        0.0000 
     34 CA          8.2450    2.7530    7.4790 C.3       6 GLP5        0.0000 
     35 N           7.1550   -3.0205    6.2610 N.am      2 SEC2        0.0000 
     36 N           5.5920   -2.8850    6.2130 N.am      8 SEL2        0.0000 
     37 N           8.7180   -3.1560    6.3090 N.am      5 SEP2        0.0000 
     38 CA          3.3170   -0.2420   12.1120 C.3       3 GLC5        0.0000 
     39 CA          4.2100   -1.1010   10.2950 C.3       9 GLL5        0.0000 
     40 CA          2.4240    0.6170   13.9290 C.3       6 GLP5        0.0000 
     41 CA          4.1380    5.5235   10.7655 C.3       3 GLC5        0.0000 
     42 CA          4.3530    3.7820   11.5970 C.3       9 GLL5        0.0000 
     43 CA          4.5100    7.3280   10.3020 C.3       6 GLP5        0.0000 
     44 CA          5.3800    5.4813   10.8550 C.3       3 GLC5        0.0000 
     45 CA          7.8430    3.2672    9.4238 C.3       3 GLC5        0.0000 
     46 CA          8.1515    5.3788   10.1252 C.3       3 GLC5        0.0000 
     47 CA          8.8620    6.9760    8.8820 C.3       6 GLP5        0.0000 
     48 CA          9.5198    2.0495   12.4140 C.3       3 GLC5        0.0000 
     49 CA         10.8910    1.2370   13.7990 C.3       6 GLP5        0.0000 
     50 CA          7.4880    2.3029    9.1553 C.3       3 GLC5        0.0000 
     51 CA          8.2190    2.1970   10.8180 C.3       9 GLL5        0.0000 
     52 CA          4.7721    1.8481   12.7488 C.3       3 GLC5        0.0000 
     53 CA          5.8080    1.9150   10.9230 C.3       9 GLL5        0.0000 
     54 CA          4.1280    0.9850   14.3070 C.3       6 GLP5        0.0000 
     55 CA          6.3095   -2.4766    8.6679 C.3       3 GLC5        0.0000 
     56 CA          4.2470   -2.1600    9.3730 C.3       9 GLL5        0.0000 
     57 CA          8.0450   -3.2180    8.7150 C.3       6 GLP5        0.0000 
     58 CA          4.7908   -2.8353   10.6423 C.3       3 GLC5        0.0000 
     59 CA          4.6910   -1.9480    8.0630 C.3       9 GLL5        0.0000 
     60 CA          5.2420   -4.0930   11.7780 C.3       6 GLP5        0.0000 
@<TRIPOS>BOND
@<TRIPOS>SUBSTRUCTURE
     1 ALC1        4 GROUP        1 X    ALC  0     ROOT ALC X 1
     2 SEC2        1 GROUP        1 X    SEC  0     **** SEC X 2
     3 GLC5        7 GROUP        1 X    GLC  0     **** GLC X 6
     4 ALP1        6 GROUP        1 Y    ALP  0     ROOT ALP Y 8
     5 SEP2        3 GROUP        1 Y    SEP  0     **** SEP Y 9
     6 GLP5        9 GROUP        1 Y    GLP  0     **** GLP Y 13
     7 ALL1        5 GROUP        1 Z    ALL  0     ROOT ALL Z 15
     8 SEL2        2 GROUP        1 Z    SEL  0     **** SEL Z 16
     9 GLL5        8 GROUP        1 Z    GLL  0     **** GLL Z 20
@<TRIPOS>SET

