#    Name: 4bqj_XKL_1_ligand
#    Modification time : Tue Mar 25 08:06:02 2014

@<TRIPOS>MOLECULE
4bqj_XKL_1_ligand
   43    45     1     0     0
SMALL
NO_CHARGES


@<TRIPOS>ATOM
      1 O28         0.4620    4.3430    9.8920 O.2       1 XKL1225     0.0000 
      2 C24         0.7270    4.4650   11.0850 C.2       1 XKL1225     0.0000 
      3 N25        -0.2030    4.7000   12.0200 N.am      1 XKL1225     0.0000 
      4 C26        -1.6500    4.8890   11.8770 C.3       1 XKL1225     0.0000 
      5 C27        -2.3800    3.5710   11.7250 C.3       1 XKL1225     0.0000 
      6 C22         2.1530    4.3440   11.5320 C.2       1 XKL1225     0.0000 
      7 N21         2.6560    4.9110   12.6540 N.2       1 XKL1225     0.0000 
      8 O20         4.0330    4.5330   12.6710 O.3       1 XKL1225     0.0000 
      9 C23         3.1790    3.6560   10.8610 C.2       1 XKL1225     0.0000 
     10 C19         4.3530    3.7820   11.5970 C.2       1 XKL1225     0.0000 
     11 C5          5.6960    3.2330   11.3190 C.ar      1 XKL1225     0.0000 
     12 C4          6.8040    4.0360   11.4970 C.ar      1 XKL1225     0.0000 
     13 O7          6.6190    5.3340   11.8890 O.3       1 XKL1225     0.0000 
     14 C3          8.0780    3.5270   11.2400 C.ar      1 XKL1225     0.0000 
     15 C2          8.2190    2.1970   10.8180 C.ar      1 XKL1225     0.0000 
     16 O8          9.4640    1.7050   10.5670 O.3       1 XKL1225     0.0000 
     17 C6          5.8080    1.9150   10.9230 C.ar      1 XKL1225     0.0000 
     18 C1          7.0890    1.3840   10.6620 C.ar      1 XKL1225     0.0000 
     19 O9          4.6390    1.1950   10.7700 O.3       1 XKL1225     0.0000 
     20 C10         4.6260    0.1650    9.8800 C.ar      1 XKL1225     0.0000 
     21 C15         5.0710    0.3810    8.5780 C.ar      1 XKL1225     0.0000 
     22 C14         5.1110   -0.6730    7.6740 C.ar      1 XKL1225     0.0000 
     23 C13         4.6910   -1.9480    8.0630 C.ar      1 XKL1225     0.0000 
     24 N16         4.7790   -3.0030    7.1310 N.pl3     1 XKL1225     0.0000 
     25 O18         5.5920   -2.8850    6.2130 O.2       1 XKL1225     0.0000 
     26 O17         4.1450   -4.0450    7.2540 O.2       1 XKL1225     0.0000 
     27 C12         4.2470   -2.1600    9.3730 C.ar      1 XKL1225     0.0000 
     28 C11         4.2100   -1.1010   10.2950 C.ar      1 XKL1225     0.0000 
     29 H           0.1229    4.7693   13.0643 H         1 XKL1225     0.0000 
     30 H          -1.8704    5.5137   10.9965 H         1 XKL1225     0.0000 
     31 H          -2.0573    5.4143   12.7558 H         1 XKL1225     0.0000 
     32 H           3.0792    3.1868   10.0436 H         1 XKL1225     0.0000 
     33 H           8.9043    4.1171   11.3576 H         1 XKL1225     0.0000 
     34 H           7.1867    0.4140   10.3619 H         1 XKL1225     0.0000 
     35 H           5.3695    1.3210    8.2876 H         1 XKL1225     0.0000 
     36 H           5.4499   -0.5186    6.7153 H         1 XKL1225     0.0000 
     37 H           3.9446   -3.0985    9.6655 H         1 XKL1225     0.0000 
     38 H           3.8858   -1.2578   11.2453 H         1 XKL1225     0.0000 
     39 H          -2.0732    3.0675   10.9173 H         1 XKL1225     0.0000 
     40 H          -2.2369    2.9740   12.5144 H         1 XKL1225     0.0000 
     41 H          -3.3670    3.7017   11.6315 H         1 XKL1225     0.0000 
     42 H           7.5407    5.7125   11.9738 H         1 XKL1225     0.0000 
     43 H          10.0779    2.4868   10.6758 H         1 XKL1225     0.0000 
@<TRIPOS>BOND
     1    2    1 2    
     2    3    2 am   
     3    6    2 1    
     4    4    3 1    
     5   29    3 1    
     6    5    4 1    
     7   30    4 1    
     8   31    4 1    
     9   39    5 1    
    10   40    5 1    
    11   41    5 1    
    12    7    6 2    
    13    9    6 1    
    14    8    7 1    
    15   10    8 1    
    16   10    9 2    
    17   32    9 1    
    18   11   10 1    
    19   12   11 ar   
    20   17   11 ar   
    21   13   12 1    
    22   14   12 ar   
    23   42   13 1    
    24   15   14 ar   
    25   33   14 1    
    26   16   15 1    
    27   18   15 ar   
    28   43   16 1    
    29   18   17 ar   
    30   19   17 1    
    31   34   18 1    
    32   20   19 1    
    33   21   20 ar   
    34   28   20 ar   
    35   22   21 ar   
    36   35   21 1    
    37   23   22 ar   
    38   36   22 1    
    39   24   23 1    
    40   27   23 ar   
    41   25   24 2    
    42   26   24 2    
    43   28   27 ar   
    44   37   27 1    
    45   38   28 1    
@<TRIPOS>SUBSTRUCTURE
     1 XKL1225     1 GROUP   
@<TRIPOS>SET

