#    Name: 2e93_B29_3_INTS_M
#    Modification time : Tue Mar 25 10:43:03 2014

@<TRIPOS>MOLECULE
2e93_B29_3_INTS_M
   56     0     9     0     0
SMALL
NO_CHARGES


@<TRIPOS>ATOM
      1 CA         25.0860   33.9295   37.7055 C.3       3 GLC5        0.0000 
      2 CA         24.3840   33.0630   39.6170 C.3       9 GLL5        0.0000 
      3 CA         25.7880   34.7960   35.7940 C.3       6 GLP5        0.0000 
      4 CA         22.0130   35.7520   42.2625 C.3       3 GLC5        0.0000 
      5 CA         22.9250   34.0010   41.2900 C.3       9 GLL5        0.0000 
      6 CA         21.1010   37.5030   43.2350 C.3       6 GLP5        0.0000 
      7 CA         20.8765   31.7455   35.3215 C.3       3 GLC5        0.0000 
      8 CA         21.4550   30.3100   36.8330 C.3       9 GLL5        0.0000 
      9 CA         20.2980   33.1810   33.8100 C.3       6 GLP5        0.0000 
     10 NZ         17.6535   26.3160   30.5170 N.4       2 LYC4        0.0000 
     11 NZ         16.6990   26.1520   31.5600 N.4       8 LYL4        0.0000 
     12 NZ         18.7150   26.9130   28.2290 N.4       5 LYP4        0.0000 
     13 N          17.6535   26.3160   30.5170 N.am      1 SEC2        0.0000 
     14 N          16.6990   26.1520   31.5600 N.am      7 SEL2        0.0000 
     15 N          18.6080   26.4800   29.4740 N.am      4 SEP2        0.0000 
     16 N          14.1405   28.2475   35.4850 N.am      1 SEC2        0.0000 
     17 N          15.1960   28.1840   34.7060 N.am      7 SEL2        0.0000 
     18 N          13.0850   28.3110   36.2640 N.am      4 SEP2        0.0000 
     19 NZ         16.0285   31.0130   33.0710 N.4       2 LYC4        0.0000 
     20 NZ         16.7780   30.0630   33.8740 N.4       8 LYL4        0.0000 
     21 NZ         14.2270   31.5340   31.6080 N.4       5 LYP4        0.0000 
     22 N          16.4460   31.3625   34.9705 N.am      1 SEC2        0.0000 
     23 N          16.7780   30.0630   33.8740 N.am      7 SEL2        0.0000 
     24 N          16.1140   32.6620   36.0670 N.am      4 SEP2        0.0000 
     25 N          17.9560   30.6960   33.8250 N.am      1 SEC2        0.0000 
     26 N          19.1340   31.3290   33.7760 N.am      4 SEP2        0.0000 
     27 N          16.0285   31.0130   33.0710 N.am      1 SEC2        0.0000 
     28 N          15.2790   31.9630   32.2680 N.am      4 SEP2        0.0000 
     29 NZ         14.8825   29.3235   31.8110 N.4       2 LYC4        0.0000 
     30 NZ         15.7310   28.3980   32.1950 N.4       8 LYL4        0.0000 
     31 N          14.8825   29.3235   31.8110 N.am      1 SEC2        0.0000 
     32 N          15.7310   28.3980   32.1950 N.am      7 SEL2        0.0000 
     33 N          14.0340   30.2490   31.4270 N.am      4 SEP2        0.0000 
     34 CA         26.2503   33.3218   40.1135 C.3       3 GLC5        0.0000 
     35 CA         28.2100   33.1870   40.0440 C.3       6 GLP5        0.0000 
     36 CA         24.7125   35.6527   41.1487 C.3       3 GLC5        0.0000 
     37 CA         25.8640   37.3800   41.2780 C.3       6 GLP5        0.0000 
     38 CA         22.0920   35.3155   39.6333 C.3       3 GLC5        0.0000 
     39 CA         21.8030   36.9470   38.2730 C.3       6 GLP5        0.0000 
     40 CA         20.0503   33.2613   39.9988 C.3       3 GLC5        0.0000 
     41 CA         21.8370   33.3670   40.6970 C.3       9 GLL5        0.0000 
     42 CA         18.1700   33.5500   39.8650 C.3       6 GLP5        0.0000 
     43 CA         22.9035   32.7596   42.5141 C.3       3 GLC5        0.0000 
     44 CA         23.1080   31.8730   44.1700 C.3       6 GLP5        0.0000 
     45 CA         24.1330   32.4639   35.9070 C.3       3 GLC5        0.0000 
     46 CA         23.1900   31.5590   37.9440 C.3       9 GLL5        0.0000 
     47 CA         24.5760   34.2000   35.0360 C.3       6 GLP5        0.0000 
     48 CA         19.4935   31.0380   35.2018 C.3       3 GLC5        0.0000 
     49 CA         20.1100   29.9860   36.7060 C.3       9 GLL5        0.0000 
     50 CA         19.0630   32.6780   34.0180 C.3       6 GLP5        0.0000 
     51 CA         18.3193   32.0865   38.5590 C.3       3 GLC5        0.0000 
     52 CA         19.1400   30.8010   37.2820 C.3       9 GLL5        0.0000 
     53 CA         18.7658   31.6505   35.6355 C.3       3 GLC5        0.0000 
     54 CA         16.2714   27.5566   36.7946 C.3       3 GLC5        0.0000 
     55 CA         17.4230   29.2680   36.5860 C.3       9 GLL5        0.0000 
     56 CA         14.5940   27.0950   37.7980 C.3       6 GLP5        0.0000 
@<TRIPOS>BOND
@<TRIPOS>SUBSTRUCTURE
     1 SEC2       13 GROUP        1 X    SEC  0     ROOT SEC X 2
     2 LYC4       10 GROUP        1 X    LYC  0     **** LYC X 4
     3 GLC5        1 GROUP        1 X    GLC  0     **** GLC X 6
     4 SEP2       15 GROUP        1 Y    SEP  0     ROOT SEP Y 9
     5 LYP4       12 GROUP        1 Y    LYP  0     **** LYP Y 11
     6 GLP5        3 GROUP        1 Y    GLP  0     **** GLP Y 13
     7 SEL2       14 GROUP        1 Z    SEL  0     ROOT SEL Z 16
     8 LYL4       11 GROUP        1 Z    LYL  0     **** LYL Z 18
     9 GLL5        2 GROUP        1 Z    GLL  0     **** GLL Z 20
@<TRIPOS>SET

