#    Name: 2e93_B29_3_ligand
#    Modification time : Tue Mar 25 10:43:03 2014

@<TRIPOS>MOLECULE
2e93_B29_3_ligand
   44    47     1     0     0
SMALL
NO_CHARGES


@<TRIPOS>ATOM
      1 CAY        23.2970   32.4250   39.0280 C.ar      1 B29903      0.0000 
      2 CAP        24.3840   33.0630   39.6170 C.ar      1 B29903      0.0000 
      3 CAI        24.1970   33.8500   40.7490 C.ar      1 B29903      0.0000 
      4 CAH        22.9250   34.0010   41.2900 C.ar      1 B29903      0.0000 
      5 CAO        21.8370   33.3670   40.6970 C.ar      1 B29903      0.0000 
      6 CAX        22.0240   32.5780   39.5680 C.ar      1 B29903      0.0000 
      7 OAT        21.1600   31.8230   38.8260 O.3       1 B29903      0.0000 
      8 CBA        21.8540   31.1920   37.8320 C.ar      1 B29903      0.0000 
      9 CAZ        23.1900   31.5590   37.9440 C.ar      1 B29903      0.0000 
     10 CAQ        24.1240   31.0420   37.0520 C.ar      1 B29903      0.0000 
     11 CAK        23.7230   30.1550   36.0580 C.ar      1 B29903      0.0000 
     12 CAN        22.3880   29.7840   35.9460 C.ar      1 B29903      0.0000 
     13 CAW        21.4550   30.3100   36.8330 C.ar      1 B29903      0.0000 
     14 CAV        20.1100   29.9860   36.7060 C.ar      1 B29903      0.0000 
     15 CAR        19.7380   28.8100   36.0650 C.ar      1 B29903      0.0000 
     16 CAM        19.1400   30.8010   37.2820 C.ar      1 B29903      0.0000 
     17 CAJ        17.7970   30.4450   37.2240 C.ar      1 B29903      0.0000 
     18 CAL        17.4230   29.2680   36.5860 C.ar      1 B29903      0.0000 
     19 CAU        18.3940   28.4570   36.0090 C.ar      1 B29903      0.0000 
     20 CAS        17.9890   27.1740   35.2850 C.3       1 B29903      0.0000 
     21 CBB        17.7320   27.4490   33.8020 C.3       1 B29903      0.0000 
     22 PBC        17.3730   25.8140   32.9830 P.3       1 B29903      0.0000 
     23 OAD        16.6990   26.1520   31.5600 O.co2     1 B29903      0.0000 
     24 OAE        18.8160   25.1410   32.7390 O.co2     1 B29903      0.0000 
     25 OAA        16.4800   25.0070   33.8440 O.co2     1 B29903      0.0000 
     26 PBD        16.2620   28.5700   33.5670 P.3       1 B29903      0.0000 
     27 OAF        15.1960   28.1840   34.7060 O.co2     1 B29903      0.0000 
     28 OAG        16.7780   30.0630   33.8740 O.co2     1 B29903      0.0000 
     29 OAB        15.7310   28.3980   32.1950 O.co2     1 B29903      0.0000 
     30 OAC        18.8760   28.0630   33.2020 O.3       1 B29903      0.0000 
     31 H          25.3238   32.9532   39.2165 H         1 B29903      0.0000 
     32 H          25.0007   34.3204   41.1858 H         1 B29903      0.0000 
     33 H          22.7875   34.5807   42.1278 H         1 B29903      0.0000 
     34 H          20.8961   33.4827   41.0943 H         1 B29903      0.0000 
     35 H          25.1128   31.3159   37.1274 H         1 B29903      0.0000 
     36 H          24.4190   29.7716   35.4021 H         1 B29903      0.0000 
     37 H          22.0935   29.1282   35.2158 H         1 B29903      0.0000 
     38 H          20.4481   28.2079   35.6371 H         1 B29903      0.0000 
     39 H          19.4192   31.6737   37.7543 H         1 B29903      0.0000 
     40 H          17.0851   31.0489   37.6505 H         1 B29903      0.0000 
     41 H          16.4334   28.9982   36.5408 H         1 B29903      0.0000 
     42 H          17.0835   26.7759   35.7377 H         1 B29903      0.0000 
     43 H          18.7863   26.4401   35.3803 H         1 B29903      0.0000 
     44 H          19.3818   27.3107   32.7798 H         1 B29903      0.0000 
@<TRIPOS>BOND
     1    2    1 ar   
     2    6    1 ar   
     3    9    1 1    
     4    3    2 ar   
     5   31    2 1    
     6    4    3 ar   
     7   32    3 1    
     8    5    4 ar   
     9   33    4 1    
    10    6    5 ar   
    11   34    5 1    
    12    7    6 1    
    13    8    7 1    
    14    9    8 ar   
    15   13    8 ar   
    16   10    9 ar   
    17   11   10 ar   
    18   35   10 1    
    19   12   11 ar   
    20   36   11 1    
    21   13   12 ar   
    22   37   12 1    
    23   14   13 1    
    24   15   14 ar   
    25   16   14 ar   
    26   19   15 ar   
    27   38   15 1    
    28   17   16 ar   
    29   39   16 1    
    30   18   17 ar   
    31   40   17 1    
    32   19   18 ar   
    33   41   18 1    
    34   20   19 1    
    35   21   20 1    
    36   42   20 1    
    37   43   20 1    
    38   22   21 1    
    39   26   21 1    
    40   30   21 1    
    41   23   22 ar   
    42   24   22 ar   
    43   25   22 ar   
    44   27   26 ar   
    45   28   26 ar   
    46   29   26 ar   
    47   44   30 1    
@<TRIPOS>SUBSTRUCTURE
     1 B29903      1 GROUP   
@<TRIPOS>SET

