#    Name: 3di6_PDZ_1_INTS_M
#    Modification time : Mon Mar 24 23:28:24 2014

@<TRIPOS>MOLECULE
3di6_PDZ_1_INTS_M
   62     0     9     0     0
SMALL
NO_CHARGES


@<TRIPOS>ATOM
      1 CA         49.7175   62.7150   23.1655 C.3       3 GLC5        0.0000 
      2 CA         48.6610   62.2320   21.2910 C.3       9 GLL5        0.0000 
      3 CA         50.7740   63.1980   25.0400 C.3       6 GLP5        0.0000 
      4 CA         47.1765   58.7400   19.8850 C.3       3 GLC5        0.0000 
      5 CA         47.9040   60.7240   19.5700 C.3       9 GLL5        0.0000 
      6 CA         46.4490   56.7560   20.2000 C.3       6 GLP5        0.0000 
      7 CA         48.3875   65.9525   17.0885 C.3       3 GLC5        0.0000 
      8 CA         48.5460   63.9850   16.9560 C.3       9 GLL5        0.0000 
      9 CA         48.2290   67.9200   17.2210 C.3       6 GLP5        0.0000 
     10 CA         50.2565   61.7210   14.6220 C.3       3 GLC5        0.0000 
     11 CA         49.3680   63.7360   14.3290 C.3       9 GLL5        0.0000 
     12 CA         51.1450   59.7060   14.9150 C.3       6 GLP5        0.0000 
     13 CA         51.4580   61.6860   14.9800 C.3       3 GLC5        0.0000 
     14 CA         51.7710   63.6660   15.0450 C.3       9 GLL5        0.0000 
     15 CA         53.2955   62.8765   15.3890 C.3       3 GLC5        0.0000 
     16 CA         54.8200   62.0870   15.7330 C.3       6 GLP5        0.0000 
     17 CA         45.0355   62.9130   15.0085 C.3       3 GLC5        0.0000 
     18 CA         45.9680   64.0980   16.3830 C.3       9 GLL5        0.0000 
     19 CA         44.1030   61.7280   13.6340 C.3       6 GLP5        0.0000 
     20 CA         44.8875   62.6435   17.7055 C.3       3 GLC5        0.0000 
     21 CA         43.8070   61.1890   19.0280 C.3       6 GLP5        0.0000 
     22 CA         45.6305   64.6435   18.1720 C.3       3 GLC5        0.0000 
     23 CA         45.2930   65.1890   19.9610 C.3       6 GLP5        0.0000 
     24 CA         44.5925   65.8680   16.3890 C.3       3 GLC5        0.0000 
     25 CA         43.2170   67.6380   16.3950 C.3       6 GLP5        0.0000 
     26 CA         45.7705   65.7635   14.9000 C.3       3 GLC5        0.0000 
     27 CA         45.5730   67.4290   13.4170 C.3       6 GLP5        0.0000 
     28 CA         51.4020   63.6365   19.4425 C.3       3 GLC5        0.0000 
     29 CA         50.7650   63.9150   17.7120 C.3       9 GLL5        0.0000 
     30 CA         52.0390   63.3580   21.1730 C.3       6 GLP5        0.0000 
     31 CA         54.6965   68.0390   15.0780 C.3       3 GLC5        0.0000 
     32 CA         53.0870   67.1690   15.5460 C.3       9 GLL5        0.0000 
     33 CA         56.3060   68.9090   14.6100 C.3       6 GLP5        0.0000 
     34 O          52.0175   67.4665   12.1880 O.2       1 ALC1        0.0000 
     35 O          52.1520   66.8670   13.3600 O.2       7 ALL1        0.0000 
     36 O          51.8830   68.0660   11.0160 O.2       4 ALP1        0.0000 
     37 N          51.4940   65.5390   12.1425 N.am      2 SEC2        0.0000 
     38 N          51.8730   65.6470   13.6340 N.am      8 SEL2        0.0000 
     39 N          51.1150   65.4310   10.6510 N.am      5 SEP2        0.0000 
     40 CA         50.2635   62.4750   21.1288 C.3       3 GLC5        0.0000 
     41 CA         49.5198   60.6230   18.7725 C.3       3 GLC5        0.0000 
     42 CA         48.3150   60.9520   20.8780 C.3       9 GLL5        0.0000 
     43 CA         50.9300   60.4080   17.3210 C.3       6 GLP5        0.0000 
     44 CA         45.8377   61.2188   19.0730 C.3       3 GLC5        0.0000 
     45 CA         49.4680   61.4108   18.0977 C.3       3 GLC5        0.0000 
     46 CA         47.8330   61.7730   18.6660 C.3       9 GLL5        0.0000 
     47 CA         50.2118   63.2625   20.4548 C.3       3 GLC5        0.0000 
     48 CA         48.1790   63.0540   19.0830 C.3       9 GLL5        0.0000 
     49 CA         46.7955   64.0179   19.7966 C.3       3 GLC5        0.0000 
     50 CA         48.5900   63.2800   20.3900 C.3       9 GLL5        0.0000 
     51 CA         48.5415   65.7780   15.1072 C.3       3 GLC5        0.0000 
     52 CA         47.6240   63.9640   15.9320 C.3       9 GLL5        0.0000 
     53 CA         49.2640   67.6550   14.9470 C.3       6 GLP5        0.0000 
     54 CA         48.3700   64.6125   12.8215 C.3       3 GLC5        0.0000 
     55 CA         48.0140   63.8380   14.6030 C.3       9 GLL5        0.0000 
     56 CA         48.0490   65.4380   11.1770 C.3       6 GLP5        0.0000 
     57 CA         49.5645   65.7361   15.3547 C.3       3 GLC5        0.0000 
     58 CA         49.8940   63.8900   16.6800 C.3       9 GLL5        0.0000 
     59 CA         50.5968   62.1441   17.1109 C.3       3 GLC5        0.0000 
     60 CA         50.3040   63.7530   15.3610 C.3       9 GLL5        0.0000 
     61 CA         51.0975   67.0858   15.3135 C.3       3 GLC5        0.0000 
     62 CA         52.7750   65.8640   15.8140 C.3       9 GLL5        0.0000 
@<TRIPOS>BOND
@<TRIPOS>SUBSTRUCTURE
     1 ALC1       34 GROUP        1 X    ALC  0     ROOT ALC X 1
     2 SEC2       37 GROUP        1 X    SEC  0     **** SEC X 2
     3 GLC5        1 GROUP        1 X    GLC  0     **** GLC X 6
     4 ALP1       36 GROUP        1 Y    ALP  0     ROOT ALP Y 8
     5 SEP2       39 GROUP        1 Y    SEP  0     **** SEP Y 9
     6 GLP5        3 GROUP        1 Y    GLP  0     **** GLP Y 13
     7 ALL1       35 GROUP        1 Z    ALL  0     ROOT ALL Z 15
     8 SEL2       38 GROUP        1 Z    SEL  0     **** SEL Z 16
     9 GLL5        2 GROUP        1 Z    GLL  0     **** GLL Z 20
@<TRIPOS>SET

