#    Name: 3di6_PDZ_1_ligand
#    Modification time : Mon Mar 24 23:28:24 2014

@<TRIPOS>MOLECULE
3di6_PDZ_1_ligand
   35    37     1     0     0
SMALL
NO_CHARGES


@<TRIPOS>ATOM
      1 C1         48.6610   62.2320   21.2910 C.ar      1 PDZ562      0.0000 
      2 C2         48.3150   60.9520   20.8780 C.ar      1 PDZ562      0.0000 
      3 C3         47.9040   60.7240   19.5700 C.ar      1 PDZ562      0.0000 
      4 C4         47.8330   61.7730   18.6660 C.ar      1 PDZ562      0.0000 
      5 C5         48.1790   63.0540   19.0830 C.ar      1 PDZ562      0.0000 
      6 C6         48.5900   63.2800   20.3900 C.ar      1 PDZ562      0.0000 
      7 O7         48.1170   64.1040   18.2300 O.3       1 PDZ562      0.0000 
      8 C8         48.5460   63.9850   16.9560 C.ar      1 PDZ562      0.0000 
      9 C9         47.6240   63.9640   15.9320 C.ar      1 PDZ562      0.0000 
     10 C10        48.0140   63.8380   14.6030 C.ar      1 PDZ562      0.0000 
     11 C11        49.3680   63.7360   14.3290 C.ar      1 PDZ562      0.0000 
     12 C12        50.3040   63.7530   15.3610 C.ar      1 PDZ562      0.0000 
     13 C13        49.8940   63.8900   16.6800 C.ar      1 PDZ562      0.0000 
     14 C14        51.7710   63.6660   15.0450 C.3       1 PDZ562      0.0000 
     15 CL15       45.9680   64.0980   16.3830 Cl        1 PDZ562      0.0000 
     16 F16        50.7650   63.9150   17.7120 F         1 PDZ562      0.0000 
     17 C17        52.1560   65.1050   14.7970 C.2       1 PDZ562      0.0000 
     18 C18        52.7750   65.8640   15.8140 C.2       1 PDZ562      0.0000 
     19 C19        53.0870   67.1690   15.5460 C.2       1 PDZ562      0.0000 
     20 C20        52.7500   67.6670   14.2640 C.2       1 PDZ562      0.0000 
     21 N21        52.1520   66.8670   13.3600 N.am      1 PDZ562      0.0000 
     22 N22        51.8730   65.6470   13.6340 N.2       1 PDZ562      0.0000 
     23 O23        53.0010   68.8170   13.9570 O.2       1 PDZ562      0.0000 
     24 H          48.9664   62.3970   22.2563 H         1 PDZ562      0.0000 
     25 H          48.3631   60.1669   21.5444 H         1 PDZ562      0.0000 
     26 H          47.6510   59.7698   19.2719 H         1 PDZ562      0.0000 
     27 H          47.5296   61.6086   17.7023 H         1 PDZ562      0.0000 
     28 H          48.8432   64.2347   20.6888 H         1 PDZ562      0.0000 
     29 H          47.3247   63.8215   13.8576 H         1 PDZ562      0.0000 
     30 H          49.6904   63.6464   13.3517 H         1 PDZ562      0.0000 
     31 H          51.9232   63.0932   14.1628 H         1 PDZ562      0.0000 
     32 H          52.3051   63.2874   15.8822 H         1 PDZ562      0.0000 
     33 H          52.9747   65.4347   16.7125 H         1 PDZ562      0.0000 
     34 H          53.5386   67.7703   16.2189 H         1 PDZ562      0.0000 
     35 H          51.9193   67.2830   12.4105 H         1 PDZ562      0.0000 
@<TRIPOS>BOND
     1    2    1 ar   
     2    6    1 ar   
     3   24    1 1    
     4    3    2 ar   
     5   25    2 1    
     6    4    3 ar   
     7   26    3 1    
     8    5    4 ar   
     9   27    4 1    
    10    6    5 ar   
    11    7    5 1    
    12   28    6 1    
    13    8    7 1    
    14    9    8 ar   
    15   13    8 ar   
    16   10    9 ar   
    17   15    9 1    
    18   11   10 ar   
    19   29   10 1    
    20   12   11 ar   
    21   30   11 1    
    22   13   12 ar   
    23   14   12 1    
    24   16   13 1    
    25   17   14 1    
    26   31   14 1    
    27   32   14 1    
    28   18   17 1    
    29   22   17 2    
    30   19   18 2    
    31   33   18 1    
    32   20   19 1    
    33   34   19 1    
    34   21   20 am   
    35   23   20 2    
    36   22   21 1    
    37   35   21 1    
@<TRIPOS>SUBSTRUCTURE
     1 PDZ562      1 GROUP   
@<TRIPOS>SET

