#    Name: 3vqs_JT1_3_INTS_M
#    Modification time : Tue Mar 25 01:17:36 2014

@<TRIPOS>MOLECULE
3vqs_JT1_3_INTS_M
  131     0     9     0     0
SMALL
NO_CHARGES


@<TRIPOS>ATOM
      1 CA         58.7315   66.2665   17.3805 C.3       3 GLC5        0.0000 
      2 CA         59.4650   67.7550   16.4270 C.3       9 GLL5        0.0000 
      3 CA         57.9980   64.7780   18.3340 C.3       6 GLP5        0.0000 
      4 CA         57.8650   68.9520   18.3640 C.3       3 GLC5        0.0000 
      5 CA         59.3280   68.9320   17.2050 C.3       9 GLL5        0.0000 
      6 CA         56.4020   68.9720   19.5230 C.3       6 GLP5        0.0000 
      7 CA         57.0730   71.6585   18.5045 C.3       3 GLC5        0.0000 
      8 CA         58.2210   72.6480   16.9790 C.3       9 GLL5        0.0000 
      9 CA         55.9250   70.6690   20.0300 C.3       6 GLP5        0.0000 
     10 CA         57.7375   72.6690   13.3415 C.3       3 GLC5        0.0000 
     11 CA         58.0800   72.7650   15.4540 C.3       9 GLL5        0.0000 
     12 CA         57.3950   72.5730   11.2290 C.3       6 GLP5        0.0000 
     13 CA         61.4980   74.0560   13.4855 C.3       3 GLC5        0.0000 
     14 CA         60.4580   73.7160   15.2940 C.3       9 GLL5        0.0000 
     15 CA         62.5380   74.3960   11.6770 C.3       6 GLP5        0.0000 
     16 O          59.0455   74.3350   19.7465 O.2       1 ALC1        0.0000 
     17 O          57.9480   74.3530   18.7560 O.2       7 ALL1        0.0000 
     18 O          60.1430   74.3170   20.7370 O.2       4 ALP1        0.0000 
     19 CA         56.8335   76.5295   18.0535 C.3       3 GLC5        0.0000 
     20 CA         57.1730   75.2220   19.5860 C.3       9 GLL5        0.0000 
     21 CA         56.4940   77.8370   16.5210 C.3       6 GLP5        0.0000 
     22 CA         53.4945   76.1335   21.5090 C.3       3 GLC5        0.0000 
     23 CA         54.9160   74.7630   20.5450 C.3       9 GLL5        0.0000 
     24 CA         52.0730   77.5040   22.4730 C.3       6 GLP5        0.0000 
     25 CA         55.0240   74.8255   14.8635 C.3       3 GLC5        0.0000 
     26 CA         56.7180   75.0730   13.9610 C.3       9 GLL5        0.0000 
     27 CA         53.3300   74.5780   15.7660 C.3       6 GLP5        0.0000 
     28 CA         57.0565   73.8230   12.5950 C.3       3 GLC5        0.0000 
     29 N          60.6985   75.6600   13.2540 N.am      2 SEC2        0.0000 
     30 N          59.2580   75.9030   13.9110 N.am      8 SEL2        0.0000 
     31 N          62.1390   75.4170   12.5970 N.am      5 SEP2        0.0000 
     32 CA         55.0115   79.1700   12.4395 C.3       3 GLC5        0.0000 
     33 CA         56.2510   77.6000   12.7460 C.3       9 GLL5        0.0000 
     34 CA         53.7720   80.7400   12.1330 C.3       6 GLP5        0.0000 
     35 N          55.8105   79.6360   11.7625 N.am      2 SEC2        0.0000 
     36 N          56.7860   78.7630   12.3110 N.am      8 SEL2        0.0000 
     37 N          54.8350   80.5090   11.2140 N.am      5 SEP2        0.0000 
     38 CA         58.4825   78.8525   14.4540 C.3       3 GLC5        0.0000 
     39 CA         58.1490   78.9310   12.4170 C.3       9 GLL5        0.0000 
     40 CA         58.8160   78.7740   16.4910 C.3       6 GLP5        0.0000 
     41 CA         58.4870   77.7325   11.0120 C.3       3 GLC5        0.0000 
     42 CA         58.8250   76.5340    9.6070 C.3       6 GLP5        0.0000 
     43 CA         60.7300   67.5800   13.3850 C.3       3 GLC5        0.0000 
     44 CA         60.8000   66.3880   14.8380 C.3       9 GLL5        0.0000 
     45 CA         60.6600   68.7720   11.9320 C.3       6 GLP5        0.0000 
     46 CA         58.8605   82.1885    9.3950 C.3       3 GLC5        0.0000 
     47 CA         58.2170   80.9630   10.7200 C.3       9 GLL5        0.0000 
     48 CA         59.5040   83.4140    8.0700 C.3       6 GLP5        0.0000 
     49 CA         55.8665   81.1250   12.1350 C.3       3 GLC5        0.0000 
     50 CA         57.9610   81.5100   12.1370 C.3       9 GLL5        0.0000 
     51 CA         52.0720   70.0880   25.0280 C.3       3 GLC5        0.0000 
     52 CA         52.9020   71.5830   24.8660 C.3       9 GLL5        0.0000 
     53 CA         51.2420   68.5930   25.1900 C.3       6 GLP5        0.0000 
     54 CA         56.1500   70.2345   23.2665 C.3       3 GLC5        0.0000 
     55 CA         54.4940   70.9330   23.4650 C.3       9 GLL5        0.0000 
     56 CA         57.8060   69.5360   23.0680 C.3       6 GLP5        0.0000 
     57 CA         55.2095   70.8010   21.7475 C.3       3 GLC5        0.0000 
     58 CA         52.8680   69.7630   24.3275 C.3       3 GLC5        0.0000 
     59 CA         54.3170   71.0890   21.3505 C.3       3 GLC5        0.0000 
     60 CA         52.7090   71.5090   22.6710 C.3       9 GLL5        0.0000 
     61 CA         52.3505   72.3265   20.8390 C.3       3 GLC5        0.0000 
     62 CA         51.9920   73.1440   19.0070 C.3       6 GLP5        0.0000 
     63 CA         58.4700   64.4010   15.1570 C.3       3 GLC5        0.0000 
     64 CA         59.6510   65.9590   14.2650 C.3       9 GLL5        0.0000 
     65 CA         57.2890   62.8430   16.0490 C.3       6 GLP5        0.0000 
     66 CA         57.8025   66.6960   14.9550 C.3       3 GLC5        0.0000 
     67 CA         55.9540   67.4330   15.6450 C.3       6 GLP5        0.0000 
     68 CA         59.3805   66.4965   12.7510 C.3       3 GLC5        0.0000 
     69 CA         59.1100   67.0340   11.2370 C.3       6 GLP5        0.0000 
     70 CA         59.1345   64.4590   13.5690 C.3       3 GLC5        0.0000 
     71 CA         58.6180   62.9590   12.8730 C.3       6 GLP5        0.0000 
     72 CA         59.5780   65.0555   16.9820 C.3       3 GLC5        0.0000 
     73 CA         61.1580   65.3330   15.6300 C.3       9 GLL5        0.0000 
     74 CA         59.8880   64.1460   14.2515 C.3       3 GLC5        0.0000 
     75 CA         61.4395   64.1150   16.7010 C.3       3 GLC5        0.0000 
     76 CA         61.7210   62.8970   17.7720 C.3       6 GLP5        0.0000 
     77 CA         61.0265   65.7100   17.6125 C.3       3 GLC5        0.0000 
     78 CA         60.8950   66.0870   19.5950 C.3       6 GLP5        0.0000 
     79 CA         63.0915   65.4030   15.9890 C.3       3 GLC5        0.0000 
     80 CA         65.0250   65.4730   16.3480 C.3       6 GLP5        0.0000 
     81 CA         61.0730   66.9740   12.5840 C.3       3 GLC5        0.0000 
     82 CA         61.7430   66.3750   13.8930 C.3       9 GLL5        0.0000 
     83 CA         60.4030   67.5730   11.2750 C.3       6 GLP5        0.0000 
     84 CA         63.6650   66.8355   14.2825 C.3       3 GLC5        0.0000 
     85 CA         65.5870   67.2960   14.6720 C.3       6 GLP5        0.0000 
     86 CA         63.2700   68.5648   16.5063 C.3       3 GLC5        0.0000 
     87 CA         61.5120   69.8360   16.3750 C.3       9 GLL5        0.0000 
     88 CA         64.9620   67.8810   17.0340 C.3       6 GLP5        0.0000 
     89 CA         61.8614   68.7051   17.9805 C.3       3 GLC5        0.0000 
     90 CA         61.6440   68.6610   15.5820 C.3       9 GLL5        0.0000 
     91 CA         62.4380   68.1310   19.7830 C.3       6 GLP5        0.0000 
     92 CA         57.6753   67.8882   16.2305 C.3       3 GLC5        0.0000 
     93 CA         60.2923   67.2053   18.1079 C.3       3 GLC5        0.0000 
     94 CA         56.5352   71.5507   16.3072 C.3       3 GLC5        0.0000 
     95 CA         54.9200   70.3950   16.3980 C.3       6 GLP5        0.0000 
     96 CA         55.7740   72.6830   20.3185 C.3       3 GLC5        0.0000 
     97 CA         56.3300   74.6310   20.6690 C.3       9 GLL5        0.0000 
     98 CA         55.2155   74.8912   23.5813 C.3       3 GLC5        0.0000 
     99 CA         54.0830   74.2360   21.5430 C.3       9 GLL5        0.0000 
    100 CA         56.0730   75.8450   25.0760 C.3       6 GLP5        0.0000 
    101 CA         52.7485   75.0408   22.6608 C.3       3 GLC5        0.0000 
    102 CA         54.6330   73.6390   22.6300 C.3       9 GLL5        0.0000 
    103 CA         51.1390   76.1440   23.2350 C.3       6 GLP5        0.0000 
    104 CA         55.1415   72.3032   21.0583 C.3       3 GLC5        0.0000 
    105 CA         57.5490   72.1173   23.9355 C.3       3 GLC5        0.0000 
    106 CA         56.0530   73.4920   22.7040 C.3       9 GLL5        0.0000 
    107 CA         58.8000   71.0210   24.6450 C.3       6 GLP5        0.0000 
    108 CA         55.8385   72.9688   25.1275 C.3       3 GLC5        0.0000 
    109 CA         55.3790   72.7240   27.0290 C.3       6 GLP5        0.0000 
    110 CA         58.2935   77.7640   14.9180 C.3       3 GLC5        0.0000 
    111 CA         57.0680   76.6050   13.3080 C.3       9 GLL5        0.0000 
    112 CA         57.9180   76.8555   11.3262 C.3       3 GLC5        0.0000 
    113 CA         58.4740   76.9030   13.3820 C.3       9 GLL5        0.0000 
    114 CA         51.8110   72.0785   25.5210 C.3       3 GLC5        0.0000 
    115 CA         53.4840   71.7970   23.6620 C.3       9 GLL5        0.0000 
    116 CA         50.4290   72.4670   26.7780 C.3       6 GLP5        0.0000 
    117 CA         51.8642   70.2585   23.5772 C.3       3 GLC5        0.0000 
    118 CA         50.6320   68.8640   23.9880 C.3       6 GLP5        0.0000 
    119 CA         59.3340   81.4793   13.8805 C.3       3 GLC5        0.0000 
    120 CA         58.7590   80.2230   11.9530 C.3       9 GLL5        0.0000 
    121 CA         60.3080   82.0920   15.7160 C.3       6 GLP5        0.0000 
    122 CA         57.5795   80.5143   13.9495 C.3       3 GLC5        0.0000 
    123 CA         56.7990   80.1620   15.8540 C.3       6 GLP5        0.0000 
    124 CA         58.2030   79.5250    9.8148 C.3       3 GLC5        0.0000 
    125 CA         57.9180   78.4570    8.2930 C.3       6 GLP5        0.0000 
    126 CA         57.6455   83.0058   11.1343 C.3       3 GLC5        0.0000 
    127 CA         57.2020   84.7750   10.8400 C.3       6 GLP5        0.0000 
    128 CA         54.6112   72.0178   25.4468 C.3       3 GLC5        0.0000 
    129 CA         56.2911   74.5915   24.0287 C.3       3 GLC5        0.0000 
    130 CA         56.5430   72.9350   23.7480 C.3       9 GLL5        0.0000 
    131 CA         56.2171   72.0035   21.5058 C.3       3 GLC5        0.0000 
@<TRIPOS>BOND
@<TRIPOS>SUBSTRUCTURE
     1 ALC1       16 GROUP        1 X    ALC  0     ROOT ALC X 1
     2 SEC2       29 GROUP        1 X    SEC  0     **** SEC X 2
     3 GLC5        1 GROUP        1 X    GLC  0     **** GLC X 6
     4 ALP1       18 GROUP        1 Y    ALP  0     ROOT ALP Y 8
     5 SEP2       31 GROUP        1 Y    SEP  0     **** SEP Y 9
     6 GLP5        3 GROUP        1 Y    GLP  0     **** GLP Y 13
     7 ALL1       17 GROUP        1 Z    ALL  0     ROOT ALL Z 15
     8 SEL2       30 GROUP        1 Z    SEL  0     **** SEL Z 16
     9 GLL5        2 GROUP        1 Z    GLL  0     **** GLL Z 20
@<TRIPOS>SET

