#    Name: 3vqs_JT1_3_ligand
#    Modification time : Tue Mar 25 01:17:36 2014

@<TRIPOS>MOLECULE
3vqs_JT1_3_ligand
   70    75     1     0     0
SMALL
NO_CHARGES


@<TRIPOS>ATOM
      1 N1         59.0380   73.7060   14.8280 N.3       1 JT1601      0.0000 
      2 N2         59.6220   72.5740   17.3130 N.pl3     1 JT1601      0.0000 
      3 S3         60.1620   71.2800   18.1750 S.o2      1 JT1601      0.0000 
      4 C4         60.3390   69.9590   17.1730 C.ar      1 JT1601      0.0000 
      5 O5         59.1870   71.0070   19.1350 O.2       1 JT1601      0.0000 
      6 O6         61.4960   71.5270   18.5970 O.2       1 JT1601      0.0000 
      7 C7         61.5120   69.8360   16.3750 C.ar      1 JT1601      0.0000 
      8 C8         61.6440   68.6610   15.5820 C.ar      1 JT1601      0.0000 
      9 C9         60.6370   67.6750   15.6460 C.ar      1 JT1601      0.0000 
     10 C10        59.4650   67.7550   16.4270 C.ar      1 JT1601      0.0000 
     11 C11        59.3280   68.9320   17.2050 C.ar      1 JT1601      0.0000 
     12 C12        58.2210   72.6480   16.9790 C.3       1 JT1601      0.0000 
     13 C13        58.0800   72.7650   15.4540 C.3       1 JT1601      0.0000 
     14 C14        60.4580   73.7160   15.2940 C.3       1 JT1601      0.0000 
     15 C15        60.4990   73.6130   16.8360 C.3       1 JT1601      0.0000 
     16 C16        57.3840   73.7280   17.6940 C.2       1 JT1601      0.0000 
     17 O17        56.1960   73.9750   17.2830 O.2       1 JT1601      0.0000 
     18 N18        57.9480   74.3530   18.7560 N.am      1 JT1601      0.0000 
     19 C19        57.1730   75.2220   19.5860 C.3       1 JT1601      0.0000 
     20 C20        56.3300   74.6310   20.6690 C.ar      1 JT1601      0.0000 
     21 C21        54.9160   74.7630   20.5450 C.ar      1 JT1601      0.0000 
     22 C22        54.0830   74.2360   21.5430 C.ar      1 JT1601      0.0000 
     23 C23        54.6330   73.6390   22.6300 C.ar      1 JT1601      0.0000 
     24 C24        56.0530   73.4920   22.7040 C.ar      1 JT1601      0.0000 
     25 C25        56.8980   73.9900   21.7260 C.ar      1 JT1601      0.0000 
     26 C26        58.4870   74.8900   14.2910 C.2       1 JT1601      0.0000 
     27 S27        56.7180   75.0730   13.9610 S.3       1 JT1601      0.0000 
     28 N28        59.2580   75.9030   13.9110 N.2       1 JT1601      0.0000 
     29 C29        58.4740   76.9030   13.3820 C.ar      1 JT1601      0.0000 
     30 C30        57.0680   76.6050   13.3080 C.ar      1 JT1601      0.0000 
     31 C31        56.2510   77.6000   12.7460 C.ar      1 JT1601      0.0000 
     32 N32        56.7860   78.7630   12.3110 N.ar      1 JT1601      0.0000 
     33 C33        58.1490   78.9310   12.4170 C.ar      1 JT1601      0.0000 
     34 N34        59.0230   78.0300   12.9340 N.ar      1 JT1601      0.0000 
     35 O35        53.8480   73.1570   23.6680 O.3       1 JT1601      0.0000 
     36 C36        53.4840   71.7970   23.6620 C.3       1 JT1601      0.0000 
     37 C40        60.8000   66.3880   14.8380 C.3       1 JT1601      0.0000 
     38 C44        58.7590   80.2230   11.9530 C.3       1 JT1601      0.0000 
     39 C45        58.2170   80.9630   10.7200 C.3       1 JT1601      0.0000 
     40 C46        57.9610   81.5100   12.1370 C.3       1 JT1601      0.0000 
     41 F37        52.9020   71.5830   24.8660 F         1 JT1601      0.0000 
     42 F38        54.4940   70.9330   23.4650 F         1 JT1601      0.0000 
     43 F39        52.7090   71.5090   22.6710 F         1 JT1601      0.0000 
     44 F41        59.6510   65.9590   14.2650 F         1 JT1601      0.0000 
     45 F42        61.1580   65.3330   15.6300 F         1 JT1601      0.0000 
     46 F43        61.7430   66.3750   13.8930 F         1 JT1601      0.0000 
     47 F47        56.5430   72.9350   23.7480 F         1 JT1601      0.0000 
     48 H          62.2141   70.5459   16.3718 H         1 JT1601      0.0000 
     49 H          62.4511   68.5402   14.9826 H         1 JT1601      0.0000 
     50 H          58.7823   67.0394   16.4337 H         1 JT1601      0.0000 
     51 H          58.5076   69.0636   17.7982 H         1 JT1601      0.0000 
     52 H          57.7393   71.6597   17.2295 H         1 JT1601      0.0000 
     53 H          58.2024   71.7531   15.0212 H         1 JT1601      0.0000 
     54 H          57.0407   73.0747   15.2300 H         1 JT1601      0.0000 
     55 H          60.9480   74.6386   14.9990 H         1 JT1601      0.0000 
     56 H          60.9996   72.8714   14.8796 H         1 JT1601      0.0000 
     57 H          61.5426   73.4254   17.1248 H         1 JT1601      0.0000 
     58 H          60.2173   74.5961   17.2382 H         1 JT1601      0.0000 
     59 H          58.9439   74.2220   18.9954 H         1 JT1601      0.0000 
     60 H          56.4919   75.8684   18.9396 H         1 JT1601      0.0000 
     61 H          57.8506   76.0009   20.0694 H         1 JT1601      0.0000 
     62 H          54.5242   75.2373   19.7353 H         1 JT1601      0.0000 
     63 H          53.0622   74.3123   21.4319 H         1 JT1601      0.0000 
     64 H          57.9060   73.8745   21.8060 H         1 JT1601      0.0000 
     65 H          55.2332   77.4189   12.6746 H         1 JT1601      0.0000 
     66 H          59.6986   80.4932   12.0257 H         1 JT1601      0.0000 
     67 H          57.4325   80.5171   10.4494 H         1 JT1601      0.0000 
     68 H          58.9305   81.4592   10.3563 H         1 JT1601      0.0000 
     69 H          58.5767   82.2116   12.2798 H         1 JT1601      0.0000 
     70 H          57.0788   81.2695   12.3728 H         1 JT1601      0.0000 
@<TRIPOS>BOND
     1   13    1 1    
     2   14    1 1    
     3   26    1 1    
     4    3    2 1    
     5   12    2 1    
     6   15    2 1    
     7    4    3 1    
     8    5    3 2    
     9    6    3 2    
    10    7    4 ar   
    11   11    4 ar   
    12    8    7 ar   
    13   48    7 1    
    14    9    8 ar   
    15   49    8 1    
    16   10    9 ar   
    17   37    9 1    
    18   11   10 ar   
    19   50   10 1    
    20   51   11 1    
    21   13   12 1    
    22   16   12 1    
    23   52   12 1    
    24   53   13 1    
    25   54   13 1    
    26   15   14 1    
    27   55   14 1    
    28   56   14 1    
    29   57   15 1    
    30   58   15 1    
    31   17   16 2    
    32   18   16 am   
    33   19   18 1    
    34   59   18 1    
    35   20   19 1    
    36   60   19 1    
    37   61   19 1    
    38   21   20 ar   
    39   25   20 ar   
    40   22   21 ar   
    41   62   21 1    
    42   23   22 ar   
    43   63   22 1    
    44   24   23 ar   
    45   35   23 1    
    46   25   24 ar   
    47   47   24 1    
    48   64   25 1    
    49   27   26 1    
    50   28   26 2    
    51   30   27 1    
    52   29   28 1    
    53   30   29 ar   
    54   34   29 ar   
    55   31   30 ar   
    56   32   31 ar   
    57   65   31 1    
    58   33   32 ar   
    59   34   33 ar   
    60   38   33 1    
    61   36   35 1    
    62   41   36 1    
    63   42   36 1    
    64   43   36 1    
    65   44   37 1    
    66   45   37 1    
    67   46   37 1    
    68   39   38 1    
    69   40   38 1    
    70   66   38 1    
    71   40   39 1    
    72   67   39 1    
    73   68   39 1    
    74   69   40 1    
    75   70   40 1    
@<TRIPOS>SUBSTRUCTURE
     1 JT1601      1 GROUP   
@<TRIPOS>SET

