#    Name: 2c9c_ATP_1_INTS_M
#    Modification time : Mon Mar 24 23:19:46 2014

@<TRIPOS>MOLECULE
2c9c_ATP_1_INTS_M
   65     0    15     0     0
SMALL
NO_CHARGES


@<TRIPOS>ATOM
      1 N          21.7625   20.1895    4.2040 N.am      2 SEC2        0.0000 
      2 N          21.5890   20.8510    3.0200 N.am     12 SEL2        0.0000 
      3 N          21.9360   19.5280    5.3880 N.am      7 SEP2        0.0000 
      4 Zn         21.4265   23.3040    0.8510 Zn        4 ZIC7        0.0000 
      5 Zn         21.1320   23.0110    1.7950 Zn       14 ZIL7        0.0000 
      6 Zn         21.7210   23.5970   -0.0930 Zn        9 ZIP7        0.0000 
      7 N          21.4395   23.6645    5.2495 N.am      2 SEC2        0.0000 
      8 N          20.5000   22.7300    4.2650 N.am     12 SEL2        0.0000 
      9 N          22.3790   24.5990    6.2340 N.am      7 SEP2        0.0000 
     10 N          26.0325   21.6185    1.6955 N.am      2 SEC2        0.0000 
     11 N          24.6490   22.1470    2.1410 N.am     12 SEL2        0.0000 
     12 N          27.4160   21.0900    1.2500 N.am      7 SEP2        0.0000 
     13 NZ         24.6065   21.4950    5.5205 N.4       3 LYC4        0.0000 
     14 NZ         24.9190   22.5420    4.7600 N.4      13 LYL4        0.0000 
     15 NZ         24.2940   20.4480    6.2810 N.4       8 LYP4        0.0000 
     16 N          24.9735   23.9050    5.5960 N.am      2 SEC2        0.0000 
     17 N          24.9190   22.5420    4.7600 N.am     12 SEL2        0.0000 
     18 N          25.0280   25.2680    6.4320 N.am      7 SEP2        0.0000 
     19 N          25.9865   23.8295    4.7110 N.am      2 SEC2        0.0000 
     20 N          27.0540   25.1170    4.6620 N.am      7 SEP2        0.0000 
     21 N          26.3600   22.5515    4.2190 N.am      2 SEC2        0.0000 
     22 N          27.8010   22.5610    3.6780 N.am      7 SEP2        0.0000 
     23 N          24.6065   21.4950    5.5205 N.am      2 SEC2        0.0000 
     24 N          24.2940   20.4480    6.2810 N.am      7 SEP2        0.0000 
     25 N          22.5935   23.8650    4.9570 N.am      2 SEC2        0.0000 
     26 N          22.8080   23.1310    3.6800 N.am     12 SEL2        0.0000 
     27 Zn         22.5710   24.1095    0.3475 Zn        4 ZIC7        0.0000 
     28 Zn         23.4210   24.6220    0.7880 Zn       14 ZIL7        0.0000 
     29 N          25.9075   24.7790    3.8375 N.am      2 SEC2        0.0000 
     30 N          24.7610   24.4410    3.0130 N.am     12 SEL2        0.0000 
     31 CA         23.3040   26.6180    4.0455 C.3       5 GLC5        0.0000 
     32 CA         23.8520   27.3280    2.3000 C.3      15 GLL5        0.0000 
     33 CA         22.7560   25.9080    5.7910 C.3      10 GLP5        0.0000 
     34 CA         25.9550   30.5630    2.9500 C.3       5 GLC5        0.0000 
     35 CA         25.8110   29.7560    1.1420 C.3      15 GLL5        0.0000 
     36 CA         26.0990   31.3700    4.7580 C.3      10 GLP5        0.0000 
     37 CA         32.1630   30.6420    1.4395 C.3       5 GLC5        0.0000 
     38 CA         30.4690   30.4110    2.7280 C.3      15 GLL5        0.0000 
     39 CA         33.8570   30.8730    0.1510 C.3      10 GLP5        0.0000 
     40 CA         32.0090   31.9570    2.8215 C.3       5 GLC5        0.0000 
     41 CA         33.5490   33.5030    2.9150 C.3      10 GLP5        0.0000 
     42 O          32.3555   30.8920    4.1320 O.2       1 ALC1        0.0000 
     43 O          31.4020   29.9070    3.5940 O.2      11 ALL1        0.0000 
     44 O          33.3090   31.8770    4.6700 O.2       6 ALP1        0.0000 
     45 N          31.9755   31.9965    1.9165 N.am      2 SEC2        0.0000 
     46 N          30.6870   31.5300    1.9330 N.am     12 SEL2        0.0000 
     47 N          33.2640   32.4630    1.9000 N.am      7 SEP2        0.0000 
     48 CA         31.7840   31.4440    0.6025 C.3       5 GLC5        0.0000 
     49 CA         29.7110   32.0150    1.0540 C.3      15 GLL5        0.0000 
     50 CA         30.7320   33.5530    1.4095 C.3       5 GLC5        0.0000 
     51 CA         31.7530   35.0910    1.7650 C.3      10 GLP5        0.0000 
     52 CA         29.6490   32.4465    3.1820 C.3       5 GLC5        0.0000 
     53 CA         29.5870   32.8780    5.3100 C.3      10 GLP5        0.0000 
     54 CA         27.1530   30.8480    3.2430 C.3       5 GLC5        0.0000 
     55 CA         28.2070   30.3260    1.7280 C.3      15 GLL5        0.0000 
     56 CA         22.3110   28.4260    2.9080 C.3       5 GLC5        0.0000 
     57 CA         23.7180   28.6740    1.5980 C.3      15 GLL5        0.0000 
     58 CA         20.8370   28.8510    3.8670 C.3      10 GLP5        0.0000 
     59 CA         27.3980   28.2602    0.1397 C.3       5 GLC5        0.0000 
     60 CA         29.1240   27.2060   -0.2660 C.3      10 GLP5        0.0000 
     61 CA         28.9103   28.6422    0.9492 C.3       5 GLC5        0.0000 
     62 CA         29.7072   31.4995    3.9872 C.3       5 GLC5        0.0000 
     63 CA         29.1860   29.8310    2.6010 C.3      15 GLL5        0.0000 
     64 CA         28.9677   29.9220    4.4698 C.3       5 GLC5        0.0000 
     65 CA         28.1080   29.7230    6.2750 C.3      10 GLP5        0.0000 
@<TRIPOS>BOND
@<TRIPOS>SUBSTRUCTURE
     1 ALC1       42 GROUP        1 X    ALC  0     ROOT ALC X 1
     2 SEC2        1 GROUP        1 X    SEC  0     **** SEC X 2
     3 LYC4       13 GROUP        1 X    LYC  0     **** LYC X 4
     4 ZIC7        4 GROUP        1 X    ZIC  0     **** ZIC X 5
     5 GLC5       31 GROUP        1 X    GLC  0     **** GLC X 6
     6 ALP1       44 GROUP        1 Y    ALP  0     ROOT ALP Y 8
     7 SEP2        3 GROUP        1 Y    SEP  0     **** SEP Y 9
     8 LYP4       15 GROUP        1 Y    LYP  0     **** LYP Y 11
     9 ZIP7        6 GROUP        1 Y    ZIP  0     **** ZIP Y 12
    10 GLP5       33 GROUP        1 Y    GLP  0     **** GLP Y 13
    11 ALL1       43 GROUP        1 Z    ALL  0     ROOT ALL Z 15
    12 SEL2        2 GROUP        1 Z    SEL  0     **** SEL Z 16
    13 LYL4       14 GROUP        1 Z    LYL  0     **** LYL Z 18
    14 ZIL7        5 GROUP        1 Z    ZIL  0     **** ZIL Z 19
    15 GLL5       32 GROUP        1 Z    GLL  0     **** GLL Z 20
@<TRIPOS>SET

