#    Name: 2c9c_ATP_1_ligand
#    Modification time : Mon Mar 24 23:19:47 2014

@<TRIPOS>MOLECULE
2c9c_ATP_1_ligand
   43    45     1     0     0
SMALL
NO_CHARGES


@<TRIPOS>ATOM
      1 PG         21.4410   22.3630    3.2010 P.3       1 ATP400      0.0000 
      2 O1G        21.5890   20.8510    3.0200 O.co2     1 ATP400      0.0000 
      3 O2G        21.1320   23.0110    1.7950 O.co2     1 ATP400      0.0000 
      4 O3G        20.5000   22.7300    4.2650 O.co2     1 ATP400      0.0000 
      5 PB         24.3390   22.9170    3.4020 P.3       1 ATP400      0.0000 
      6 O1B        24.6490   22.1470    2.1410 O.co2     1 ATP400      0.0000 
      7 O2B        24.9190   22.5420    4.7600 O.co2     1 ATP400      0.0000 
      8 O3B        22.8080   23.1310    3.6800 O.3       1 ATP400      0.0000 
      9 PA         24.7950   24.9790    1.4660 P.3       1 ATP400      0.0000 
     10 O1A        26.0040   24.4240    0.6520 O.co2     1 ATP400      0.0000 
     11 O2A        23.4210   24.6220    0.7880 O.co2     1 ATP400      0.0000 
     12 O3A        24.7610   24.4410    3.0130 O.3       1 ATP400      0.0000 
     13 O5'        24.9540   26.5590    1.8130 O.3       1 ATP400      0.0000 
     14 C5'        23.8520   27.3280    2.3000 C.3       1 ATP400      0.0000 
     15 C4'        23.7180   28.6740    1.5980 C.3       1 ATP400      0.0000 
     16 O4'        24.7380   29.5450    2.0720 O.3       1 ATP400      0.0000 
     17 C3'        24.0220   28.6830    0.1120 C.3       1 ATP400      0.0000 
     18 O3'        23.3550   29.8260   -0.3760 O.3       1 ATP400      0.0000 
     19 C2'        25.5330   28.8730   -0.0510 C.3       1 ATP400      0.0000 
     20 O2'        25.9800   29.5170   -1.2480 O.3       1 ATP400      0.0000 
     21 C1'        25.8110   29.7560    1.1420 C.3       1 ATP400      0.0000 
     22 N9         27.1150   29.5210    1.8520 N.pl3     1 ATP400      0.0000 
     23 C8         27.3970   28.5750    2.7940 C.2       1 ATP400      0.0000 
     24 N7         28.6430   28.7780    3.2350 N.2       1 ATP400      0.0000 
     25 C5         29.1860   29.8310    2.6010 C.ar      1 ATP400      0.0000 
     26 C6         30.4690   30.4110    2.7280 C.ar      1 ATP400      0.0000 
     27 N6         31.4020   29.9070    3.5940 N.pl3     1 ATP400      0.0000 
     28 N1         30.6870   31.5300    1.9330 N.ar      1 ATP400      0.0000 
     29 C2         29.7110   32.0150    1.0540 C.ar      1 ATP400      0.0000 
     30 N3         28.4250   31.4370    0.9110 N.ar      1 ATP400      0.0000 
     31 C4         28.2070   30.3260    1.7280 C.ar      1 ATP400      0.0000 
     32 H          23.9476   27.5259    3.3868 H         1 ATP400      0.0000 
     33 H          22.8935   26.7861    2.1696 H         1 ATP400      0.0000 
     34 H          22.7642   29.1016    1.7614 H         1 ATP400      0.0000 
     35 H          23.7141   27.7943   -0.3182 H         1 ATP400      0.0000 
     36 H          26.0038   27.9336    0.1454 H         1 ATP400      0.0000 
     37 H          25.7757   30.7992    0.8071 H         1 ATP400      0.0000 
     38 H          26.7893   27.8832    3.0822 H         1 ATP400      0.0000 
     39 H          31.3813   28.9174    3.7360 H         1 ATP400      0.0000 
     40 H          32.0224   30.5727    4.0086 H         1 ATP400      0.0000 
     41 H          29.9376   32.8528    0.4654 H         1 ATP400      0.0000 
     42 H          24.0568   30.3475   -0.8614 H         1 ATP400      0.0000 
     43 H          25.9161   28.8160   -1.9583 H         1 ATP400      0.0000 
@<TRIPOS>BOND
     1    2    1 ar   
     2    3    1 ar   
     3    4    1 ar   
     4    8    1 1    
     5    6    5 ar   
     6    7    5 ar   
     7    8    5 1    
     8   12    5 1    
     9   10    9 ar   
    10   11    9 ar   
    11   12    9 1    
    12   13    9 1    
    13   14   13 1    
    14   15   14 1    
    15   32   14 1    
    16   33   14 1    
    17   16   15 1    
    18   17   15 1    
    19   34   15 1    
    20   21   16 1    
    21   18   17 1    
    22   19   17 1    
    23   35   17 1    
    24   42   18 1    
    25   20   19 1    
    26   21   19 1    
    27   36   19 1    
    28   43   20 1    
    29   22   21 1    
    30   37   21 1    
    31   23   22 1    
    32   31   22 1    
    33   24   23 2    
    34   38   23 1    
    35   25   24 1    
    36   26   25 ar   
    37   31   25 ar   
    38   27   26 1    
    39   28   26 ar   
    40   39   27 1    
    41   40   27 1    
    42   29   28 ar   
    43   30   29 ar   
    44   41   29 1    
    45   31   30 ar   
@<TRIPOS>SUBSTRUCTURE
     1 ATP400      1 GROUP   
@<TRIPOS>SET

