#    Name: 2GZ7_1_CAVITY_N1_6.mol2
#    Modification time : Mon Mar 10 15:44:43 2014

@<TRIPOS>MOLECULE
2GZ7_1_CAVITY_N1_6.mol2
   72     0     3     0     0
SMALL
NO_CHARGES


@<TRIPOS>ATOM
      1 CA        -28.6692  -42.7906    3.4695 C.3       2 GLY6        0.0000 
      2 CA        -28.1945  -35.3605    5.7755 C.3       2 GLY6        0.0000 
      3 O         -28.1270  -40.7250    6.4593 O.2       1 ALA2        0.0000 
      4 N         -27.1395  -40.7017    3.2540 N.2       1 ALA2        0.0000 
      5 N         -27.5014  -41.3810    4.5415 N.2       1 ALA2        0.0000 
      6 N         -27.8632  -42.0603    5.8289 N.2       1 ALA2        0.0000 
      7 N         -26.8757  -42.0370    2.6236 N.2       1 ALA2        0.0000 
      8 N         -27.2376  -42.7163    3.9111 N.2       1 ALA2        0.0000 
      9 CA        -26.6648  -33.2716    5.5600 C.3       2 GLY6        0.0000 
     10 N         -27.0266  -33.9508    6.8474 N.2       1 ALA2        0.0000 
     11 DU        -26.4010  -34.6069    4.9296 H         3 CUB7        0.0000 
     12 N         -26.7629  -35.2861    6.2171 N.2       1 ALA2        0.0000 
     13 N         -27.1248  -35.9654    7.5046 N.2       1 ALA2        0.0000 
     14 DU        -26.1373  -35.9422    4.2992 H         3 CUB7        0.0000 
     15 CA        -26.4991  -36.6215    5.5867 C.3       2 GLY6        0.0000 
     16 CA        -26.8610  -37.3007    6.8742 C.3       2 GLY6        0.0000 
     17 N         -26.2354  -37.9568    4.9563 N.2       1 ALA2        0.0000 
     18 N         -26.5973  -38.6360    6.2438 N.2       1 ALA2        0.0000 
     19 N         -26.9591  -39.3153    7.5313 N.2       1 ALA2        0.0000 
     20 N         -25.6098  -38.6128    3.0384 N.2       1 ALA2        0.0000 
     21 N         -25.9716  -39.2921    4.3259 N.2       1 ALA2        0.0000 
     22 N         -26.3335  -39.9714    5.6134 N.2       1 ALA2        0.0000 
     23 O         -26.6954  -40.6506    6.9009 O.2       1 ALA2        0.0000 
     24 CA        -27.0572  -41.3299    8.1884 C.3       2 GLY6        0.0000 
     25 DU        -25.3460  -39.9481    2.4081 H         3 CUB7        0.0000 
     26 N         -25.7079  -40.6274    3.6955 N.2       1 ALA2        0.0000 
     27 N         -26.0697  -41.3067    4.9830 N.2       1 ALA2        0.0000 
     28 N         -26.4316  -41.9859    6.2705 N.2       1 ALA2        0.0000 
     29 CA        -26.7935  -42.6652    7.5580 C.3       2 GLY6        0.0000 
     30 DU        -25.4441  -41.9627    3.0652 H         3 CUB7        0.0000 
     31 N         -25.8060  -42.6420    4.3527 N.2       1 ALA2        0.0000 
     32 CA        -25.2332  -33.1972    6.0015 C.3       2 GLY6        0.0000 
     33 N         -25.5950  -33.8765    7.2890 N.2       1 ALA2        0.0000 
     34 CA        -25.9569  -34.5558    8.5765 C.3       2 GLY6        0.0000 
     35 N         -24.6076  -33.8533    4.0837 N.2       1 ALA2        0.0000 
     36 N         -24.9694  -34.5326    5.3711 N.2       1 ALA2        0.0000 
     37 N         -25.3313  -35.2118    6.6586 N.2       1 ALA2        0.0000 
     38 CA        -25.6932  -35.8911    7.9461 C.3       2 GLY6        0.0000 
     39 N         -24.3438  -35.1886    3.4533 N.2       1 ALA2        0.0000 
     40 N         -24.7057  -35.8679    4.7408 N.2       1 ALA2        0.0000 
     41 N         -25.0675  -36.5471    6.0283 N.2       1 ALA2        0.0000 
     42 O         -25.4294  -37.2264    7.3157 O.2       1 ALA2        0.0000 
     43 N         -24.4419  -37.2032    4.1104 N.2       1 ALA2        0.0000 
     44 N         -24.8038  -37.8825    5.3979 N.2       1 ALA2        0.0000 
     45 CA        -25.1656  -38.5617    6.6854 C.3       2 GLY6        0.0000 
     46 N         -25.5275  -39.2410    7.9729 N.2       1 ALA2        0.0000 
     47 N         -24.1782  -38.5385    3.4800 N.2       1 ALA2        0.0000 
     48 N         -24.5400  -39.2178    4.7675 N.2       1 ALA2        0.0000 
     49 CA        -24.9019  -39.8970    6.0550 C.3       2 GLY6        0.0000 
     50 CA        -25.2638  -40.5763    7.3425 C.3       2 GLY6        0.0000 
     51 O         -25.6256  -41.2556    8.6300 O.2       1 ALA2        0.0000 
     52 DU        -23.9144  -39.8738    2.8496 H         3 CUB7        0.0000 
     53 DU        -24.2763  -40.5531    4.1371 H         3 CUB7        0.0000 
     54 CA        -24.6381  -41.2324    5.4246 C.3       2 GLY6        0.0000 
     55 CA        -25.0000  -41.9116    6.7121 C.3       2 GLY6        0.0000 
     56 CA        -25.3619  -42.5909    7.9996 C.3       2 GLY6        0.0000 
     57 DU        -23.6507  -41.2091    2.2192 H         3 CUB7        0.0000 
     58 DU        -24.0125  -41.8884    3.5067 H         3 CUB7        0.0000 
     59 N         -24.3744  -42.5677    4.7942 N.2       1 ALA2        0.0000 
     60 CA        -24.7363  -43.2469    6.0817 C.3       2 GLY6        0.0000 
     61 CA        -25.0981  -43.9262    7.3692 C.3       2 GLY6        0.0000 
     62 CA        -24.1634  -33.8022    7.7306 C.3       2 GLY6        0.0000 
     63 N         -23.5378  -34.4582    5.8127 N.2       1 ALA2        0.0000 
     64 N         -23.8997  -35.1375    7.1002 N.2       1 ALA2        0.0000 
     65 CA        -24.2615  -35.8168    8.3877 C.3       2 GLY6        0.0000 
     66 CA        -23.9978  -37.1521    7.7573 C.3       2 GLY6        0.0000 
     67 CA        -23.7340  -38.4874    7.1269 C.3       2 GLY6        0.0000 
     68 CA        -23.1084  -39.1435    5.2091 C.3       2 GLY6        0.0000 
     69 O         -22.4828  -39.7995    3.2912 O.2       1 ALA2        0.0000 
     70 CA        -22.8447  -40.4788    4.5787 C.3       2 GLY6        0.0000 
     71 CA        -23.2065  -41.1580    5.8662 C.3       2 GLY6        0.0000 
     72 N         -22.5809  -41.8141    3.9483 N.2       1 ALA2        0.0000 
@<TRIPOS>BOND
@<TRIPOS>SUBSTRUCTURE
     1 ALA2        3 GROUP   
     2 GLY6        1 GROUP   
     3 CUB7       11 GROUP   
@<TRIPOS>SET

