#    Name: 2gz7_D3F_1_INTS_M
#    Modification time : Tue Mar 25 15:16:01 2014

@<TRIPOS>MOLECULE
2gz7_D3F_1_INTS_M
   46     0     3     0     0
SMALL
NO_CHARGES


@<TRIPOS>ATOM
      1 CA        -24.8850  -45.9030    5.1860 C.3       1 GLC5        0.0000 
      2 CA        -23.3970  -45.4080    3.6950 C.3       3 GLL5        0.0000 
      3 CA        -26.3730  -46.3980    6.6770 C.3       2 GLP5        0.0000 
      4 CA        -21.3645  -44.3245    6.7820 C.3       1 GLC5        0.0000 
      5 CA        -23.3000  -44.8010    5.9990 C.3       3 GLL5        0.0000 
      6 CA        -19.4290  -43.8480    7.5650 C.3       2 GLP5        0.0000 
      7 CA        -21.9550  -47.0285    7.7430 C.3       1 GLC5        0.0000 
      8 CA        -22.9010  -45.1640    7.4390 C.3       3 GLL5        0.0000 
      9 CA        -21.0090  -48.8930    8.0470 C.3       2 GLP5        0.0000 
     10 CA        -21.4585  -44.4950    8.2155 C.3       1 GLC5        0.0000 
     11 CA        -20.0160  -43.8260    8.9920 C.3       2 GLP5        0.0000 
     12 CA        -23.1725  -35.1735    8.1870 C.3       1 GLC5        0.0000 
     13 CA        -24.7940  -35.8630    7.0910 C.3       3 GLL5        0.0000 
     14 CA        -21.5510  -34.4840    9.2830 C.3       2 GLP5        0.0000 
     15 CA        -28.0100  -37.5905    8.2575 C.3       1 GLC5        0.0000 
     16 CA        -26.2530  -36.8170    8.4450 C.3       3 GLL5        0.0000 
     17 CA        -29.7670  -38.3640    8.0700 C.3       2 GLP5        0.0000 
     18 CA        -28.1320  -36.0405    9.3640 C.3       1 GLC5        0.0000 
     19 CA        -30.0110  -35.2640   10.2830 C.3       2 GLP5        0.0000 
     20 CA        -22.8330  -35.8105    8.9955 C.3       1 GLC5        0.0000 
     21 CA        -24.1150  -37.1370    8.7080 C.3       3 GLL5        0.0000 
     22 CA        -22.3475  -48.5240    4.3750 C.3       1 GLC5        0.0000 
     23 CA        -22.0230  -47.0860    5.2810 C.3       3 GLL5        0.0000 
     24 CA        -22.6720  -49.9620    3.4690 C.3       2 GLP5        0.0000 
     25 CA        -21.5160  -47.9895    6.6640 C.3       1 GLC5        0.0000 
     26 CA        -23.6980  -47.2005    6.3000 C.3       1 GLC5        0.0000 
     27 CA        -25.3730  -47.3150    7.3190 C.3       2 GLP5        0.0000 
     28 CA        -20.6710  -46.4465    4.5800 C.3       1 GLC5        0.0000 
     29 CA        -19.3190  -45.8070    3.8790 C.3       2 GLP5        0.0000 
     30 CA        -21.2517  -45.6770    4.1052 C.3       1 GLC5        0.0000 
     31 CA        -22.9720  -45.6860    4.9680 C.3       3 GLL5        0.0000 
     32 CA        -25.2833  -44.9390    5.8567 C.3       1 GLC5        0.0000 
     33 CA        -23.9920  -43.6380    5.6900 C.3       3 GLL5        0.0000 
     34 CA        -24.1958  -46.2594    6.8901 C.3       1 GLC5        0.0000 
     35 CA        -23.2800  -39.8042    6.0690 C.3       1 GLC5        0.0000 
     36 CA        -25.1290  -40.4510    5.1270 C.3       3 GLL5        0.0000 
     37 CA        -21.5310  -39.8050    7.2610 C.3       2 GLP5        0.0000 
     38 CA        -23.6437  -40.3122    7.6943 C.3       1 GLC5        0.0000 
     39 CA        -25.2910  -40.5770    6.5120 C.3       3 GLL5        0.0000 
     40 CA        -22.0000  -40.6010    8.4510 C.3       2 GLP5        0.0000 
     41 CA        -23.2710  -38.9615    6.7127 C.3       1 GLC5        0.0000 
     42 CA        -25.1020  -38.1880    6.8510 C.3       3 GLL5        0.0000 
     43 CA        -23.4562  -38.3225    9.0780 C.3       1 GLC5        0.0000 
     44 CA        -22.3150  -39.5920    9.9060 C.3       2 GLP5        0.0000 
     45 CA        -25.0675  -35.9089    9.7438 C.3       1 GLC5        0.0000 
     46 CA        -25.2800  -34.9410   11.1620 C.3       2 GLP5        0.0000 
@<TRIPOS>BOND
@<TRIPOS>SUBSTRUCTURE
     1 GLC5        1 GROUP        1 X    GLC  0     ROOT GLC X 6
     2 GLP5        3 GROUP        1 Y    GLP  0     ROOT GLP Y 13
     3 GLL5        2 GROUP        1 Z    GLL  0     ROOT GLL Z 20
@<TRIPOS>SET

