#    Name: 2gz7_D3F_1_ligand
#    Modification time : Tue Mar 25 15:16:01 2014

@<TRIPOS>MOLECULE
2gz7_D3F_1_ligand
   35    36     1     0     0
SMALL
NO_CHARGES


@<TRIPOS>ATOM
      1 C1        -22.9720  -45.6860    4.9680 C.ar      1 D3F307      0.0000 
      2 C2        -23.3970  -45.4080    3.6950 C.ar      1 D3F307      0.0000 
      3 C3        -24.0820  -44.2520    3.4050 C.ar      1 D3F307      0.0000 
      4 C4        -24.3950  -43.3220    4.3830 C.ar      1 D3F307      0.0000 
      5 C5        -23.9920  -43.6380    5.6900 C.ar      1 D3F307      0.0000 
      6 C6        -23.3000  -44.8010    5.9990 C.ar      1 D3F307      0.0000 
      7 C7        -22.9010  -45.1640    7.4390 C.3       1 D3F307      0.0000 
      8 S1        -25.2470  -41.8360    4.0400 S.o2      1 D3F307      0.0000 
      9 O1        -26.7040  -42.2010    3.8130 O.2       1 D3F307      0.0000 
     10 O2        -24.7050  -41.4140    2.6720 O.2       1 D3F307      0.0000 
     11 C8        -25.1290  -40.4510    5.1270 C.ar      1 D3F307      0.0000 
     12 C9        -25.2910  -40.5770    6.5120 C.ar      1 D3F307      0.0000 
     13 C10       -25.2840  -39.4700    7.3630 C.ar      1 D3F307      0.0000 
     14 C11       -25.1020  -38.1880    6.8510 C.ar      1 D3F307      0.0000 
     15 C12       -24.9200  -38.0480    5.4780 C.ar      1 D3F307      0.0000 
     16 C13       -24.9290  -39.1560    4.6270 C.ar      1 D3F307      0.0000 
     17 N1        -24.7270  -38.9480    3.3210 N.pl3     1 D3F307      0.0000 
     18 O3        -25.8380  -38.9730    2.4170 O.2       1 D3F307      0.0000 
     19 O4        -23.4020  -38.6880    2.8340 O.2       1 D3F307      0.0000 
     20 C14       -25.0800  -36.9690    7.7920 C.3       1 D3F307      0.0000 
     21 F1        -24.7940  -35.8630    7.0910 F         1 D3F307      0.0000 
     22 F2        -26.2530  -36.8170    8.4450 F         1 D3F307      0.0000 
     23 F3        -24.1150  -37.1370    8.7080 F         1 D3F307      0.0000 
     24 N2        -25.4380  -41.7700    7.0830 N.pl3     1 D3F307      0.0000 
     25 O5        -26.6830  -42.4590    6.9510 O.2       1 D3F307      0.0000 
     26 O6        -24.3480  -42.3630    7.7950 O.2       1 D3F307      0.0000 
     27 CL1       -24.8170  -43.8210    2.1090 Cl        1 D3F307      0.0000 
     28 CL2       -22.0230  -47.0860    5.2810 Cl        1 D3F307      0.0000 
     29 H         -23.1971  -46.0875    2.9280 H         1 D3F307      0.0000 
     30 H         -24.2253  -42.9668    6.4563 H         1 D3F307      0.0000 
     31 H         -25.4145  -39.6044    8.3759 H         1 D3F307      0.0000 
     32 H         -24.7747  -37.1035    5.0768 H         1 D3F307      0.0000 
     33 H         -21.9109  -45.2656    7.5356 H         1 D3F307      0.0000 
     34 H         -23.1888  -44.4634    8.0920 H         1 D3F307      0.0000 
     35 H         -23.3142  -46.0260    7.7328 H         1 D3F307      0.0000 
@<TRIPOS>BOND
     1    2    1 ar   
     2    6    1 ar   
     3   28    1 1    
     4    3    2 ar   
     5   29    2 1    
     6    4    3 ar   
     7   27    3 1    
     8    5    4 ar   
     9    8    4 1    
    10    6    5 ar   
    11   30    5 1    
    12    7    6 1    
    13   33    7 1    
    14   34    7 1    
    15   35    7 1    
    16    9    8 2    
    17   10    8 2    
    18   11    8 1    
    19   12   11 ar   
    20   16   11 ar   
    21   13   12 ar   
    22   24   12 1    
    23   14   13 ar   
    24   31   13 1    
    25   15   14 ar   
    26   20   14 1    
    27   16   15 ar   
    28   32   15 1    
    29   17   16 1    
    30   18   17 2    
    31   19   17 2    
    32   21   20 1    
    33   22   20 1    
    34   23   20 1    
    35   25   24 2    
    36   26   24 2    
@<TRIPOS>SUBSTRUCTURE
     1 D3F307      1 GROUP   
@<TRIPOS>SET

