#    Name: 2zfm_ADP_1_INTS_M
#    Modification time : Mon Apr  7 18:44:14 2014

@<TRIPOS>MOLECULE
2zfm_ADP_1_INTS_M
   48     0     9     0     0
SMALL
NO_CHARGES


@<TRIPOS>ATOM
      1 NZ         -4.9605   22.9475    7.3870 N.4       2 LYC4        0.0000 
      2 NZ         -5.4600   21.4470    6.8090 N.4       8 LYL4        0.0000 
      3 NZ         -4.4610   24.4480    7.9650 N.4       5 LYP4        0.0000 
      4 N          -5.4790   21.9240    5.6380 N.am      1 SEC2        0.0000 
      5 N          -5.4600   21.4470    6.8090 N.am      7 SEL2        0.0000 
      6 N          -5.4980   22.4010    4.4670 N.am      4 SEP2        0.0000 
      7 N          -4.9605   22.9475    7.3870 N.am      1 SEC2        0.0000 
      8 N          -4.4610   24.4480    7.9650 N.am      4 SEP2        0.0000 
      9 NZ         -3.7600   23.2445    7.5400 N.4       2 LYC4        0.0000 
     10 NZ         -3.0590   22.0410    7.1150 N.4       8 LYL4        0.0000 
     11 N          -2.9470   22.3680    5.6230 N.am      1 SEC2        0.0000 
     12 N          -3.0590   22.0410    7.1150 N.am      7 SEL2        0.0000 
     13 N          -2.8350   22.6950    4.1310 N.am      4 SEP2        0.0000 
     14 N          -1.9725   21.8600    6.3835 N.am      1 SEC2        0.0000 
     15 N          -0.8860   21.6790    5.6520 N.am      4 SEP2        0.0000 
     16 N          -1.9525   21.8955    7.7375 N.am      1 SEC2        0.0000 
     17 N          -0.8460   21.7500    8.3600 N.am      4 SEP2        0.0000 
     18 N          -3.7600   23.2445    7.5400 N.am      1 SEC2        0.0000 
     19 NZ         -4.3135   22.5035    8.3400 N.4       2 LYC4        0.0000 
     20 NZ         -4.1660   20.5590    8.7150 N.4       8 LYL4        0.0000 
     21 N          -3.0695   20.2390    9.5530 N.am      1 SEC2        0.0000 
     22 N          -4.1660   20.5590    8.7150 N.am      7 SEL2        0.0000 
     23 N          -1.9730   19.9190   10.3910 N.am      4 SEP2        0.0000 
     24 N          -1.2975   18.0240    8.8275 N.am      1 SEC2        0.0000 
     25 N          -2.0220   18.4880    7.7860 N.am      7 SEL2        0.0000 
     26 N          -0.5730   17.5600    9.8690 N.am      4 SEP2        0.0000 
     27 CA         -3.7350   19.6570    3.8900 C.3       3 GLC5        0.0000 
     28 CA         -2.6380   17.8770    4.1740 C.3       9 GLL5        0.0000 
     29 CA         -4.8320   21.4370    3.6060 C.3       6 GLP5        0.0000 
     30 CA          0.6165   14.6330    5.7595 C.3       3 GLC5        0.0000 
     31 CA         -0.4060   14.9440    3.8520 C.3       9 GLL5        0.0000 
     32 CA          1.6390   14.3220    7.6670 C.3       6 GLP5        0.0000 
     33 CA          0.4525   18.0815    2.4070 C.3       3 GLC5        0.0000 
     34 CA          0.2120   16.1200    3.0340 C.3       9 GLL5        0.0000 
     35 CA          0.6930   20.0430    1.7800 C.3       6 GLP5        0.0000 
     36 CA          6.6600   17.9145    4.1575 C.3       3 GLC5        0.0000 
     37 CA          4.8850   16.8330    4.6070 C.3       9 GLL5        0.0000 
     38 CA          8.4350   18.9960    3.7080 C.3       6 GLP5        0.0000 
     39 N           6.5145   15.2000    4.2165 N.am      1 SEC2        0.0000 
     40 N           5.2890   15.5950    4.1260 N.am      7 SEL2        0.0000 
     41 N           7.7400   14.8050    4.3070 N.am      4 SEP2        0.0000 
     42 CA          4.4880   16.0850    2.0820 C.3       3 GLC5        0.0000 
     43 CA          4.3670   14.7710    3.5120 C.3       9 GLL5        0.0000 
     44 CA          4.6090   17.3990    0.6520 C.3       6 GLP5        0.0000 
     45 CA          3.3069   18.2806    3.1255 C.3       3 GLC5        0.0000 
     46 CA          3.4920   17.1700    4.4130 C.3       9 GLL5        0.0000 
     47 CA          3.1810   19.9520    2.1150 C.3       6 GLP5        0.0000 
     48 CA          4.0209   17.0041    2.3940 C.3       3 GLC5        0.0000 
@<TRIPOS>BOND
@<TRIPOS>SUBSTRUCTURE
     1 SEC2        4 GROUP        1 X    SEC  0     ROOT SEC X 2
     2 LYC4        1 GROUP        1 X    LYC  0     **** LYC X 4
     3 GLC5       27 GROUP        1 X    GLC  0     **** GLC X 6
     4 SEP2        6 GROUP        1 Y    SEP  0     ROOT SEP Y 9
     5 LYP4        3 GROUP        1 Y    LYP  0     **** LYP Y 11
     6 GLP5       29 GROUP        1 Y    GLP  0     **** GLP Y 13
     7 SEL2        5 GROUP        1 Z    SEL  0     ROOT SEL Z 16
     8 LYL4        2 GROUP        1 Z    LYL  0     **** LYL Z 18
     9 GLL5       28 GROUP        1 Z    GLL  0     **** GLL Z 20
@<TRIPOS>SET

