#    Name: 2zfm_ADP_1_ligand
#    Modification time : Mon Apr  7 18:44:14 2014

@<TRIPOS>MOLECULE
2zfm_ADP_1_ligand
   39    41     1     0     0
SMALL
NO_CHARGES


@<TRIPOS>ATOM
      1 PB         -4.1220   20.9820    7.2760 P.3       1 ADP2000     0.0000 
      2 O1B        -5.4600   21.4470    6.8090 O.co2     1 ADP2000     0.0000 
      3 O2B        -3.0590   22.0410    7.1150 O.co2     1 ADP2000     0.0000 
      4 O3B        -4.1660   20.5590    8.7150 O.co2     1 ADP2000     0.0000 
      5 PA         -2.8390   18.4640    6.5170 P.3       1 ADP2000     0.0000 
      6 O1A        -2.0220   18.4880    7.7860 O.co2     1 ADP2000     0.0000 
      7 O2A        -3.7620   17.2860    6.5290 O.co2     1 ADP2000     0.0000 
      8 O3A        -3.7600   19.7430    6.3540 O.3       1 ADP2000     0.0000 
      9 O5'        -1.8980   18.3560    5.2880 O.3       1 ADP2000     0.0000 
     10 C5'        -2.6380   17.8770    4.1740 C.3       1 ADP2000     0.0000 
     11 C4'        -2.0350   16.7100    3.4400 C.3       1 ADP2000     0.0000 
     12 O4'        -0.7890   17.0440    2.8700 O.3       1 ADP2000     0.0000 
     13 C3'        -1.8700   15.3900    4.2060 C.3       1 ADP2000     0.0000 
     14 O3'        -2.9630   14.5030    3.8470 O.3       1 ADP2000     0.0000 
     15 C2'        -0.4060   14.9440    3.8520 C.3       1 ADP2000     0.0000 
     16 O2'        -0.3580   13.6800    3.1190 O.3       1 ADP2000     0.0000 
     17 C1'         0.2120   16.1200    3.0340 C.3       1 ADP2000     0.0000 
     18 N9          1.3950   16.7910    3.6590 N.pl3     1 ADP2000     0.0000 
     19 C8          1.4920   18.0150    4.2710 C.2       1 ADP2000     0.0000 
     20 N7          2.7470   18.3010    4.7470 N.2       1 ADP2000     0.0000 
     21 C5          3.4920   17.1700    4.4130 C.ar      1 ADP2000     0.0000 
     22 C6          4.8850   16.8330    4.6070 C.ar      1 ADP2000     0.0000 
     23 N6          5.7970   17.6220    5.2010 N.pl3     1 ADP2000     0.0000 
     24 N1          5.2890   15.5950    4.1260 N.ar      1 ADP2000     0.0000 
     25 C2          4.3670   14.7710    3.5120 C.ar      1 ADP2000     0.0000 
     26 N3          3.0780   14.9920    3.2920 N.ar      1 ADP2000     0.0000 
     27 C4          2.6770   16.2170    3.7620 C.ar      1 ADP2000     0.0000 
     28 H          -2.8046   18.6983    3.4231 H         1 ADP2000     0.0000 
     29 H          -3.6780   17.5796    4.4842 H         1 ADP2000     0.0000 
     30 H          -2.7367   16.4661    2.5808 H         1 ADP2000     0.0000 
     31 H          -1.8774   15.6556    5.2562 H         1 ADP2000     0.0000 
     32 H           0.1378   14.8922    4.7855 H         1 ADP2000     0.0000 
     33 H           0.5080   15.7022    2.0673 H         1 ADP2000     0.0000 
     34 H           0.7239   18.6378    4.3615 H         1 ADP2000     0.0000 
     35 H           6.7216   17.2481    5.2739 H         1 ADP2000     0.0000 
     36 H           5.4695   18.5124    5.5169 H         1 ADP2000     0.0000 
     37 H           4.7747   13.8088    3.1667 H         1 ADP2000     0.0000 
     38 H          -3.3168   14.1627    4.7183 H         1 ADP2000     0.0000 
     39 H          -1.3107   13.3833    3.0522 H         1 ADP2000     0.0000 
@<TRIPOS>BOND
     1    2    1 ar   
     2    3    1 ar   
     3    4    1 ar   
     4    8    1 1    
     5    6    5 ar   
     6    7    5 ar   
     7    8    5 1    
     8    9    5 1    
     9   10    9 1    
    10   11   10 1    
    11   28   10 1    
    12   29   10 1    
    13   12   11 1    
    14   13   11 1    
    15   30   11 1    
    16   17   12 1    
    17   14   13 1    
    18   15   13 1    
    19   31   13 1    
    20   38   14 1    
    21   16   15 1    
    22   17   15 1    
    23   32   15 1    
    24   39   16 1    
    25   18   17 1    
    26   33   17 1    
    27   19   18 1    
    28   27   18 1    
    29   20   19 2    
    30   34   19 1    
    31   21   20 1    
    32   22   21 ar   
    33   27   21 ar   
    34   23   22 1    
    35   24   22 ar   
    36   35   23 1    
    37   36   23 1    
    38   25   24 ar   
    39   26   25 ar   
    40   37   25 1    
    41   27   26 ar   
@<TRIPOS>SUBSTRUCTURE
     1 ADP2000     1 GROUP   
@<TRIPOS>SET

