#    Name: 3fq0_N22_1_INTS_M
#    Modification time : Tue Mar 25 06:13:55 2014

@<TRIPOS>MOLECULE
3fq0_N22_1_INTS_M
   73     0     9     0     0
SMALL
NO_CHARGES


@<TRIPOS>ATOM
      1 CA        -32.6065   -8.6060   42.3280 C.3       3 GLC5        0.0000 
      2 CA        -30.8900   -8.9080   42.2580 C.3       9 GLL5        0.0000 
      3 CA        -34.3230   -8.3040   42.3980 C.3       6 GLP5        0.0000 
      4 CA        -30.4220   -8.1845   40.4025 C.3       3 GLC5        0.0000 
      5 CA        -29.9540   -7.4610   38.5470 C.3       6 GLP5        0.0000 
      6 CA        -26.8950   -8.0660   42.6475 C.3       3 GLC5        0.0000 
      7 CA        -28.4570   -9.2640   41.7030 C.3       9 GLL5        0.0000 
      8 CA        -25.3330   -6.8680   43.5920 C.3       6 GLP5        0.0000 
      9 N         -28.3805   -7.0105   41.9775 N.am      2 SEC2        0.0000 
     10 N         -27.9680   -8.0830   41.3040 N.am      8 SEL2        0.0000 
     11 N         -28.7930   -5.9380   42.6510 N.am      5 SEP2        0.0000 
     12 CA        -26.7450   -8.4280   38.1830 C.3       3 GLC5        0.0000 
     13 CA        -27.0410   -8.0040   40.3400 C.3       9 GLL5        0.0000 
     14 CA        -26.4490   -8.8520   36.0260 C.3       6 GLP5        0.0000 
     15 CA        -25.1680   -8.6090   40.1240 C.3       3 GLC5        0.0000 
     16 CA        -23.2950   -9.2140   39.9080 C.3       6 GLP5        0.0000 
     17 CA        -26.1870   -7.4360   41.9660 C.3       3 GLC5        0.0000 
     18 CA        -28.4975   -7.7325   39.4435 C.3       3 GLC5        0.0000 
     19 O         -27.2875   -5.6270   40.6250 O.2       1 ALC1        0.0000 
     20 O         -26.6060   -6.8000   39.9970 O.2       7 ALL1        0.0000 
     21 O         -27.9690   -4.4540   41.2530 O.2       4 ALP1        0.0000 
     22 CA        -26.7350   -9.5870   38.0525 C.3       3 GLC5        0.0000 
     23 CA        -27.0210  -10.3220   40.0790 C.3       9 GLL5        0.0000 
     24 CA        -25.1580   -9.7680   39.9935 C.3       3 GLC5        0.0000 
     25 O         -25.3480  -11.1890   38.7135 O.2       1 ALC1        0.0000 
     26 O         -26.5350  -11.4000   39.4820 O.2       7 ALL1        0.0000 
     27 O         -24.1610  -10.9780   37.9450 O.2       4 ALP1        0.0000 
     28 CA        -29.0575  -15.7820   41.9150 C.3       3 GLC5        0.0000 
     29 CA        -29.5110  -13.9990   42.3280 C.3       9 GLL5        0.0000 
     30 CA        -28.6040  -17.5650   41.5020 C.3       6 GLP5        0.0000 
     31 CA        -30.9045  -15.2775   41.5020 C.3       3 GLC5        0.0000 
     32 CA        -32.2980  -16.5560   40.6760 C.3       6 GLP5        0.0000 
     33 CA        -29.8755  -13.9265   40.4655 C.3       3 GLC5        0.0000 
     34 CA        -30.2400  -13.8540   38.6030 C.3       6 GLP5        0.0000 
     35 CA        -27.7900  -14.4015   42.2680 C.3       3 GLC5        0.0000 
     36 CA        -26.0690  -14.8040   42.2080 C.3       6 GLP5        0.0000 
     37 CA        -34.2250  -10.1365   41.8085 C.3       3 GLC5        0.0000 
     38 CA        -34.1270  -11.9690   41.2190 C.3       9 GLL5        0.0000 
     39 CA        -35.1790  -12.6575   39.8915 C.3       3 GLC5        0.0000 
     40 CA        -36.2310  -13.3460   38.5640 C.3       6 GLP5        0.0000 
     41 CA        -30.1420  -15.5375   48.0225 C.3       3 GLC5        0.0000 
     42 CA        -30.4430  -15.4990   46.1620 C.3       9 GLL5        0.0000 
     43 CA        -29.8410  -15.5760   49.8830 C.3       6 GLP5        0.0000 
     44 CA        -30.1395  -13.5190   46.4455 C.3       3 GLC5        0.0000 
     45 CA        -29.8360  -11.5390   46.7290 C.3       6 GLP5        0.0000 
     46 CA        -31.0145  -17.4210   46.2255 C.3       3 GLC5        0.0000 
     47 CA        -31.5860  -19.3430   46.2890 C.3       6 GLP5        0.0000 
     48 CA        -28.5365  -16.0145   46.2400 C.3       3 GLC5        0.0000 
     49 CA        -26.6300  -16.5300   46.3180 C.3       6 GLP5        0.0000 
     50 CA        -30.4865   -9.8205   44.2707 C.3       3 GLC5        0.0000 
     51 CA        -29.5140   -9.2540   42.8150 C.3       9 GLL5        0.0000 
     52 CA        -30.7710  -10.5600   46.0050 C.3       6 GLP5        0.0000 
     53 CA        -28.7875   -8.7707   39.6431 C.3       3 GLC5        0.0000 
     54 CA        -28.6425  -11.9947   43.8170 C.3       3 GLC5        0.0000 
     55 CA        -28.5090  -11.6700   41.5180 C.3       9 GLL5        0.0000 
     56 CA        -28.5500  -11.7950   45.9360 C.3       6 GLP5        0.0000 
     57 CA        -29.5035  -12.3312   40.0805 C.3       3 GLC5        0.0000 
     58 CA        -28.9610  -12.7190   41.8780 C.3       9 GLL5        0.0000 
     59 CA        -30.2720  -12.4680   38.4630 C.3       6 GLP5        0.0000 
     60 CA        -27.2805  -12.8133   42.0015 C.3       3 GLC5        0.0000 
     61 CA        -25.8260  -13.4320   42.3050 C.3       6 GLP5        0.0000 
     62 CA        -29.3678  -12.8460   44.3105 C.3       3 GLC5        0.0000 
     63 CA        -32.1572  -15.0087   42.4005 C.3       3 GLC5        0.0000 
     64 CA        -30.8600  -13.7950   43.0420 C.3       9 GLL5        0.0000 
     65 CA        -32.9900  -16.6730   42.0280 C.3       6 GLP5        0.0000 
     66 CA        -33.0913  -14.8490   42.8663 C.3       3 GLC5        0.0000 
     67 CA        -33.0340  -12.6820   43.1210 C.3       9 GLL5        0.0000 
     68 CA        -31.8261  -11.8190   44.7776 C.3       3 GLC5        0.0000 
     69 CA        -33.3510  -13.3680   44.2880 C.3       9 GLL5        0.0000 
     70 CA        -30.8268  -12.9550   45.6243 C.3       3 GLC5        0.0000 
     71 CA        -32.4350  -14.2640   44.8260 C.3       9 GLL5        0.0000 
     72 CA        -32.4038  -15.5220   43.2737 C.3       3 GLC5        0.0000 
     73 CA        -31.2000  -14.4780   44.2130 C.3       9 GLL5        0.0000 
@<TRIPOS>BOND
@<TRIPOS>SUBSTRUCTURE
     1 ALC1       19 GROUP        1 X    ALC  0     ROOT ALC X 1
     2 SEC2        9 GROUP        1 X    SEC  0     **** SEC X 2
     3 GLC5        1 GROUP        1 X    GLC  0     **** GLC X 6
     4 ALP1       21 GROUP        1 Y    ALP  0     ROOT ALP Y 8
     5 SEP2       11 GROUP        1 Y    SEP  0     **** SEP Y 9
     6 GLP5        3 GROUP        1 Y    GLP  0     **** GLP Y 13
     7 ALL1       20 GROUP        1 Z    ALL  0     ROOT ALL Z 15
     8 SEL2       10 GROUP        1 Z    SEL  0     **** SEL Z 16
     9 GLL5        2 GROUP        1 Z    GLL  0     **** GLL Z 20
@<TRIPOS>SET

