#    Name: 3fq0_N22_1_ligand
#    Modification time : Tue Mar 25 06:13:55 2014

@<TRIPOS>MOLECULE
3fq0_N22_1_ligand
   43    44     1     0     0
SMALL
NO_CHARGES


@<TRIPOS>ATOM
      1 C8        -30.8900   -8.9080   42.2580 C.3       1 N22219      0.0000 
      2 C7        -29.5140   -9.2540   42.8150 C.3       1 N22219      0.0000 
      3 C5        -28.4570   -9.2640   41.7030 C.ar      1 N22219      0.0000 
      4 N4        -27.9680   -8.0830   41.3040 N.ar      1 N22219      0.0000 
      5 C3        -27.0410   -8.0040   40.3400 C.ar      1 N22219      0.0000 
      6 N8        -26.6060   -6.8000   39.9970 N.pl3     1 N22219      0.0000 
      7 N2        -26.5730   -9.1110   39.7290 N.ar      1 N22219      0.0000 
      8 C1        -27.0210  -10.3220   40.0790 C.ar      1 N22219      0.0000 
      9 N7        -26.5350  -11.4000   39.4820 N.pl3     1 N22219      0.0000 
     10 C6        -27.9850  -10.4140   41.0960 C.ar      1 N22219      0.0000 
     11 C9        -28.5090  -11.6700   41.5180 C.1       1 N22219      0.0000 
     12 C10       -28.9610  -12.7190   41.8780 C.1       1 N22219      0.0000 
     13 C11       -29.5110  -13.9990   42.3280 C.3       1 N22219      0.0000 
     14 C13       -30.8600  -13.7950   43.0420 C.ar      1 N22219      0.0000 
     15 C18       -31.7890  -12.8940   42.5040 C.ar      1 N22219      0.0000 
     16 C17       -33.0340  -12.6820   43.1210 C.ar      1 N22219      0.0000 
     17 O2        -33.9500  -11.8030   42.6190 O.3       1 N22219      0.0000 
     18 C4        -34.1270  -11.9690   41.2190 C.3       1 N22219      0.0000 
     19 C16       -33.3510  -13.3680   44.2880 C.ar      1 N22219      0.0000 
     20 C15       -32.4350  -14.2640   44.8260 C.ar      1 N22219      0.0000 
     21 C14       -31.2000  -14.4780   44.2130 C.ar      1 N22219      0.0000 
     22 O10       -30.3070  -15.3630   44.7420 O.3       1 N22219      0.0000 
     23 C2        -30.4430  -15.4990   46.1620 C.3       1 N22219      0.0000 
     24 H         -29.5486  -10.2379   43.2810 H         1 N22219      0.0000 
     25 H         -29.2318   -8.5180   43.5667 H         1 N22219      0.0000 
     26 H         -26.9692   -6.0335   40.5266 H         1 N22219      0.0000 
     27 H         -25.9539   -6.7670   39.2395 H         1 N22219      0.0000 
     28 H         -25.5748  -11.3551   39.2063 H         1 N22219      0.0000 
     29 H         -27.1723  -12.1611   39.3611 H         1 N22219      0.0000 
     30 H         -28.8301  -14.4938   43.0284 H         1 N22219      0.0000 
     31 H         -29.6759  -14.6741   41.4818 H         1 N22219      0.0000 
     32 H         -31.5572  -12.3776   41.6419 H         1 N22219      0.0000 
     33 H         -34.2540  -13.2138   44.7481 H         1 N22219      0.0000 
     34 H         -32.6691  -14.7793   45.6906 H         1 N22219      0.0000 
     35 H         -30.9004   -8.0052   41.8281 H         1 N22219      0.0000 
     36 H         -31.1865   -9.5657   41.5656 H         1 N22219      0.0000 
     37 H         -31.5889   -8.9002   42.9732 H         1 N22219      0.0000 
     38 H         -33.2744  -11.8237   40.7171 H         1 N22219      0.0000 
     39 H         -34.4480  -12.8884   40.9917 H         1 N22219      0.0000 
     40 H         -34.7974  -11.3250   40.8505 H         1 N22219      0.0000 
     41 H         -29.7839  -16.1505   46.5375 H         1 N22219      0.0000 
     42 H         -30.2972  -14.6296   46.6340 H         1 N22219      0.0000 
     43 H         -31.3537  -15.8226   46.4186 H         1 N22219      0.0000 
@<TRIPOS>BOND
     1    2    1 1    
     2   35    1 1    
     3   36    1 1    
     4   37    1 1    
     5    3    2 1    
     6   24    2 1    
     7   25    2 1    
     8    4    3 ar   
     9   10    3 ar   
    10    5    4 ar   
    11    6    5 1    
    12    7    5 ar   
    13   26    6 1    
    14   27    6 1    
    15    8    7 ar   
    16    9    8 1    
    17   10    8 ar   
    18   28    9 1    
    19   29    9 1    
    20   11   10 1    
    21   12   11 3    
    22   13   12 1    
    23   14   13 1    
    24   30   13 1    
    25   31   13 1    
    26   15   14 ar   
    27   21   14 ar   
    28   16   15 ar   
    29   32   15 1    
    30   17   16 1    
    31   19   16 ar   
    32   18   17 1    
    33   38   18 1    
    34   39   18 1    
    35   40   18 1    
    36   20   19 ar   
    37   33   19 1    
    38   21   20 ar   
    39   34   20 1    
    40   22   21 1    
    41   23   22 1    
    42   41   23 1    
    43   42   23 1    
    44   43   23 1    
@<TRIPOS>SUBSTRUCTURE
     1 N22219      1 GROUP   
@<TRIPOS>SET

