#    Name: 2hrb_NAP_1_INTS_M
#    Modification time : Tue Mar 25 16:56:45 2014

@<TRIPOS>MOLECULE
2hrb_NAP_1_INTS_M
  101     0    12     0     0
SMALL
NO_CHARGES


@<TRIPOS>ATOM
      1 CA         10.3660   25.9300   11.8535 C.3       4 GLC5        0.0000 
      2 CA         10.8160   24.5970   13.3140 C.3      12 GLL5        0.0000 
      3 CA          9.9160   27.2630   10.3930 C.3       8 GLP5        0.0000 
      4 O           8.3300   25.3640   13.6875 O.2       1 ALC1        0.0000 
      5 O           9.3930   24.6330   13.2130 O.2       9 ALL1        0.0000 
      6 O           7.2670   26.0950   14.1620 O.2       5 ALP1        0.0000 
      7 CA          9.5845   22.3950   14.6810 C.3       4 GLC5        0.0000 
      8 CA         11.1220   23.2000   15.1320 C.3      12 GLL5        0.0000 
      9 CA          8.0470   21.5900   14.2300 C.3       8 GLP5        0.0000 
     10 CA         10.8925   21.1680   15.6175 C.3       4 GLC5        0.0000 
     11 CA         10.6630   19.1360   16.1030 C.3       8 GLP5        0.0000 
     12 CA         11.3025   19.8915   19.9735 C.3       4 GLC5        0.0000 
     13 CA         11.4810   21.8550   19.7630 C.3      12 GLL5        0.0000 
     14 CA         11.1240   17.9280   20.1840 C.3       8 GLP5        0.0000 
     15 O          11.4630   21.8280   22.0600 O.2       1 ALC1        0.0000 
     16 O          12.2980   21.6660   20.8250 O.2       9 ALL1        0.0000 
     17 O          10.6280   21.9900   23.2950 O.2       5 ALP1        0.0000 
     18 N           9.5915   20.6005   20.9295 N.am      2 SEC2        0.0000 
     19 N          10.1230   21.6100   19.8830 N.am     10 SEL2        0.0000 
     20 N           9.0600   19.5910   21.9760 N.am      6 SEP2        0.0000 
     21 CA          8.7390   23.3835   19.7130 C.3       4 GLC5        0.0000 
     22 CA          9.2430   21.8130   18.8390 C.3      12 GLL5        0.0000 
     23 CA          8.2350   24.9540   20.5870 C.3       8 GLP5        0.0000 
     24 CA          8.5495   21.7215   20.6950 C.3       4 GLC5        0.0000 
     25 CA          7.8560   21.6300   22.5510 C.3       8 GLP5        0.0000 
     26 CA          8.9315   19.7455   19.3040 C.3       4 GLC5        0.0000 
     27 CA          8.6200   17.6780   19.7690 C.3       8 GLP5        0.0000 
     28 CA          9.9530   20.4745   17.4710 C.3       4 GLC5        0.0000 
     29 N          11.2725   22.3230    6.7885 N.am      2 SEC2        0.0000 
     30 N          12.4150   22.2990    7.5040 N.am     10 SEL2        0.0000 
     31 N          10.1300   22.3470    6.0730 N.am      6 SEP2        0.0000 
     32 CA         12.9415   19.7645    6.8440 C.3       4 GLC5        0.0000 
     33 CA         12.8630   19.7580    8.8830 C.3      12 GLL5        0.0000 
     34 CA         13.0200   19.7710    4.8050 C.3       8 GLP5        0.0000 
     35 N          15.3220   16.1860   11.5545 N.am      2 SEC2        0.0000 
     36 N          14.2800   17.1370   10.9400 N.am     10 SEL2        0.0000 
     37 N          16.3640   15.2350   12.1690 N.am      6 SEP2        0.0000 
     38 O          13.1260   17.4930   11.6015 O.2       1 ALC1        0.0000 
     39 O          14.2800   17.1370   10.9400 O.2       9 ALL1        0.0000 
     40 O          11.9720   17.8490   12.2630 O.2       5 ALP1        0.0000 
     41 CA         16.8040   16.7575   10.6540 C.3       4 GLC5        0.0000 
     42 CA         15.7900   18.3260    9.4700 C.3      12 GLL5        0.0000 
     43 CA         17.8180   15.1890   11.8380 C.3       8 GLP5        0.0000 
     44 N          18.0460   17.5955    9.8675 N.am      2 SEC2        0.0000 
     45 N          16.7950   17.7560   10.2910 N.am     10 SEL2        0.0000 
     46 N          19.2970   17.4350    9.4440 N.am      6 SEP2        0.0000 
     47 N          16.5795   16.4955   11.2300 N.am      2 SEC2        0.0000 
     48 CA         14.2310   16.2075    8.2875 C.3       4 GLC5        0.0000 
     49 CA         15.4340   17.5210    8.2100 C.3      12 GLL5        0.0000 
     50 CA         13.0280   14.8940    8.3650 C.3       8 GLP5        0.0000 
     51 CA         14.7585   16.7195    6.5135 C.3       4 GLC5        0.0000 
     52 CA         14.0830   15.9180    4.8170 C.3       8 GLP5        0.0000 
     53 CA         16.2760   19.8265    3.2930 C.3       4 GLC5        0.0000 
     54 CA         17.0890   19.2070    5.2360 C.3      12 GLL5        0.0000 
     55 CA         15.4630   20.4460    1.3500 C.3       8 GLP5        0.0000 
     56 O          16.2675   23.0265    4.5660 O.2       1 ALC1        0.0000 
     57 O          16.2320   21.4990    4.8760 O.2       9 ALL1        0.0000 
     58 O          16.3030   24.5540    4.2560 O.2       5 ALP1        0.0000 
     59 NZ         10.9305   26.8760   18.0065 N.4       3 LYC4        0.0000 
     60 NZ         10.3440   27.6880   16.9880 N.4      11 LYL4        0.0000 
     61 NZ         12.8430   25.9980   19.1330 N.4       7 LYP4        0.0000 
     62 N          10.9305   26.8760   18.0065 N.am      2 SEC2        0.0000 
     63 N          10.3440   27.6880   16.9880 N.am     10 SEL2        0.0000 
     64 N          11.5170   26.0640   19.0250 N.am      6 SEP2        0.0000 
     65 NZ         11.0115   27.9845   13.2600 N.4       3 LYC4        0.0000 
     66 NZ         10.4630   27.9180   14.4850 N.4      11 LYL4        0.0000 
     67 NZ         12.8720   27.9820   11.8990 N.4       7 LYP4        0.0000 
     68 N           9.0995   27.9840   13.8210 N.am      2 SEC2        0.0000 
     69 N          10.4630   27.9180   14.4850 N.am     10 SEL2        0.0000 
     70 N           7.7360   28.0500   13.1570 N.am      6 SEP2        0.0000 
     71 N          11.0115   27.9845   13.2600 N.am      2 SEC2        0.0000 
     72 N          11.5600   28.0510   12.0350 N.am      6 SEP2        0.0000 
     73 N          10.7535   29.3075   14.5490 N.am      2 SEC2        0.0000 
     74 N          11.0440   30.6970   14.6130 N.am      6 SEP2        0.0000 
     75 NZ         13.0805   27.4035   14.2895 N.4       3 LYC4        0.0000 
     76 NZ         12.5080   27.2310   15.6700 N.4      11 LYL4        0.0000 
     77 NZ         13.0545   26.8765   16.9335 N.4       3 LYC4        0.0000 
     78 N          13.0805   27.4035   14.2895 N.am      2 SEC2        0.0000 
     79 N          12.5080   27.2310   15.6700 N.am     10 SEL2        0.0000 
     80 N          13.6530   27.5760   12.9090 N.am      6 SEP2        0.0000 
     81 N          13.0545   26.8765   16.9335 N.am      2 SEC2        0.0000 
     82 N          13.6010   26.5220   18.1970 N.am      6 SEP2        0.0000 
     83 CA          9.5540   22.7473   13.6528 C.3       4 GLC5        0.0000 
     84 CA         11.0840   20.7505   17.0523 C.3       4 GLC5        0.0000 
     85 CA         11.9590   22.2690   18.5190 C.3      12 GLL5        0.0000 
     86 CA         13.3270   20.6380   19.0545 C.3       4 GLC5        0.0000 
     87 CA         14.9340   19.2140   18.9680 C.3       8 GLP5        0.0000 
     88 CA         10.9922   23.8832   19.1642 C.3       4 GLC5        0.0000 
     89 CA         10.5990   25.5050   20.0160 C.3       8 GLP5        0.0000 
     90 CA         13.4810   16.6155    9.0090 C.3       4 GLC5        0.0000 
     91 CA         14.4560   18.3270   10.2110 C.3      12 GLL5        0.0000 
     92 CA         15.4125   18.3758   11.6973 C.3       4 GLC5        0.0000 
     93 CA         15.7020   18.4250   13.5540 C.3       8 GLP5        0.0000 
     94 CA         14.8637   19.4338    5.3125 C.3       4 GLC5        0.0000 
     95 CA         16.3260   18.9860    6.4040 C.3      12 GLL5        0.0000 
     96 CA         15.3952   17.5072    5.3185 C.3       4 GLC5        0.0000 
     97 CA         18.5662   15.4202    6.8060 C.3       4 GLC5        0.0000 
     98 CA         17.7110   16.8510    5.2820 C.3      12 GLL5        0.0000 
     99 CA         19.8080   14.0810    7.7450 C.3       8 GLP5        0.0000 
    100 CA         15.7125   16.4967    5.2656 C.3       4 GLC5        0.0000 
    101 CA         16.9380   16.6680    6.4520 C.3      12 GLL5        0.0000 
@<TRIPOS>BOND
@<TRIPOS>SUBSTRUCTURE
     1 ALC1        4 GROUP        1 X    ALC  0     ROOT ALC X 1
     2 SEC2       18 GROUP        1 X    SEC  0     **** SEC X 2
     3 LYC4       59 GROUP        1 X    LYC  0     **** LYC X 4
     4 GLC5        1 GROUP        1 X    GLC  0     **** GLC X 6
     5 ALP1        6 GROUP        1 Y    ALP  0     ROOT ALP Y 8
     6 SEP2       20 GROUP        1 Y    SEP  0     **** SEP Y 9
     7 LYP4       61 GROUP        1 Y    LYP  0     **** LYP Y 11
     8 GLP5        3 GROUP        1 Y    GLP  0     **** GLP Y 13
     9 ALL1        5 GROUP        1 Z    ALL  0     ROOT ALL Z 15
    10 SEL2       19 GROUP        1 Z    SEL  0     **** SEL Z 16
    11 LYL4       60 GROUP        1 Z    LYL  0     **** LYL Z 18
    12 GLL5        2 GROUP        1 Z    GLL  0     **** GLL Z 20
@<TRIPOS>SET

