#    Name: 2hrb_NAP_1_ligand
#    Modification time : Tue Mar 25 16:56:46 2014

@<TRIPOS>MOLECULE
2hrb_NAP_1_ligand
   73    77     1     0     0
SMALL
NO_CHARGES


@<TRIPOS>ATOM
      1 PA         13.8080   24.2780   10.0100 P.3       1 NAP1001     0.0000 
      2 O1A        13.4270   25.1360    8.8930 O.co2     1 NAP1001     0.0000 
      3 O2A        15.1030   24.6650   10.6670 O.co2     1 NAP1001     0.0000 
      4 O5B        12.5930   24.2010   11.0840 O.3       1 NAP1001     0.0000 
      5 C5B        12.6760   23.3010   12.1830 C.3       1 NAP1001     0.0000 
      6 C4B        11.3060   23.2120   12.8370 C.3       1 NAP1001     0.0000 
      7 O4B        11.5010   22.4490   13.9860 O.3       1 NAP1001     0.0000 
      8 C3B        10.8160   24.5970   13.3140 C.3       1 NAP1001     0.0000 
      9 O3B         9.3930   24.6330   13.2130 O.3       1 NAP1001     0.0000 
     10 C2B        11.3270   24.6740   14.7570 C.3       1 NAP1001     0.0000 
     11 O2B        10.6090   25.5900   15.5980 O.3       1 NAP1001     0.0000 
     12 C1B        11.1220   23.2000   15.1320 C.3       1 NAP1001     0.0000 
     13 N9A        11.7760   22.8700   16.4000 N.pl3     1 NAP1001     0.0000 
     14 C8A        13.1060   22.9690   16.7510 C.2       1 NAP1001     0.0000 
     15 N7A        13.1970   22.5660   18.0400 N.2       1 NAP1001     0.0000 
     16 C5A        11.9590   22.2690   18.5190 C.ar      1 NAP1001     0.0000 
     17 C6A        11.4810   21.8550   19.7630 C.ar      1 NAP1001     0.0000 
     18 N6A        12.2980   21.6660   20.8250 N.pl3     1 NAP1001     0.0000 
     19 N1A        10.1230   21.6100   19.8830 N.ar      1 NAP1001     0.0000 
     20 C2A         9.2430   21.8130   18.8390 C.ar      1 NAP1001     0.0000 
     21 N3A         9.7100   22.2460   17.6190 N.ar      1 NAP1001     0.0000 
     22 C4A        11.0510   22.4610   17.4840 C.ar      1 NAP1001     0.0000 
     23 O3         13.9730   22.7330    9.5390 O.3       1 NAP1001     0.0000 
     24 PN         13.8020   22.1040    8.0550 P.3       1 NAP1001     0.0000 
     25 O1N        14.9960   22.4850    7.2420 O.co2     1 NAP1001     0.0000 
     26 O2N        12.4150   22.2990    7.5040 O.co2     1 NAP1001     0.0000 
     27 O5D        13.9450   20.5450    8.4330 O.3       1 NAP1001     0.0000 
     28 C5D        12.8630   19.7580    8.8830 C.3       1 NAP1001     0.0000 
     29 C4D        13.4120   18.3470    9.0950 C.3       1 NAP1001     0.0000 
     30 O4D        14.0630   17.8440    7.9140 O.3       1 NAP1001     0.0000 
     31 C3D        14.4560   18.3270   10.2110 C.3       1 NAP1001     0.0000 
     32 O3D        14.2800   17.1370   10.9400 O.3       1 NAP1001     0.0000 
     33 C2D        15.7900   18.3260    9.4700 C.3       1 NAP1001     0.0000 
     34 O2D        16.7950   17.7560   10.2910 O.3       1 NAP1001     0.0000 
     35 C1D        15.4340   17.5210    8.2100 C.3       1 NAP1001     0.0000 
     36 N1N        16.2640   17.7420    7.0080 N.pl3     1 NAP1001     0.0000 
     37 C2N        16.3260   18.9860    6.4040 C.ar      1 NAP1001     0.0000 
     38 C3N        17.0890   19.2070    5.2360 C.ar      1 NAP1001     0.0000 
     39 C7N        17.1750   20.5940    4.6180 C.2       1 NAP1001     0.0000 
     40 O7N        18.2580   20.9510    3.7730 O.2       1 NAP1001     0.0000 
     41 N7N        16.2320   21.4990    4.8760 N.am      1 NAP1001     0.0000 
     42 C4N        17.7810   18.1150    4.6710 C.ar      1 NAP1001     0.0000 
     43 C5N        17.7110   16.8510    5.2820 C.ar      1 NAP1001     0.0000 
     44 C6N        16.9380   16.6680    6.4520 C.ar      1 NAP1001     0.0000 
     45 P2B        10.9860   27.1830   15.6950 P.3       1 NAP1001     0.0000 
     46 O1X        10.3440   27.6880   16.9880 O.co2     1 NAP1001     0.0000 
     47 O2X        10.4630   27.9180   14.4850 O.co2     1 NAP1001     0.0000 
     48 O3X        12.5080   27.2310   15.6700 O.co2     1 NAP1001     0.0000 
     49 H          13.3880   23.6429   12.9375 H         1 NAP1001     0.0000 
     50 H          12.9643   22.2961   11.8666 H         1 NAP1001     0.0000 
     51 H          10.6131   22.7970   12.1767 H         1 NAP1001     0.0000 
     52 H          11.3126   25.3250   12.7330 H         1 NAP1001     0.0000 
     53 H          12.3791   24.8349   14.7073 H         1 NAP1001     0.0000 
     54 H          10.0113   23.1079   15.2656 H         1 NAP1001     0.0000 
     55 H          13.8086   23.2638   16.1877 H         1 NAP1001     0.0000 
     56 H          13.2374   21.3955   20.6147 H         1 NAP1001     0.0000 
     57 H          11.8899   21.8136   21.7259 H         1 NAP1001     0.0000 
     58 H           8.2343   21.6394   18.9754 H         1 NAP1001     0.0000 
     59 H          12.0623   19.6955    8.1535 H         1 NAP1001     0.0000 
     60 H          12.4631   20.1034    9.8307 H         1 NAP1001     0.0000 
     61 H          12.6043   17.6964    9.3909 H         1 NAP1001     0.0000 
     62 H          14.3652   19.2055   10.7693 H         1 NAP1001     0.0000 
     63 H          15.9786   19.3329    9.1726 H         1 NAP1001     0.0000 
     64 H          15.4717   16.4557    8.4936 H         1 NAP1001     0.0000 
     65 H          15.8027   19.7847    6.8105 H         1 NAP1001     0.0000 
     66 H          15.4730   21.1922    5.4503 H         1 NAP1001     0.0000 
     67 H          16.3681   22.4037    4.4722 H         1 NAP1001     0.0000 
     68 H          18.3307   18.2449    3.8203 H         1 NAP1001     0.0000 
     69 H          18.2196   16.0583    4.8818 H         1 NAP1001     0.0000 
     70 H          16.8853   15.7374    6.8772 H         1 NAP1001     0.0000 
     71 H           9.0903   25.1558   14.0098 H         1 NAP1001     0.0000 
     72 H          13.4634   17.2925   11.4959 H         1 NAP1001     0.0000 
     73 H          16.3052   17.1451   10.9131 H         1 NAP1001     0.0000 
@<TRIPOS>BOND
     1    2    1 ar   
     2    3    1 ar   
     3    4    1 1    
     4   23    1 1    
     5    5    4 1    
     6    6    5 1    
     7   49    5 1    
     8   50    5 1    
     9    7    6 1    
    10    8    6 1    
    11   51    6 1    
    12   12    7 1    
    13    9    8 1    
    14   10    8 1    
    15   52    8 1    
    16   71    9 1    
    17   11   10 1    
    18   12   10 1    
    19   53   10 1    
    20   45   11 1    
    21   13   12 1    
    22   54   12 1    
    23   14   13 1    
    24   22   13 1    
    25   15   14 2    
    26   55   14 1    
    27   16   15 1    
    28   17   16 ar   
    29   22   16 ar   
    30   18   17 1    
    31   19   17 ar   
    32   56   18 1    
    33   57   18 1    
    34   20   19 ar   
    35   21   20 ar   
    36   58   20 1    
    37   22   21 ar   
    38   24   23 1    
    39   25   24 ar   
    40   26   24 ar   
    41   27   24 1    
    42   28   27 1    
    43   29   28 1    
    44   59   28 1    
    45   60   28 1    
    46   30   29 1    
    47   31   29 1    
    48   61   29 1    
    49   35   30 1    
    50   32   31 1    
    51   33   31 1    
    52   62   31 1    
    53   72   32 1    
    54   34   33 1    
    55   35   33 1    
    56   63   33 1    
    57   73   34 1    
    58   36   35 1    
    59   64   35 1    
    60   37   36 ar   
    61   44   36 ar   
    62   38   37 ar   
    63   65   37 1    
    64   39   38 1    
    65   42   38 ar   
    66   40   39 2    
    67   41   39 am   
    68   66   41 1    
    69   67   41 1    
    70   43   42 ar   
    71   68   42 1    
    72   44   43 ar   
    73   69   43 1    
    74   70   44 1    
    75   46   45 ar   
    76   47   45 ar   
    77   48   45 ar   
@<TRIPOS>SUBSTRUCTURE
     1 NAP1001     1 GROUP   
@<TRIPOS>SET

