#    Name: 2imp_NAI_1_INTS_M
#    Modification time : Tue Mar 25 18:22:50 2014

@<TRIPOS>MOLECULE
2imp_NAI_1_INTS_M
   79     0     9     0     0
SMALL
NO_CHARGES


@<TRIPOS>ATOM
      1 N          31.2690   29.5060   63.2220 N.am      2 SEC2        0.0000 
      2 N          31.3360   28.2780   64.1800 N.am      8 SEL2        0.0000 
      3 N          31.2020   30.7340   62.2640 N.am      5 SEP2        0.0000 
      4 N          30.2695   28.3555   63.2995 N.am      2 SEC2        0.0000 
      5 N          29.2030   28.4330   62.4190 N.am      5 SEP2        0.0000 
      6 CA         33.6750   30.1315   64.2440 C.3       3 GLC5        0.0000 
      7 CA         34.1950   28.3320   65.3950 C.3       9 GLL5        0.0000 
      8 CA         33.1550   31.9310   63.0930 C.3       6 GLP5        0.0000 
      9 CA         36.9405   26.1665   67.2335 C.3       3 GLC5        0.0000 
     10 CA         35.0230   26.7810   67.2880 C.3       9 GLL5        0.0000 
     11 CA         38.8580   25.5520   67.1790 C.3       6 GLP5        0.0000 
     12 N          36.0885   25.9165   69.4035 N.am      2 SEC2        0.0000 
     13 N          35.9060   27.0190   68.3810 N.am      8 SEL2        0.0000 
     14 N          36.2710   24.8140   70.4260 N.am      5 SEP2        0.0000 
     15 O          36.6765   27.8350   67.7450 O.2       1 ALC1        0.0000 
     16 O          35.9060   27.0190   68.3810 O.2       7 ALL1        0.0000 
     17 O          37.4470   28.6510   67.1090 O.2       4 ALP1        0.0000 
     18 N          35.2400   24.7705   69.4135 N.am      2 SEC2        0.0000 
     19 N          34.2090   24.7270   68.4010 N.am      8 SEL2        0.0000 
     20 O          35.1220   23.7600   67.7840 O.2       1 ALC1        0.0000 
     21 O          34.2090   24.7270   68.4010 O.2       7 ALL1        0.0000 
     22 O          36.0350   22.7930   67.1670 O.2       4 ALP1        0.0000 
     23 CA         27.6005   25.2565   71.6880 C.3       3 GLC5        0.0000 
     24 CA         28.2580   25.8140   69.6520 C.3       9 GLL5        0.0000 
     25 CA         26.9430   24.6990   73.7240 C.3       6 GLP5        0.0000 
     26 CA         26.2955   26.6165   69.3885 C.3       3 GLC5        0.0000 
     27 CA         24.3330   27.4190   69.1250 C.3       6 GLP5        0.0000 
     28 N          27.3050   26.5820   71.7765 N.am      2 SEC2        0.0000 
     29 N          28.4060   26.4130   70.9120 N.am      8 SEL2        0.0000 
     30 N          26.2040   26.7510   72.6410 N.am      5 SEP2        0.0000 
     31 CA         30.9830   28.4760   72.0520 C.3       3 GLC5        0.0000 
     32 CA         29.6260   26.9950   71.2840 C.3       9 GLL5        0.0000 
     33 CA         32.3400   29.9570   72.8200 C.3       6 GLP5        0.0000 
     34 CA         30.7205   25.2780   70.8250 C.3       3 GLC5        0.0000 
     35 CA         31.8150   23.5610   70.3660 C.3       6 GLP5        0.0000 
     36 CA         30.8885   26.5060   72.5370 C.3       3 GLC5        0.0000 
     37 CA         32.1510   26.0170   73.7900 C.3       6 GLP5        0.0000 
     38 CA         29.1340   26.4340   73.2485 C.3       3 GLC5        0.0000 
     39 CA         28.6420   25.8730   75.2130 C.3       6 GLP5        0.0000 
     40 CA         29.0565   28.6430   71.0135 C.3       3 GLC5        0.0000 
     41 CA         28.4870   30.2910   70.7430 C.3       6 GLP5        0.0000 
     42 N          32.1275   29.5425   62.3520 N.am      2 SEC2        0.0000 
     43 N          33.0530   28.3510   62.4400 N.am      8 SEL2        0.0000 
     44 N          37.1960   28.1115   62.6560 N.am      2 SEC2        0.0000 
     45 N          35.5420   27.8260   62.5320 N.am      8 SEL2        0.0000 
     46 N          38.8500   28.3970   62.7800 N.am      5 SEP2        0.0000 
     47 N          35.4900   26.9590   59.9500 N.am      2 SEC2        0.0000 
     48 N          33.9920   26.7450   60.7940 N.am      8 SEL2        0.0000 
     49 N          36.9880   27.1730   59.1060 N.am      5 SEP2        0.0000 
     50 CA         34.6525   22.0775   61.1165 C.3       3 GLC5        0.0000 
     51 CA         32.9860   22.3680   59.8050 C.3       9 GLL5        0.0000 
     52 CA         36.3190   21.7870   62.4280 C.3       6 GLP5        0.0000 
     53 O          33.9290   20.8145   65.8615 O.2       1 ALC1        0.0000 
     54 O          33.0970   20.6210   64.7750 O.2       7 ALL1        0.0000 
     55 O          34.7610   21.0080   66.9480 O.2       4 ALP1        0.0000 
     56 O          32.7460   21.2675   66.0320 O.2       1 ALC1        0.0000 
     57 O          32.3950   21.9140   67.2890 O.2       4 ALP1        0.0000 
     58 CA         35.8880   28.9283   65.2927 C.3       3 GLC5        0.0000 
     59 CA         37.5320   29.6510   64.4340 C.3       6 GLP5        0.0000 
     60 CA         32.7560   29.6867   66.1033 C.3       3 GLC5        0.0000 
     61 CA         31.2680   31.1680   66.0550 C.3       6 GLP5        0.0000 
     62 CA         34.4465   25.8540   69.7415 C.3       3 GLC5        0.0000 
     63 CA         32.8640   26.7480   68.2200 C.3       9 GLL5        0.0000 
     64 CA         35.5190   25.4190   71.5750 C.3       6 GLP5        0.0000 
     65 CA         32.5945   24.9250   69.1370 C.3       3 GLC5        0.0000 
     66 CA         33.8840   25.8300   67.5960 C.3       9 GLL5        0.0000 
     67 CA         29.4497   27.2142   67.4130 C.3       3 GLC5        0.0000 
     68 CA         29.3530   25.7970   68.7630 C.3       9 GLL5        0.0000 
     69 CA         28.9380   28.3350   65.8660 C.3       6 GLP5        0.0000 
     70 CA         30.7514   24.8294   69.7741 C.3       3 GLC5        0.0000 
     71 CA         35.8342   25.8762   60.4348 C.3       3 GLC5        0.0000 
     72 CA         34.4150   25.4360   61.0820 C.3       9 GLL5        0.0000 
     73 CA         37.5960   26.7730   60.2830 C.3       6 GLP5        0.0000 
     74 CA         35.1958   23.3833   61.5072 C.3       3 GLC5        0.0000 
     75 CA         32.3785   19.2340   58.1300 C.3       3 GLC5        0.0000 
     76 CA         32.4500   19.9140   59.6560 C.3       9 GLL5        0.0000 
     77 CA         32.4110   19.1830   56.2990 C.3       6 GLP5        0.0000 
     78 CA         34.0600   28.0367   68.9525 C.3       3 GLC5        0.0000 
     79 CA         34.1040   29.2140   70.4020 C.3       6 GLP5        0.0000 
@<TRIPOS>BOND
@<TRIPOS>SUBSTRUCTURE
     1 ALC1       15 GROUP        1 X    ALC  0     ROOT ALC X 1
     2 SEC2        1 GROUP        1 X    SEC  0     **** SEC X 2
     3 GLC5        6 GROUP        1 X    GLC  0     **** GLC X 6
     4 ALP1       17 GROUP        1 Y    ALP  0     ROOT ALP Y 8
     5 SEP2        3 GROUP        1 Y    SEP  0     **** SEP Y 9
     6 GLP5        8 GROUP        1 Y    GLP  0     **** GLP Y 13
     7 ALL1       16 GROUP        1 Z    ALL  0     ROOT ALL Z 15
     8 SEL2        2 GROUP        1 Z    SEL  0     **** SEL Z 16
     9 GLL5        7 GROUP        1 Z    GLL  0     **** GLL Z 20
@<TRIPOS>SET

