#    Name: 2imp_NAI_1_ligand
#    Modification time : Tue Mar 25 18:22:50 2014

@<TRIPOS>MOLECULE
2imp_NAI_1_ligand
   71    75     1     0     0
SMALL
NO_CHARGES


@<TRIPOS>ATOM
      1 PA         32.4200   27.4590   63.6140 P.3       1 NAI506      0.0000 
      2 O1A        31.3360   28.2780   64.1800 O.co2     1 NAI506      0.0000 
      3 O2A        31.9370   26.0980   63.1010 O.co2     1 NAI506      0.0000 
      4 O5B        33.5550   27.2600   64.7200 O.3       1 NAI506      0.0000 
      5 C5B        34.1950   28.3320   65.3950 C.3       1 NAI506      0.0000 
      6 C4B        34.2930   28.0790   66.9080 C.3       1 NAI506      0.0000 
      7 O4B        32.9990   27.9740   67.5050 O.3       1 NAI506      0.0000 
      8 C3B        35.0230   26.7810   67.2880 C.3       1 NAI506      0.0000 
      9 O3B        35.9060   27.0190   68.3810 O.3       1 NAI506      0.0000 
     10 C2B        33.8840   25.8300   67.5960 C.3       1 NAI506      0.0000 
     11 O2B        34.2090   24.7270   68.4010 O.3       1 NAI506      0.0000 
     12 C1B        32.8640   26.7480   68.2200 C.3       1 NAI506      0.0000 
     13 N9A        31.4620   26.2420   68.1350 N.pl3     1 NAI506      0.0000 
     14 C8A        30.7990   25.5700   67.1090 C.2       1 NAI506      0.0000 
     15 N7A        29.5180   25.3110   67.5130 N.2       1 NAI506      0.0000 
     16 C5A        29.3530   25.7970   68.7630 C.ar      1 NAI506      0.0000 
     17 C6A        28.2580   25.8140   69.6520 C.ar      1 NAI506      0.0000 
     18 N6A        27.0940   25.2630   69.3130 N.pl3     1 NAI506      0.0000 
     19 N1A        28.4060   26.4130   70.9120 N.ar      1 NAI506      0.0000 
     20 C2A        29.6260   26.9950   71.2840 C.ar      1 NAI506      0.0000 
     21 N3A        30.7110   26.9750   70.3930 N.ar      1 NAI506      0.0000 
     22 C4A        30.5700   26.3900   69.1570 C.ar      1 NAI506      0.0000 
     23 O3         33.0530   28.3510   62.4400 O.3       1 NAI506      0.0000 
     24 PN         34.4130   28.0740   61.6180 P.3       1 NAI506      0.0000 
     25 O1N        35.5420   27.8260   62.5320 O.co2     1 NAI506      0.0000 
     26 O2N        34.5590   29.2020   60.6370 O.co2     1 NAI506      0.0000 
     27 O5D        33.9920   26.7450   60.7940 O.3       1 NAI506      0.0000 
     28 C5D        34.4150   25.4360   61.0820 C.3       1 NAI506      0.0000 
     29 C4D        33.7300   24.5230   60.0910 C.3       1 NAI506      0.0000 
     30 O4D        33.9150   23.1710   60.5000 O.3       1 NAI506      0.0000 
     31 C3D        32.2320   24.5960   59.7170 C.3       1 NAI506      0.0000 
     32 O3D        32.0780   25.1560   58.4270 O.3       1 NAI506      0.0000 
     33 C2D        31.7160   23.1830   59.7990 C.3       1 NAI506      0.0000 
     34 O2D        30.8320   22.8570   58.7510 O.3       1 NAI506      0.0000 
     35 C1D        32.9860   22.3680   59.8050 C.3       1 NAI506      0.0000 
     36 N1N        32.7600   21.0300   60.4400 N.pl3     1 NAI506      0.0000 
     37 C2N        32.8770   20.9480   61.8320 C.2       1 NAI506      0.0000 
     38 C3N        32.6760   19.7000   62.4810 C.2       1 NAI506      0.0000 
     39 C7N        32.8020   19.5880   63.9840 C.2       1 NAI506      0.0000 
     40 O7N        32.6010   18.3500   64.5810 O.2       1 NAI506      0.0000 
     41 N7N        33.0970   20.6210   64.7750 N.am      1 NAI506      0.0000 
     42 C4N        32.3580   18.5510   61.6830 C.3       1 NAI506      0.0000 
     43 C5N        32.2420   18.6560   60.2660 C.2       1 NAI506      0.0000 
     44 C6N        32.4500   19.9140   59.6560 C.2       1 NAI506      0.0000 
     45 H          33.6542   29.2862   65.2582 H         1 NAI506      0.0000 
     46 H          35.2233   28.4966   65.0245 H         1 NAI506      0.0000 
     47 H          34.8415   28.9016   67.3655 H         1 NAI506      0.0000 
     48 H          35.5192   26.4382   66.4025 H         1 NAI506      0.0000 
     49 H          33.4627   25.5361   66.6220 H         1 NAI506      0.0000 
     50 H          33.1410   26.8992   69.2558 H         1 NAI506      0.0000 
     51 H          31.1879   25.3362   66.2690 H         1 NAI506      0.0000 
     52 H          26.3792   25.2793   70.0122 H         1 NAI506      0.0000 
     53 H          27.0395   24.8826   68.3898 H         1 NAI506      0.0000 
     54 H          29.7265   27.4338   72.2029 H         1 NAI506      0.0000 
     55 H          34.1308   25.1194   62.0849 H         1 NAI506      0.0000 
     56 H          35.4913   25.3129   60.9662 H         1 NAI506      0.0000 
     57 H          34.2897   24.6058   59.1033 H         1 NAI506      0.0000 
     58 H          31.7504   25.1798   60.4848 H         1 NAI506      0.0000 
     59 H          31.2664   23.0719   60.7846 H         1 NAI506      0.0000 
     60 H          33.2855   22.2380   58.7732 H         1 NAI506      0.0000 
     61 H          33.1046   21.7727   62.3856 H         1 NAI506      0.0000 
     62 H          33.1652   20.4213   65.7525 H         1 NAI506      0.0000 
     63 H          33.2234   21.5021   64.3193 H         1 NAI506      0.0000 
     64 H          31.3903   18.0782   62.0982 H         1 NAI506      0.0000 
     65 H          33.1169   17.7170   61.9301 H         1 NAI506      0.0000 
     66 H          32.0148   17.8420   59.7122 H         1 NAI506      0.0000 
     67 H          32.3722   20.0015   58.6392 H         1 NAI506      0.0000 
     68 H          36.7893   27.2248   67.9598 H         1 NAI506      0.0000 
     69 H          34.7995   24.1557   67.8309 H         1 NAI506      0.0000 
     70 H          32.9751   25.5358   58.2011 H         1 NAI506      0.0000 
     71 H          30.8579   23.6452   58.1361 H         1 NAI506      0.0000 
@<TRIPOS>BOND
     1    2    1 ar   
     2    3    1 ar   
     3    4    1 1    
     4   23    1 1    
     5    5    4 1    
     6    6    5 1    
     7   45    5 1    
     8   46    5 1    
     9    7    6 1    
    10    8    6 1    
    11   47    6 1    
    12   12    7 1    
    13    9    8 1    
    14   10    8 1    
    15   48    8 1    
    16   68    9 1    
    17   11   10 1    
    18   12   10 1    
    19   49   10 1    
    20   69   11 1    
    21   13   12 1    
    22   50   12 1    
    23   14   13 1    
    24   22   13 1    
    25   15   14 2    
    26   51   14 1    
    27   16   15 1    
    28   17   16 ar   
    29   22   16 ar   
    30   18   17 1    
    31   19   17 ar   
    32   52   18 1    
    33   53   18 1    
    34   20   19 ar   
    35   21   20 ar   
    36   54   20 1    
    37   22   21 ar   
    38   24   23 1    
    39   25   24 ar   
    40   26   24 ar   
    41   27   24 1    
    42   28   27 1    
    43   29   28 1    
    44   55   28 1    
    45   56   28 1    
    46   30   29 1    
    47   31   29 1    
    48   57   29 1    
    49   35   30 1    
    50   32   31 1    
    51   33   31 1    
    52   58   31 1    
    53   70   32 1    
    54   34   33 1    
    55   35   33 1    
    56   59   33 1    
    57   71   34 1    
    58   36   35 1    
    59   60   35 1    
    60   37   36 1    
    61   44   36 1    
    62   38   37 2    
    63   61   37 1    
    64   39   38 1    
    65   42   38 1    
    66   40   39 2    
    67   41   39 am   
    68   62   41 1    
    69   63   41 1    
    70   43   42 1    
    71   64   42 1    
    72   65   42 1    
    73   44   43 2    
    74   66   43 1    
    75   67   44 1    
@<TRIPOS>SUBSTRUCTURE
     1 NAI506      1 GROUP   
@<TRIPOS>SET

