#    Name: 1pqu_NAP_3_INTS_M
#    Modification time : Mon Mar 24 22:07:47 2014

@<TRIPOS>MOLECULE
1pqu_NAP_3_INTS_M
   68     0    12     0     0
SMALL
NO_CHARGES


@<TRIPOS>ATOM
      1 N         -10.4795  167.1740  -17.0280 N.am      2 SEC2        0.0000 
      2 N          -9.3220  167.9510  -17.1850 N.am     10 SEL2        0.0000 
      3 N         -11.6370  166.3970  -16.8710 N.am      6 SEP2        0.0000 
      4 CA         -9.5900  164.2360  -22.3785 C.3       4 GLC5        0.0000 
      5 CA         -8.0470  164.4680  -20.8770 C.3      12 GLL5        0.0000 
      6 CA        -11.1330  164.0040  -23.8800 C.3       8 GLP5        0.0000 
      7 O          -8.7115  164.5275  -23.3620 O.2       1 ALC1        0.0000 
      8 O          -8.9040  164.1480  -21.9690 O.2       9 ALL1        0.0000 
      9 O          -8.5190  164.9070  -24.7550 O.2       5 ALP1        0.0000 
     10 N          -6.4820  164.3720  -23.4695 N.am      2 SEC2        0.0000 
     11 N          -6.5760  163.1430  -22.2370 N.am     10 SEL2        0.0000 
     12 N          -6.3880  165.6010  -24.7020 N.am      6 SEP2        0.0000 
     13 N          -4.2490  162.0500  -18.3865 N.am      2 SEC2        0.0000 
     14 N          -3.7580  163.4580  -17.4800 N.am     10 SEL2        0.0000 
     15 N          -4.7400  160.6420  -19.2930 N.am      6 SEP2        0.0000 
     16 CA         -8.3575  161.3935  -17.5770 C.3       4 GLC5        0.0000 
     17 CA         -7.6770  163.0110  -16.6410 C.3      12 GLL5        0.0000 
     18 CA         -9.0380  159.7760  -18.5130 C.3       8 GLP5        0.0000 
     19 CA         -9.1810  163.9375  -17.5650 C.3       4 GLC5        0.0000 
     20 CA        -10.6850  164.8640  -18.4890 C.3       8 GLP5        0.0000 
     21 N         -12.9355  168.2835  -18.1295 N.am      2 SEC2        0.0000 
     22 N         -11.8200  168.8010  -18.6950 N.am     10 SEL2        0.0000 
     23 N         -14.0510  167.7660  -17.5640 N.am      6 SEP2        0.0000 
     24 CA        -13.1880  170.3560  -20.0355 C.3       4 GLC5        0.0000 
     25 CA        -11.5720  170.3200  -21.3150 C.3      12 GLL5        0.0000 
     26 CA        -14.8040  170.3920  -18.7560 C.3       8 GLP5        0.0000 
     27 CA        -14.1005  171.8240  -20.1495 C.3       4 GLC5        0.0000 
     28 CA        -13.3970  173.2560  -21.5430 C.3      12 GLL5        0.0000 
     29 CA        -15.4945  172.8185  -16.6095 C.3       4 GLC5        0.0000 
     30 CA        -14.6750  174.1720  -18.0610 C.3      12 GLL5        0.0000 
     31 CA        -16.3140  171.4650  -15.1580 C.3       8 GLP5        0.0000 
     32 O         -12.7335  174.1230  -14.9565 O.2       1 ALC1        0.0000 
     33 O         -12.9660  173.7350  -16.3880 O.2       9 ALL1        0.0000 
     34 O         -12.5010  174.5110  -13.5250 O.2       5 ALP1        0.0000 
     35 CA        -16.2190  176.3295  -17.3225 C.3       4 GLC5        0.0000 
     36 CA        -15.9690  174.6130  -18.3820 C.3      12 GLL5        0.0000 
     37 CA        -16.4690  178.0460  -16.2630 C.3       8 GLP5        0.0000 
     38 CA        -15.1935  172.2870  -19.7475 C.3       4 GLC5        0.0000 
     39 CA        -15.5830  174.1820  -20.7390 C.3      12 GLL5        0.0000 
     40 NZ         -4.7365  161.0565  -20.5915 N.4       3 LYC4        0.0000 
     41 NZ         -4.7330  161.4710  -21.8900 N.4      11 LYL4        0.0000 
     42 NZ         -5.7590  159.9800  -18.7560 N.4       7 LYP4        0.0000 
     43 N          -4.7365  161.0565  -20.5915 N.am      2 SEC2        0.0000 
     44 N          -4.7330  161.4710  -21.8900 N.am     10 SEL2        0.0000 
     45 N          -3.6420  160.6580  -22.0090 N.am      2 SEC2        0.0000 
     46 N          -2.5510  159.8450  -22.1280 N.am      6 SEP2        0.0000 
     47 N          -5.6425  159.9155  -24.3550 N.am      2 SEC2        0.0000 
     48 N          -6.0440  161.4610  -24.0290 N.am     10 SEL2        0.0000 
     49 N          -5.2410  158.3700  -24.6810 N.am      6 SEP2        0.0000 
     50 N          -5.4460  161.0185  -25.1280 N.am      2 SEC2        0.0000 
     51 N          -4.8480  160.5760  -26.2270 N.am      6 SEP2        0.0000 
     52 N          -4.9285  162.2375  -24.4535 N.am      2 SEC2        0.0000 
     53 N          -3.8130  163.0140  -24.8780 N.am      6 SEP2        0.0000 
     54 NZ         -6.9550  160.1490  -20.6825 N.4       3 LYC4        0.0000 
     55 NZ         -7.1330  160.7120  -21.8490 N.4      11 LYL4        0.0000 
     56 N          -6.9550  160.1490  -20.6825 N.am      2 SEC2        0.0000 
     57 N          -7.1330  160.7120  -21.8490 N.am     10 SEL2        0.0000 
     58 N          -6.7770  159.5860  -19.5160 N.am      6 SEP2        0.0000 
     59 CA         -8.5610  162.2552  -20.2840 C.3       4 GLC5        0.0000 
     60 CA         -9.6780  160.4960  -19.6830 C.3       8 GLP5        0.0000 
     61 CA         -9.3315  165.1542  -19.7013 C.3       4 GLC5        0.0000 
     62 CA        -10.5077  171.6343  -23.8667 C.3       4 GLC5        0.0000 
     63 CA        -12.1480  171.3570  -22.3040 C.3      12 GLL5        0.0000 
     64 CA         -9.3030  171.2830  -25.3960 C.3       8 GLP5        0.0000 
     65 CA        -14.9565  172.3369  -18.6164 C.3       4 GLC5        0.0000 
     66 CA        -13.8230  173.7290  -19.0820 C.3      12 GLL5        0.0000 
     67 CA        -17.3144  173.3756  -19.5186 C.3       4 GLC5        0.0000 
     68 CA        -18.7390  172.3520  -19.1450 C.3       8 GLP5        0.0000 
@<TRIPOS>BOND
@<TRIPOS>SUBSTRUCTURE
     1 ALC1        7 GROUP        1 X    ALC  0     ROOT ALC X 1
     2 SEC2        1 GROUP        1 X    SEC  0     **** SEC X 2
     3 LYC4       40 GROUP        1 X    LYC  0     **** LYC X 4
     4 GLC5        4 GROUP        1 X    GLC  0     **** GLC X 6
     5 ALP1        9 GROUP        1 Y    ALP  0     ROOT ALP Y 8
     6 SEP2        3 GROUP        1 Y    SEP  0     **** SEP Y 9
     7 LYP4       42 GROUP        1 Y    LYP  0     **** LYP Y 11
     8 GLP5        6 GROUP        1 Y    GLP  0     **** GLP Y 13
     9 ALL1        8 GROUP        1 Z    ALL  0     ROOT ALL Z 15
    10 SEL2        2 GROUP        1 Z    SEL  0     **** SEL Z 16
    11 LYL4       41 GROUP        1 Z    LYL  0     **** LYL Z 18
    12 GLL5        5 GROUP        1 Z    GLL  0     **** GLL Z 20
@<TRIPOS>SET

