#    Name: 1pqu_NAP_3_ligand
#    Modification time : Mon Mar 24 22:07:47 2014

@<TRIPOS>MOLECULE
1pqu_NAP_3_ligand
   73    77     1     0     0
SMALL
NO_CHARGES


@<TRIPOS>ATOM
      1 PA         -8.6320  168.2300  -18.4670 P.3       1 NAP4372     0.0000 
      2 O1A        -9.3220  167.9510  -17.1850 O.co2     1 NAP4372     0.0000 
      3 O2A        -7.1990  168.6110  -18.4260 O.co2     1 NAP4372     0.0000 
      4 O5B        -8.8200  166.9540  -19.4400 O.3       1 NAP4372     0.0000 
      5 C5B        -8.3790  167.0100  -20.8000 C.3       1 NAP4372     0.0000 
      6 C4B        -7.4390  165.8320  -21.1000 C.3       1 NAP4372     0.0000 
      7 O4B        -6.2450  165.8000  -20.2780 O.3       1 NAP4372     0.0000 
      8 C3B        -8.0470  164.4680  -20.8770 C.3       1 NAP4372     0.0000 
      9 O3B        -8.9040  164.1480  -21.9690 O.3       1 NAP4372     0.0000 
     10 C2B        -6.8410  163.5610  -20.8930 C.3       1 NAP4372     0.0000 
     11 O2B        -6.5760  163.1430  -22.2370 O.3       1 NAP4372     0.0000 
     12 C1B        -5.6880  164.4490  -20.3930 C.3       1 NAP4372     0.0000 
     13 N9A        -5.1610  164.0030  -19.0660 N.pl3     1 NAP4372     0.0000 
     14 C8A        -3.8640  163.9220  -18.7320 C.2       1 NAP4372     0.0000 
     15 N7A        -3.7580  163.4580  -17.4800 N.2       1 NAP4372     0.0000 
     16 C5A        -4.9850  163.2460  -17.0200 C.ar      1 NAP4372     0.0000 
     17 C6A        -5.4950  162.7690  -15.8130 C.ar      1 NAP4372     0.0000 
     18 N6A        -4.6730  162.4080  -14.8280 N.pl3     1 NAP4372     0.0000 
     19 N1A        -6.8360  162.6650  -15.6570 N.ar      1 NAP4372     0.0000 
     20 C2A        -7.6770  163.0110  -16.6410 C.ar      1 NAP4372     0.0000 
     21 N3A        -7.2080  163.4680  -17.8060 N.ar      1 NAP4372     0.0000 
     22 C4A        -5.8780  163.5930  -18.0180 C.ar      1 NAP4372     0.0000 
     23 O3         -9.4170  169.4130  -19.2570 O.3       1 NAP4372     0.0000 
     24 PN        -10.8810  169.9410  -18.7840 P.3       1 NAP4372     0.0000 
     25 O1N       -10.7190  170.8190  -17.5930 O.co2     1 NAP4372     0.0000 
     26 O2N       -11.8200  168.8010  -18.6950 O.co2     1 NAP4372     0.0000 
     27 O5D       -11.3420  170.8850  -20.0160 O.3       1 NAP4372     0.0000 
     28 C5D       -11.5720  170.3200  -21.3150 C.3       1 NAP4372     0.0000 
     29 C4D       -12.1480  171.3570  -22.3040 C.3       1 NAP4372     0.0000 
     30 O4D       -13.4540  171.8130  -21.7680 O.3       1 NAP4372     0.0000 
     31 C3D       -11.2770  172.6140  -22.3710 C.3       1 NAP4372     0.0000 
     32 O3D       -11.3180  173.1760  -23.6880 O.3       1 NAP4372     0.0000 
     33 C2D       -11.9120  173.5630  -21.3950 C.3       1 NAP4372     0.0000 
     34 O2D       -11.6560  174.9260  -21.7610 O.3       1 NAP4372     0.0000 
     35 C1D       -13.3970  173.2560  -21.5430 C.3       1 NAP4372     0.0000 
     36 N1N       -14.2760  173.7330  -20.4340 N.pl3     1 NAP4372     0.0000 
     37 C2N       -13.8230  173.7290  -19.0820 C.ar      1 NAP4372     0.0000 
     38 C3N       -14.6750  174.1720  -18.0610 C.ar      1 NAP4372     0.0000 
     39 C7N       -14.2030  174.1900  -16.5950 C.2       1 NAP4372     0.0000 
     40 O7N       -14.9410  174.6030  -15.6970 O.2       1 NAP4372     0.0000 
     41 N7N       -12.9660  173.7350  -16.3880 N.am      1 NAP4372     0.0000 
     42 C4N       -15.9690  174.6130  -18.3820 C.ar      1 NAP4372     0.0000 
     43 C5N       -16.4240  174.6200  -19.7090 C.ar      1 NAP4372     0.0000 
     44 C6N       -15.5830  174.1820  -20.7390 C.ar      1 NAP4372     0.0000 
     45 P2B        -6.1900  161.6020  -22.5640 P.3       1 NAP4372     0.0000 
     46 O1X        -4.7330  161.4710  -21.8900 O.co2     1 NAP4372     0.0000 
     47 O2X        -6.0440  161.4610  -24.0290 O.co2     1 NAP4372     0.0000 
     48 O3X        -7.1330  160.7120  -21.8490 O.co2     1 NAP4372     0.0000 
     49 H          -7.8287  167.9344  -21.0120 H         1 NAP4372     0.0000 
     50 H          -9.2183  166.9506  -21.5032 H         1 NAP4372     0.0000 
     51 H          -7.1359  165.8771  -22.1526 H         1 NAP4372     0.0000 
     52 H          -8.4998  164.4353  -19.9415 H         1 NAP4372     0.0000 
     53 H          -6.9793  162.7739  -20.2194 H         1 NAP4372     0.0000 
     54 H          -4.9138  164.4376  -21.1306 H         1 NAP4372     0.0000 
     55 H          -3.1176  164.1631  -19.3103 H         1 NAP4372     0.0000 
     56 H          -5.1080  162.0667  -13.9948 H         1 NAP4372     0.0000 
     57 H          -3.6953  162.5110  -15.0108 H         1 NAP4372     0.0000 
     58 H          -8.7123  162.9218  -16.4942 H         1 NAP4372     0.0000 
     59 H         -12.2845  169.4788  -21.2716 H         1 NAP4372     0.0000 
     60 H         -10.6408  169.9279  -21.7580 H         1 NAP4372     0.0000 
     61 H         -12.2599  170.9390  -23.2532 H         1 NAP4372     0.0000 
     62 H         -10.3064  172.3709  -22.0449 H         1 NAP4372     0.0000 
     63 H         -11.6142  173.3167  -20.4191 H         1 NAP4372     0.0000 
     64 H         -13.7124  173.7454  -22.4930 H         1 NAP4372     0.0000 
     65 H         -12.8811  173.4031  -18.8699 H         1 NAP4372     0.0000 
     66 H         -12.4748  173.4121  -17.1970 H         1 NAP4372     0.0000 
     67 H         -12.6413  173.7577  -15.4425 H         1 NAP4372     0.0000 
     68 H         -16.5952  174.9372  -17.6288 H         1 NAP4372     0.0000 
     69 H         -17.3714  174.9457  -19.9230 H         1 NAP4372     0.0000 
     70 H         -15.9046  174.1839  -21.7075 H         1 NAP4372     0.0000 
     71 H          -8.4525  164.5335  -22.7737 H         1 NAP4372     0.0000 
     72 H         -11.3710  174.1645  -23.5459 H         1 NAP4372     0.0000 
     73 H         -12.5597  175.3470  -21.8392 H         1 NAP4372     0.0000 
@<TRIPOS>BOND
     1    2    1 ar   
     2    3    1 ar   
     3    4    1 1    
     4   23    1 1    
     5    5    4 1    
     6    6    5 1    
     7   49    5 1    
     8   50    5 1    
     9    7    6 1    
    10    8    6 1    
    11   51    6 1    
    12   12    7 1    
    13    9    8 1    
    14   10    8 1    
    15   52    8 1    
    16   71    9 1    
    17   11   10 1    
    18   12   10 1    
    19   53   10 1    
    20   45   11 1    
    21   13   12 1    
    22   54   12 1    
    23   14   13 1    
    24   22   13 1    
    25   15   14 2    
    26   55   14 1    
    27   16   15 1    
    28   17   16 ar   
    29   22   16 ar   
    30   18   17 1    
    31   19   17 ar   
    32   56   18 1    
    33   57   18 1    
    34   20   19 ar   
    35   21   20 ar   
    36   58   20 1    
    37   22   21 ar   
    38   24   23 1    
    39   25   24 ar   
    40   26   24 ar   
    41   27   24 1    
    42   28   27 1    
    43   29   28 1    
    44   59   28 1    
    45   60   28 1    
    46   30   29 1    
    47   31   29 1    
    48   61   29 1    
    49   35   30 1    
    50   32   31 1    
    51   33   31 1    
    52   62   31 1    
    53   72   32 1    
    54   34   33 1    
    55   35   33 1    
    56   63   33 1    
    57   73   34 1    
    58   36   35 1    
    59   64   35 1    
    60   37   36 ar   
    61   44   36 ar   
    62   38   37 ar   
    63   65   37 1    
    64   39   38 1    
    65   42   38 ar   
    66   40   39 2    
    67   41   39 am   
    68   66   41 1    
    69   67   41 1    
    70   43   42 ar   
    71   68   42 1    
    72   44   43 ar   
    73   69   43 1    
    74   70   44 1    
    75   46   45 ar   
    76   47   45 ar   
    77   48   45 ar   
@<TRIPOS>SUBSTRUCTURE
     1 NAP4372     1 GROUP   
@<TRIPOS>SET

