#    Name: 2qi0_MZ3_1_INTS_M
#    Modification time : Mon Mar 24 22:10:36 2014

@<TRIPOS>MOLECULE
2qi0_MZ3_1_INTS_M
   99     0     9     0     0
SMALL
NO_CHARGES


@<TRIPOS>ATOM
      1 O          20.5620   27.0945   14.1065 O.2       1 ALC1        0.0000 
      2 O          20.6720   28.5760   13.6090 O.2       7 ALL1        0.0000 
      3 O          20.4520   25.6130   14.6040 O.2       4 ALP1        0.0000 
      4 CA         17.0840   31.0950   11.3265 C.3       3 GLC5        0.0000 
      5 CA         17.5380   29.1100   11.9310 C.3       9 GLL5        0.0000 
      6 CA         16.6300   33.0800   10.7220 C.3       6 GLP5        0.0000 
      7 CA         17.1375   30.6080   10.0075 C.3       3 GLC5        0.0000 
      8 CA         17.1840   28.7020   10.6530 C.3       9 GLL5        0.0000 
      9 CA         17.0910   32.5140    9.3620 C.3       6 GLP5        0.0000 
     10 N          19.5000   28.2350   17.6650 N.am      2 SEC2        0.0000 
     11 N          20.0710   28.7450   16.5360 N.am      8 SEL2        0.0000 
     12 N          18.9290   27.7250   18.7940 N.am      5 SEP2        0.0000 
     13 O          20.8685   28.2795   17.4950 O.2       1 ALC1        0.0000 
     14 O          20.0710   28.7450   16.5360 O.2       7 ALL1        0.0000 
     15 O          21.6660   27.8140   18.4540 O.2       4 ALP1        0.0000 
     16 O          21.5540   28.9450   16.9560 O.2       1 ALC1        0.0000 
     17 O          23.0370   29.1450   17.3760 O.2       4 ALP1        0.0000 
     18 CA         17.7400   31.0260   17.7305 C.3       3 GLC5        0.0000 
     19 CA         19.1760   30.9390   16.2300 C.3       9 GLL5        0.0000 
     20 CA         16.3040   31.1130   19.2310 C.3       6 GLP5        0.0000 
     21 CA         24.5270   34.7630   13.9300 C.3       3 GLC5        0.0000 
     22 CA         23.8050   33.1250   15.0100 C.3       9 GLL5        0.0000 
     23 CA         25.2490   36.4010   12.8500 C.3       6 GLP5        0.0000 
     24 CA         21.3955   34.5125   13.3390 C.3       3 GLC5        0.0000 
     25 CA         22.2440   33.1420   14.4230 C.3       9 GLL5        0.0000 
     26 CA         20.5470   35.8830   12.2550 C.3       6 GLP5        0.0000 
     27 CA         15.4145   37.0735   15.7155 C.3       3 GLC5        0.0000 
     28 CA         16.5790   35.7500   16.8370 C.3       9 GLL5        0.0000 
     29 CA         14.2500   38.3970   14.5940 C.3       6 GLP5        0.0000 
     30 CA         14.7775   38.4205   16.7625 C.3       3 GLC5        0.0000 
     31 CA         16.1300   38.0210   17.7200 C.3       9 GLL5        0.0000 
     32 CA         13.4250   38.8200   15.8050 C.3       6 GLP5        0.0000 
     33 CA         15.2595   31.3300   15.3200 C.3       3 GLC5        0.0000 
     34 CA         16.0200   33.0580   16.3920 C.3       9 GLL5        0.0000 
     35 CA         14.4990   29.6020   14.2480 C.3       6 GLP5        0.0000 
     36 CA         24.8227   26.8805   13.6590 C.3       3 GLC5        0.0000 
     37 CA         24.7440   27.1990   11.6950 C.3       9 GLL5        0.0000 
     38 CA         24.2440   26.4900   15.4970 C.3       6 GLP5        0.0000 
     39 CA         27.0703   28.1085   11.9510 C.3       3 GLC5        0.0000 
     40 CA         26.0590   27.3430   11.9470 C.3       9 GLL5        0.0000 
     41 CA         28.7390   28.9460   12.0810 C.3       6 GLP5        0.0000 
     42 CA         26.2773   28.2715   10.3380 C.3       3 GLC5        0.0000 
     43 CA         27.1530   29.2720    8.8550 C.3       6 GLP5        0.0000 
     44 CA         25.9308   28.0550   13.6295 C.3       3 GLC5        0.0000 
     45 CA         26.4600   28.8390   15.4380 C.3       6 GLP5        0.0000 
     46 CA         25.2328   29.3720   11.4770 C.3       3 GLC5        0.0000 
     47 CA         25.0640   31.4730   11.1330 C.3       6 GLP5        0.0000 
     48 CA         23.4013   25.7963   12.9005 C.3       3 GLC5        0.0000 
     49 CA         24.2940   26.1780   10.8680 C.3       9 GLL5        0.0000 
     50 CA         23.1860   25.4850   15.0590 C.3       6 GLP5        0.0000 
     51 CA         23.8652   24.0212   11.2515 C.3       3 GLC5        0.0000 
     52 CA         24.1140   21.9350   11.7610 C.3       6 GLP5        0.0000 
     53 CA         26.5109   25.6217   11.3948 C.3       3 GLC5        0.0000 
     54 CA         28.1740   24.5190   11.4450 C.3       6 GLP5        0.0000 
     55 CA         22.7233   26.4560   13.3383 C.3       3 GLC5        0.0000 
     56 CA         22.0330   26.9120   11.2060 C.3       9 GLL5        0.0000 
     57 CA         24.1640   27.5602   14.1022 C.3       3 GLC5        0.0000 
     58 CA         23.8430   28.0790   12.2630 C.3       9 GLL5        0.0000 
     59 CA         25.2720   28.7347   14.0727 C.3       3 GLC5        0.0000 
     60 CA         24.3250   29.1820   13.1520 C.3       9 GLL5        0.0000 
     61 CA         24.1750   29.8796   11.7506 C.3       3 GLC5        0.0000 
     62 CA         16.0680   27.4537   12.0215 C.3       3 GLC5        0.0000 
     63 CA         18.0200   28.1830   12.8350 C.3       9 GLL5        0.0000 
     64 CA         14.3570   26.2610   11.6600 C.3       6 GLP5        0.0000 
     65 CA         18.7880   29.7185   10.0105 C.3       3 GLC5        0.0000 
     66 CA         20.2150   30.5310    8.7290 C.3       6 GLP5        0.0000 
     67 CA         16.1867   29.1779   13.4917 C.3       3 GLC5        0.0000 
     68 CA         16.0338   28.2720    9.0305 C.3       3 GLC5        0.0000 
     69 CA         14.8200   28.5050    7.6020 C.3       6 GLP5        0.0000 
     70 CA         15.8023   27.1500   11.0595 C.3       3 GLC5        0.0000 
     71 CA         17.3110   27.3760   10.2650 C.3       9 GLL5        0.0000 
     72 CA         17.2610   25.5108   13.3362 C.3       3 GLC5        0.0000 
     73 CA         17.8000   26.4430   11.1690 C.3       9 GLL5        0.0000 
     74 CA         16.5470   24.3740   14.8620 C.3       6 GLP5        0.0000 
     75 CA         16.1660   26.4543   11.7353 C.3       3 GLC5        0.0000 
     76 CA         18.1500   26.8520   12.4520 C.3       9 GLL5        0.0000 
     77 CA         23.5250   32.7957   18.6602 C.3       3 GLC5        0.0000 
     78 CA         22.6030   33.1760   16.9610 C.3       9 GLL5        0.0000 
     79 CA         23.7990   32.4350   20.6600 C.3       6 GLP5        0.0000 
     80 CA         24.5990   34.0794   16.9296 C.3       3 GLC5        0.0000 
     81 CA         25.6700   35.0180   18.0240 C.3       6 GLP5        0.0000 
     82 CA         24.8710   32.2529   16.7361 C.3       3 GLC5        0.0000 
     83 CA         23.8990   33.1370   16.3600 C.3       9 GLL5        0.0000 
     84 CA         26.2140   31.3650   17.6370 C.3       6 GLP5        0.0000 
     85 CA         23.8218   32.9767   12.7438 C.3       3 GLC5        0.0000 
     86 CA         24.6190   32.8200   10.7710 C.3       6 GLP5        0.0000 
     87 CA         15.6067   33.2345   14.1925 C.3       3 GLC5        0.0000 
     88 CA         17.1290   33.6360   15.7700 C.3       9 GLL5        0.0000 
     89 CA         14.6390   33.1220   12.3040 C.3       6 GLP5        0.0000 
     90 CA         16.4393   32.2300   17.6560 C.3       3 GLC5        0.0000 
     91 CA         15.8220   32.7960   18.2923 C.3       3 GLC5        0.0000 
     92 CA         15.1960   33.8100   17.2350 C.3       9 GLL5        0.0000 
     93 CA         13.8760   34.9665   18.6653 C.3       3 GLC5        0.0000 
     94 CA         12.4120   35.4540   19.9770 C.3       6 GLP5        0.0000 
     95 CA         14.2680   35.3060   15.7172 C.3       3 GLC5        0.0000 
     96 CA         13.1960   36.1330   14.0810 C.3       6 GLP5        0.0000 
     97 CA         13.8360   33.4527   16.3959 C.3       3 GLC5        0.0000 
     98 CA         15.4840   35.1480   17.4720 C.3       9 GLL5        0.0000 
     99 CA         11.9920   33.1370   15.9190 C.3       6 GLP5        0.0000 
@<TRIPOS>BOND
@<TRIPOS>SUBSTRUCTURE
     1 ALC1        1 GROUP        1 X    ALC  0     ROOT ALC X 1
     2 SEC2       10 GROUP        1 X    SEC  0     **** SEC X 2
     3 GLC5        4 GROUP        1 X    GLC  0     **** GLC X 6
     4 ALP1        3 GROUP        1 Y    ALP  0     ROOT ALP Y 8
     5 SEP2       12 GROUP        1 Y    SEP  0     **** SEP Y 9
     6 GLP5        6 GROUP        1 Y    GLP  0     **** GLP Y 13
     7 ALL1        2 GROUP        1 Z    ALL  0     ROOT ALL Z 15
     8 SEL2       11 GROUP        1 Z    SEL  0     **** SEL Z 16
     9 GLL5        5 GROUP        1 Z    GLL  0     **** GLL Z 20
@<TRIPOS>SET

