#    Name: 2qi0_MZ3_1_ligand
#    Modification time : Mon Mar 24 22:10:36 2014

@<TRIPOS>MOLECULE
2qi0_MZ3_1_ligand
   71    74     1     0     0
SMALL
NO_CHARGES


@<TRIPOS>ATOM
      1 F29        26.0590   27.3430   11.9470 F         1 MZ3200      0.0000 
      2 C26        24.7440   27.1990   11.6950 C.ar      1 MZ3200      0.0000 
      3 C25        24.2940   26.1780   10.8680 C.ar      1 MZ3200      0.0000 
      4 C24        22.9390   26.0370   10.6160 C.ar      1 MZ3200      0.0000 
      5 C23        22.0330   26.9120   11.2060 C.ar      1 MZ3200      0.0000 
      6 C27        23.8430   28.0790   12.2630 C.ar      1 MZ3200      0.0000 
      7 C28        24.3250   29.1820   13.1520 C.3       1 MZ3200      0.0000 
      8 C22        22.4880   27.9420   12.0290 C.ar      1 MZ3200      0.0000 
      9 C21        21.5100   28.9360   12.6350 C.2       1 MZ3200      0.0000 
     10 O22        21.5280   30.0610   12.1780 O.2       1 MZ3200      0.0000 
     11 N20        20.6720   28.5760   13.6090 N.am      1 MZ3200      0.0000 
     12 C19        19.6790   29.4590   14.2150 C.3       1 MZ3200      0.0000 
     13 C32        18.4020   28.6120   14.2450 C.3       1 MZ3200      0.0000 
     14 C38        18.0200   28.1830   12.8350 C.ar      1 MZ3200      0.0000 
     15 C37        17.5380   29.1100   11.9310 C.ar      1 MZ3200      0.0000 
     16 C36        17.1840   28.7020   10.6530 C.ar      1 MZ3200      0.0000 
     17 C35        17.3110   27.3760   10.2650 C.ar      1 MZ3200      0.0000 
     18 C34        17.8000   26.4430   11.1690 C.ar      1 MZ3200      0.0000 
     19 C33        18.1500   26.8520   12.4520 C.ar      1 MZ3200      0.0000 
     20 C17        20.1000   29.8630   15.6340 C.3       1 MZ3200      0.0000 
     21 O18        20.0710   28.7450   16.5360 O.3       1 MZ3200      0.0000 
     22 C16        19.1760   30.9390   16.2300 C.3       1 MZ3200      0.0000 
     23 N11        19.4250   32.2220   15.5460 N.pl3     1 MZ3200      0.0000 
     24 C12        20.1690   33.2180   16.3540 C.3       1 MZ3200      0.0000 
     25 C15        21.6560   33.1850   15.9960 C.2       1 MZ3200      0.0000 
     26 C18        22.6030   33.1760   16.9610 C.2       1 MZ3200      0.0000 
     27 C14        23.8990   33.1370   16.3600 C.2       1 MZ3200      0.0000 
     28 C13        23.8050   33.1250   15.0100 C.2       1 MZ3200      0.0000 
     29 S1         22.2440   33.1420   14.4230 S.3       1 MZ3200      0.0000 
     30 S8         18.1010   32.7860   14.7930 S.o2      1 MZ3200      0.0000 
     31 O9         18.5870   33.6010   13.7100 O.2       1 MZ3200      0.0000 
     32 O10        17.3690   31.6840   14.2440 O.2       1 MZ3200      0.0000 
     33 C5         17.1290   33.6360   15.7700 C.ar      1 MZ3200      0.0000 
     34 C6         17.3850   34.9820   16.0000 C.ar      1 MZ3200      0.0000 
     35 C7         16.5790   35.7500   16.8370 C.ar      1 MZ3200      0.0000 
     36 O19        16.9200   37.0850   16.9990 O.3       1 MZ3200      0.0000 
     37 C20        16.1300   38.0210   17.7200 C.3       1 MZ3200      0.0000 
     38 C2         15.4840   35.1480   17.4720 C.ar      1 MZ3200      0.0000 
     39 C3         15.1960   33.8100   17.2350 C.ar      1 MZ3200      0.0000 
     40 C4         16.0200   33.0580   16.3920 C.ar      1 MZ3200      0.0000 
     41 H          24.9685   25.5267   10.4430 H         1 MZ3200      0.0000 
     42 H          22.6024   25.2901    9.9963 H         1 MZ3200      0.0000 
     43 H          21.0246   26.8006   11.0360 H         1 MZ3200      0.0000 
     44 H          20.6884   27.5930   14.0043 H         1 MZ3200      0.0000 
     45 H          19.5099   30.3102   13.6183 H         1 MZ3200      0.0000 
     46 H          17.5960   29.1987   14.6769 H         1 MZ3200      0.0000 
     47 H          18.5732   27.7318   14.8584 H         1 MZ3200      0.0000 
     48 H          17.4412   30.0968   12.2011 H         1 MZ3200      0.0000 
     49 H          16.8191   29.3985    9.9778 H         1 MZ3200      0.0000 
     50 H          17.0456   27.0869    9.3173 H         1 MZ3200      0.0000 
     51 H          17.9029   25.4610   10.8952 H         1 MZ3200      0.0000 
     52 H          18.5108   26.1588   13.1283 H         1 MZ3200      0.0000 
     53 H          21.0994   30.2853   15.5922 H         1 MZ3200      0.0000 
     54 H          19.3867   31.0196   17.2928 H         1 MZ3200      0.0000 
     55 H          18.1466   30.6200   16.0918 H         1 MZ3200      0.0000 
     56 H          20.0633   33.0010   17.4181 H         1 MZ3200      0.0000 
     57 H          19.7886   34.2230   16.1646 H         1 MZ3200      0.0000 
     58 H          22.4706   33.1923   17.9097 H         1 MZ3200      0.0000 
     59 H          24.7107   33.1222   16.8845 H         1 MZ3200      0.0000 
     60 H          24.4739   33.1084   14.3241 H         1 MZ3200      0.0000 
     61 H          18.2011   35.4302   15.5348 H         1 MZ3200      0.0000 
     62 H          14.8996   35.6996   18.1098 H         1 MZ3200      0.0000 
     63 H          14.3801   33.3699   17.6763 H         1 MZ3200      0.0000 
     64 H          15.8051   32.0617   16.2275 H         1 MZ3200      0.0000 
     65 H          24.8111   28.8291   13.9515 H         1 MZ3200      0.0000 
     66 H          24.9533   29.7961   12.6745 H         1 MZ3200      0.0000 
     67 H          23.5695   29.7420   13.4919 H         1 MZ3200      0.0000 
     68 H          16.0083   37.7473   18.6741 H         1 MZ3200      0.0000 
     69 H          16.5456   38.9305   17.7267 H         1 MZ3200      0.0000 
     70 H          15.2168   38.1189   17.3244 H         1 MZ3200      0.0000 
     71 H          20.9510   28.7723   17.0101 H         1 MZ3200      0.0000 
@<TRIPOS>BOND
     1    2    1 1    
     2    3    2 ar   
     3    6    2 ar   
     4    4    3 ar   
     5   41    3 1    
     6    5    4 ar   
     7   42    4 1    
     8    8    5 ar   
     9   43    5 1    
    10    7    6 1    
    11    8    6 ar   
    12   65    7 1    
    13   66    7 1    
    14   67    7 1    
    15    9    8 1    
    16   10    9 2    
    17   11    9 am   
    18   12   11 1    
    19   44   11 1    
    20   13   12 1    
    21   20   12 1    
    22   45   12 1    
    23   14   13 1    
    24   46   13 1    
    25   47   13 1    
    26   15   14 ar   
    27   19   14 ar   
    28   16   15 ar   
    29   48   15 1    
    30   17   16 ar   
    31   49   16 1    
    32   18   17 ar   
    33   50   17 1    
    34   19   18 ar   
    35   51   18 1    
    36   52   19 1    
    37   21   20 1    
    38   22   20 1    
    39   53   20 1    
    40   71   21 1    
    41   23   22 1    
    42   54   22 1    
    43   55   22 1    
    44   24   23 1    
    45   30   23 1    
    46   25   24 1    
    47   56   24 1    
    48   57   24 1    
    49   26   25 2    
    50   29   25 1    
    51   27   26 1    
    52   58   26 1    
    53   28   27 2    
    54   59   27 1    
    55   29   28 1    
    56   60   28 1    
    57   31   30 2    
    58   32   30 2    
    59   33   30 1    
    60   34   33 ar   
    61   40   33 ar   
    62   35   34 ar   
    63   61   34 1    
    64   36   35 1    
    65   38   35 ar   
    66   37   36 1    
    67   68   37 1    
    68   69   37 1    
    69   70   37 1    
    70   39   38 ar   
    71   62   38 1    
    72   40   39 ar   
    73   63   39 1    
    74   64   40 1    
@<TRIPOS>SUBSTRUCTURE
     1 MZ3200      1 GROUP   
@<TRIPOS>SET

