#    Name: 3h52_486_1_INTS_M
#    Modification time : Tue Mar 25 13:35:47 2014

@<TRIPOS>MOLECULE
3h52_486_1_INTS_M
   91     0     6     0     0
SMALL
NO_CHARGES


@<TRIPOS>ATOM
      1 N         -50.2780   16.2310  -37.1960 N.am      1 SEC2        0.0000 
      2 N         -50.2650   15.0510  -37.7710 N.am      5 SEL2        0.0000 
      3 N         -50.2910   17.4110  -36.6210 N.am      3 SEP2        0.0000 
      4 CA        -50.5335   15.7110  -41.5395 C.3       2 GLC5        0.0000 
      5 CA        -49.3600   15.6690  -39.8470 C.3       6 GLL5        0.0000 
      6 CA        -51.7070   15.7530  -43.2320 C.3       4 GLP5        0.0000 
      7 CA        -50.8055   17.2880  -39.9890 C.3       2 GLC5        0.0000 
      8 CA        -52.2510   18.9070  -40.1310 C.3       4 GLP5        0.0000 
      9 CA        -50.7645   14.4245  -40.2780 C.3       2 GLC5        0.0000 
     10 CA        -52.1690   13.1800  -40.7090 C.3       4 GLP5        0.0000 
     11 CA        -49.6220   12.4220  -37.2435 C.3       2 GLC5        0.0000 
     12 CA        -48.4030   13.8470  -38.3380 C.3       6 GLL5        0.0000 
     13 CA        -50.8410   10.9970  -36.1490 C.3       4 GLP5        0.0000 
     14 CA        -50.2860   13.5135  -39.5235 C.3       2 GLC5        0.0000 
     15 CA        -46.5470   11.1525  -37.2565 C.3       2 GLC5        0.0000 
     16 CA        -46.3740   12.5250  -38.9910 C.3       6 GLL5        0.0000 
     17 CA        -46.7200    9.7800  -35.5220 C.3       4 GLP5        0.0000 
     18 CA        -41.1840   19.9590  -44.6760 C.3       2 GLC5        0.0000 
     19 CA        -41.5600   18.8200  -43.4110 C.3       6 GLL5        0.0000 
     20 CA        -40.8080   21.0980  -45.9410 C.3       4 GLP5        0.0000 
     21 CA        -40.4955   16.9410  -43.6605 C.3       2 GLC5        0.0000 
     22 CA        -39.4310   15.0620  -43.9100 C.3       4 GLP5        0.0000 
     23 CA        -42.7710   20.1600  -40.5595 C.3       2 GLC5        0.0000 
     24 CA        -41.6120   18.5230  -40.8850 C.3       6 GLL5        0.0000 
     25 CA        -43.9300   21.7970  -40.2340 C.3       4 GLP5        0.0000 
     26 CA        -41.7505   18.7055  -39.1815 C.3       2 GLC5        0.0000 
     27 CA        -41.8890   18.8880  -37.4780 C.3       4 GLP5        0.0000 
     28 CA        -41.2785   16.6165  -39.9390 C.3       2 GLC5        0.0000 
     29 CA        -40.9450   14.7100  -38.9930 C.3       4 GLP5        0.0000 
     30 CA        -43.0875   12.1270  -42.2315 C.3       2 GLC5        0.0000 
     31 CA        -44.1710   12.8510  -43.6990 C.3       6 GLL5        0.0000 
     32 CA        -42.0040   11.4030  -40.7640 C.3       4 GLP5        0.0000 
     33 CA        -42.4825   13.6420  -43.9220 C.3       2 GLC5        0.0000 
     34 CA        -40.7940   14.4330  -44.1450 C.3       4 GLP5        0.0000 
     35 CA        -47.3210   12.3960  -47.0815 C.3       2 GLC5        0.0000 
     36 CA        -47.2780   11.3250  -45.3220 C.3       6 GLL5        0.0000 
     37 CA        -47.3640   13.4670  -48.8410 C.3       4 GLP5        0.0000 
     38 CA        -50.9500   11.1440  -44.0025 C.3       2 GLC5        0.0000 
     39 CA        -49.8680   10.8670  -45.6950 C.3       6 GLL5        0.0000 
     40 CA        -52.0320   11.4210  -42.3100 C.3       4 GLP5        0.0000 
     41 CA        -50.8470   10.6800  -47.5225 C.3       2 GLC5        0.0000 
     42 CA        -51.8260   10.4930  -49.3500 C.3       4 GLP5        0.0000 
     43 CA        -48.9080    8.8885  -45.7620 C.3       2 GLC5        0.0000 
     44 CA        -47.9480    6.9100  -45.8290 C.3       4 GLP5        0.0000 
     45 CA        -49.3830    9.4685  -44.2210 C.3       2 GLC5        0.0000 
     46 CA        -48.8980    8.0700  -42.7470 C.3       4 GLP5        0.0000 
     47 CA        -43.1780   10.2205  -45.1290 C.3       2 GLC5        0.0000 
     48 CA        -45.2220   10.2730  -44.4130 C.3       6 GLL5        0.0000 
     49 CA        -41.1340   10.1680  -45.8450 C.3       4 GLP5        0.0000 
     50 CA        -43.7355   10.9265  -41.8265 C.3       2 GLC5        0.0000 
     51 CA        -45.4670   10.4500  -42.8890 C.3       6 GLL5        0.0000 
     52 CA        -47.1825    9.2600  -42.8180 C.3       2 GLC5        0.0000 
     53 CA        -47.6485   10.3750  -41.9865 C.3       2 GLC5        0.0000 
     54 CA        -46.2360   11.7760  -42.7560 C.3       6 GLL5        0.0000 
     55 CA        -49.0610    8.9740  -41.2170 C.3       4 GLP5        0.0000 
     56 CA        -47.7005   10.3290  -40.7415 C.3       2 GLC5        0.0000 
     57 CA        -46.3400   11.6840  -40.2660 C.3       6 GLL5        0.0000 
     58 CA        -47.4663   17.2263  -40.2797 C.3       2 GLC5        0.0000 
     59 CA        -47.9990   15.6800  -40.5460 C.3       6 GLL5        0.0000 
     60 CA        -46.2530   18.7780  -40.3630 C.3       4 GLP5        0.0000 
     61 CA        -46.2336   13.5759  -37.1446 C.3       2 GLC5        0.0000 
     62 CA        -45.3240   14.0320  -35.4020 C.3       4 GLP5        0.0000 
     63 CA        -48.2320   15.3615  -44.1690 C.3       2 GLC5        0.0000 
     64 CA        -46.5560   14.6920  -42.7820 C.3       6 GLL5        0.0000 
     65 CA        -49.9690   16.4340  -44.8980 C.3       4 GLP5        0.0000 
     66 CA        -45.6698   17.3528  -41.7720 C.3       2 GLC5        0.0000 
     67 CA        -44.7920   16.2210  -43.7360 C.3       6 GLL5        0.0000 
     68 CA        -45.4269   17.7976  -44.3142 C.3       2 GLC5        0.0000 
     69 CA        -43.7130   17.0810  -43.6220 C.3       6 GLL5        0.0000 
     70 CA        -46.4540   19.0910  -45.2270 C.3       4 GLP5        0.0000 
     71 CA        -44.8595   17.9987  -41.6775 C.3       2 GLC5        0.0000 
     72 CA        -42.2649   15.7188  -43.5828 C.3       2 GLC5        0.0000 
     73 CA        -43.2190   17.3580  -42.3620 C.3       6 GLL5        0.0000 
     74 CA        -45.2985   17.5607  -40.8367 C.3       2 GLC5        0.0000 
     75 CA        -43.8060   16.7690  -41.2480 C.3       6 GLL5        0.0000 
     76 CA        -44.9678    9.7828  -46.3585 C.3       2 GLC5        0.0000 
     77 CA        -45.8410   11.5340  -45.0490 C.3       6 GLL5        0.0000 
     78 CA        -44.4040    8.6620  -47.9860 C.3       4 GLP5        0.0000 
     79 CA        -47.6358    9.3100  -46.2805 C.3       2 GLC5        0.0000 
     80 CA        -47.4140    7.3730  -47.1570 C.3       4 GLP5        0.0000 
     81 CA        -48.3778    9.6585  -44.0755 C.3       2 GLC5        0.0000 
     82 CA        -48.4370   11.1690  -45.4860 C.3       6 GLL5        0.0000 
     83 CA        -49.1512   12.1155  -47.2882 C.3       2 GLC5        0.0000 
     84 CA        -49.1500   13.2130  -48.9860 C.3       4 GLP5        0.0000 
     85 CA        -50.2152   12.6800  -45.4432 C.3       2 GLC5        0.0000 
     86 CA        -51.2780   14.3420  -45.2960 C.3       4 GLP5        0.0000 
     87 CA        -45.2237    8.6197  -43.0250 C.3       2 GLC5        0.0000 
     88 CA        -45.1030    6.8780  -42.3990 C.3       4 GLP5        0.0000 
     89 CA        -44.5055   11.7036  -39.8799 C.3       2 GLC5        0.0000 
     90 CA        -45.9370   12.5220  -41.4670 C.3       6 GLL5        0.0000 
     91 CA        -42.8640   11.0940  -39.2120 C.3       4 GLP5        0.0000 
@<TRIPOS>BOND
@<TRIPOS>SUBSTRUCTURE
     1 SEC2        1 GROUP        1 X    SEC  0     ROOT SEC X 2
     2 GLC5        4 GROUP        1 X    GLC  0     **** GLC X 6
     3 SEP2        3 GROUP        1 Y    SEP  0     ROOT SEP Y 9
     4 GLP5        6 GROUP        1 Y    GLP  0     **** GLP Y 13
     5 SEL2        2 GROUP        1 Z    SEL  0     ROOT SEL Z 16
     6 GLL5        5 GROUP        1 Z    GLL  0     **** GLL Z 20
@<TRIPOS>SET

