#    Name: 3h52_486_1_ligand
#    Modification time : Tue Mar 25 13:35:47 2014

@<TRIPOS>MOLECULE
3h52_486_1_ligand
   67    71     1     0     0
SMALL
NO_CHARGES


@<TRIPOS>ATOM
      1 O30       -50.2650   15.0510  -37.7710 O.2       1 4863        0.0000 
      2 C2        -49.3730   14.8450  -38.5840 C.2       1 4863        0.0000 
      3 C1        -49.3600   15.6690  -39.8470 C.3       1 4863        0.0000 
      4 C3        -48.4030   13.8470  -38.3380 C.2       1 4863        0.0000 
      5 C4        -47.4220   13.5820  -39.2290 C.2       1 4863        0.0000 
      6 C7        -46.3740   12.5250  -38.9910 C.3       1 4863        0.0000 
      7 C5        -47.3230   14.3280  -40.4790 C.2       1 4863        0.0000 
      8 C6        -47.9990   15.6800  -40.5460 C.3       1 4863        0.0000 
      9 C10       -46.6400   13.8450  -41.5240 C.2       1 4863        0.0000 
     10 C14       -46.5560   14.6920  -42.7820 C.3       1 4863        0.0000 
     11 C18       -45.3810   15.6340  -42.6260 C.ar      1 4863        0.0000 
     12 C22       -44.7920   16.2210  -43.7360 C.ar      1 4863        0.0000 
     13 C23       -43.7130   17.0810  -43.6220 C.ar      1 4863        0.0000 
     14 C24       -43.2190   17.3580  -42.3620 C.ar      1 4863        0.0000 
     15 N27       -42.1420   18.2250  -42.2190 N.pl3     1 4863        0.0000 
     16 C29       -41.5600   18.8200  -43.4110 C.3       1 4863        0.0000 
     17 C28       -41.6120   18.5230  -40.8850 C.3       1 4863        0.0000 
     18 C25       -43.8060   16.7690  -41.2480 C.ar      1 4863        0.0000 
     19 C26       -44.8820   15.9180  -41.3730 C.ar      1 4863        0.0000 
     20 C13       -46.4340   13.8860  -44.0980 C.3       1 4863        0.0000 
     21 C12       -45.6570   12.5860  -43.9430 C.3       1 4863        0.0000 
     22 C19       -44.1710   12.8510  -43.6990 C.3       1 4863        0.0000 
     23 C17       -45.8410   11.5340  -45.0490 C.3       1 4863        0.0000 
     24 C31       -47.2780   11.3250  -45.3220 C.1       1 4863        0.0000 
     25 C30       -48.4370   11.1690  -45.4860 C.1       1 4863        0.0000 
     26 C32       -49.8680   10.8670  -45.6950 C.3       1 4863        0.0000 
     27 O3        -45.1630   11.8290  -46.2740 O.3       1 4863        0.0000 
     28 C16       -45.2220   10.2730  -44.4130 C.3       1 4863        0.0000 
     29 C15       -45.4670   10.4500  -42.8890 C.3       1 4863        0.0000 
     30 C11       -46.2360   11.7760  -42.7560 C.3       1 4863        0.0000 
     31 C9        -45.9370   12.5220  -41.4670 C.3       1 4863        0.0000 
     32 C8        -46.3400   11.6840  -40.2660 C.3       1 4863        0.0000 
     33 H         -49.6431   16.7067  -39.6119 H         1 4863        0.0000 
     34 H         -50.1128   15.2779  -40.5488 H         1 4863        0.0000 
     35 H         -48.4686   13.3189  -37.4426 H         1 4863        0.0000 
     36 H         -46.6544   11.9059  -38.1648 H         1 4863        0.0000 
     37 H         -45.4176   12.9801  -38.8403 H         1 4863        0.0000 
     38 H         -47.3624   16.4317  -40.0696 H         1 4863        0.0000 
     39 H         -48.1407   15.9671  -41.5923 H         1 4863        0.0000 
     40 H         -47.4595   15.3072  -42.8420 H         1 4863        0.0000 
     41 H         -45.1735   16.0079  -44.6830 H         1 4863        0.0000 
     42 H         -43.2924   17.5008  -44.4522 H         1 4863        0.0000 
     43 H         -43.4217   16.9781  -40.3052 H         1 4863        0.0000 
     44 H         -45.3103   15.4972  -40.5372 H         1 4863        0.0000 
     45 H         -45.9410   14.5191  -44.8484 H         1 4863        0.0000 
     46 H         -47.4458   13.6655  -44.4650 H         1 4863        0.0000 
     47 H         -44.1809   10.2510  -44.6003 H         1 4863        0.0000 
     48 H         -45.7342    9.4117  -44.7525 H         1 4863        0.0000 
     49 H         -44.5326   10.5235  -42.3906 H         1 4863        0.0000 
     50 H         -46.0666    9.6485  -42.5356 H         1 4863        0.0000 
     51 H         -47.2471   11.6251  -42.9189 H         1 4863        0.0000 
     52 H         -44.8636   12.6957  -41.4310 H         1 4863        0.0000 
     53 H         -47.3292   11.2558  -40.4375 H         1 4863        0.0000 
     54 H         -45.6265   10.8683  -40.1365 H         1 4863        0.0000 
     55 H         -40.7951   19.4246  -43.1887 H         1 4863        0.0000 
     56 H         -41.2114   18.1255  -44.0404 H         1 4863        0.0000 
     57 H         -42.2275   19.3659  -43.9174 H         1 4863        0.0000 
     58 H         -41.2888   17.6982  -40.4210 H         1 4863        0.0000 
     59 H         -40.8406   19.1580  -40.9252 H         1 4863        0.0000 
     60 H         -42.3038   18.9392  -40.2950 H         1 4863        0.0000 
     61 H         -43.6547   12.0012  -43.5932 H         1 4863        0.0000 
     62 H         -43.7544   13.3547  -44.4558 H         1 4863        0.0000 
     63 H         -44.0211   13.3902  -42.8703 H         1 4863        0.0000 
     64 H         -50.0242   10.3879  -46.5588 H         1 4863        0.0000 
     65 H         -50.2353   10.2873  -44.9677 H         1 4863        0.0000 
     66 H         -50.4237   11.6981  -45.7162 H         1 4863        0.0000 
     67 H         -44.5856   12.4064  -45.6966 H         1 4863        0.0000 
@<TRIPOS>BOND
     1    2    1 2    
     2    3    2 1    
     3    4    2 1    
     4    8    3 1    
     5   33    3 1    
     6   34    3 1    
     7    5    4 2    
     8   35    4 1    
     9    6    5 1    
    10    7    5 1    
    11   32    6 1    
    12   36    6 1    
    13   37    6 1    
    14    8    7 1    
    15    9    7 2    
    16   38    8 1    
    17   39    8 1    
    18   10    9 1    
    19   31    9 1    
    20   11   10 1    
    21   20   10 1    
    22   40   10 1    
    23   12   11 ar   
    24   19   11 ar   
    25   13   12 ar   
    26   41   12 1    
    27   14   13 ar   
    28   42   13 1    
    29   15   14 1    
    30   18   14 ar   
    31   16   15 1    
    32   17   15 1    
    33   55   16 1    
    34   56   16 1    
    35   57   16 1    
    36   58   17 1    
    37   59   17 1    
    38   60   17 1    
    39   19   18 ar   
    40   43   18 1    
    41   44   19 1    
    42   21   20 1    
    43   45   20 1    
    44   46   20 1    
    45   22   21 1    
    46   23   21 1    
    47   30   21 1    
    48   61   22 1    
    49   62   22 1    
    50   63   22 1    
    51   24   23 1    
    52   27   23 1    
    53   28   23 1    
    54   25   24 3    
    55   26   25 1    
    56   64   26 1    
    57   65   26 1    
    58   66   26 1    
    59   67   27 1    
    60   29   28 1    
    61   47   28 1    
    62   48   28 1    
    63   30   29 1    
    64   49   29 1    
    65   50   29 1    
    66   31   30 1    
    67   51   30 1    
    68   32   31 1    
    69   52   31 1    
    70   53   32 1    
    71   54   32 1    
@<TRIPOS>SUBSTRUCTURE
     1 4863        1 GROUP   
@<TRIPOS>SET

