#    Name: 1aon_ADP_2_INTS_M
#    Modification time : Mon Mar 24 18:37:39 2014

@<TRIPOS>MOLECULE
1aon_ADP_2_INTS_M
   79     0    15     0     0
SMALL
NO_CHARGES


@<TRIPOS>ATOM
      1 Zn         42.1355  -83.2345  -20.1770 Zn        4 ZIC7        0.0000 
      2 Zn         42.7800  -83.9070  -19.6130 Zn       14 ZIL7        0.0000 
      3 Zn         41.4910  -82.5620  -20.7410 Zn        9 ZIP7        0.0000 
      4 N          43.9325  -84.4750  -20.6340 N.am      2 SEC2        0.0000 
      5 N          42.7800  -83.9070  -19.6130 N.am     12 SEL2        0.0000 
      6 N          45.0850  -85.0430  -21.6550 N.am      7 SEP2        0.0000 
      7 N          45.8645  -84.6465  -17.3540 N.am      2 SEC2        0.0000 
      8 N          44.9740  -84.4930  -18.5070 N.am     12 SEL2        0.0000 
      9 N          46.7550  -84.8000  -16.2010 N.am      7 SEP2        0.0000 
     10 N          44.7085  -85.2810  -17.5925 N.am      2 SEC2        0.0000 
     11 N          44.4430  -86.0690  -16.6780 N.am      7 SEP2        0.0000 
     12 N          46.1485  -82.5000  -18.6845 N.am      2 SEC2        0.0000 
     13 N          44.5870  -82.1380  -19.3180 N.am     12 SEL2        0.0000 
     14 N          47.7100  -82.8620  -18.0510 N.am      7 SEP2        0.0000 
     15 N          45.3025  -81.5230  -18.1950 N.am      2 SEC2        0.0000 
     16 N          46.0180  -80.9080  -17.0720 N.am      7 SEP2        0.0000 
     17 NZ         41.0070  -80.4515  -15.7960 N.4       3 LYC4        0.0000 
     18 NZ         41.7490  -82.0300  -15.9050 N.4      13 LYL4        0.0000 
     19 NZ         40.2650  -78.8730  -15.6870 N.4       8 LYP4        0.0000 
     20 N          41.0655  -81.9985  -14.8100 N.am      2 SEC2        0.0000 
     21 N          41.7490  -82.0300  -15.9050 N.am     12 SEL2        0.0000 
     22 N          40.3820  -81.9670  -13.7150 N.am      7 SEP2        0.0000 
     23 Zn         41.4030  -82.3755  -19.5915 Zn        4 ZIC7        0.0000 
     24 Zn         41.3150  -82.1890  -18.4420 Zn       14 ZIL7        0.0000 
     25 N          43.9370  -84.5960  -17.0540 N.am      2 SEC2        0.0000 
     26 N          43.4310  -83.1230  -17.4300 N.am     12 SEL2        0.0000 
     27 CA         41.8455  -84.0815  -15.1595 C.3       5 GLC5        0.0000 
     28 CA         40.2110  -84.3650  -16.0120 C.3      15 GLL5        0.0000 
     29 CA         43.4800  -83.7980  -14.3070 C.3      10 GLP5        0.0000 
     30 CA         39.7340  -86.3805  -13.9235 C.3       5 GLC5        0.0000 
     31 CA         39.7940  -85.8170  -15.9360 C.3      15 GLL5        0.0000 
     32 CA         39.6740  -86.9440  -11.9110 C.3      10 GLP5        0.0000 
     33 O          39.0275  -88.1490  -18.5445 O.2       1 ALC1        0.0000 
     34 O          40.0640  -86.8880  -18.0790 O.2      11 ALL1        0.0000 
     35 O          37.9910  -89.4100  -19.0100 O.2       6 ALP1        0.0000 
     36 CA         37.5615  -89.5205  -16.5650 C.3       5 GLC5        0.0000 
     37 CA         38.2480  -87.4950  -16.5790 C.3      15 GLL5        0.0000 
     38 CA         36.8750  -91.5460  -16.5510 C.3      10 GLP5        0.0000 
     39 N          38.1520  -89.4460  -15.3595 N.am      2 SEC2        0.0000 
     40 N          39.0130  -88.6290  -16.2190 N.am     12 SEL2        0.0000 
     41 N          37.2910  -90.2630  -14.5000 N.am      7 SEP2        0.0000 
     42 O          38.5020  -89.0195  -17.6145 O.2       1 ALC1        0.0000 
     43 O          39.0130  -88.6290  -16.2190 O.2      11 ALL1        0.0000 
     44 O          39.1075  -89.7135  -17.0030 O.2       1 ALC1        0.0000 
     45 O          39.2020  -90.7980  -17.7870 O.2       6 ALP1        0.0000 
     46 CA         38.7365  -86.9015  -13.5925 C.3       5 GLC5        0.0000 
     47 CA         37.7990  -86.8590  -15.2740 C.3      15 GLL5        0.0000 
     48 CA         34.1615  -83.8450  -13.0700 C.3       5 GLC5        0.0000 
     49 CA         33.4220  -85.3710  -13.7220 C.3      15 GLL5        0.0000 
     50 CA         34.9010  -82.3190  -12.4180 C.3      10 GLP5        0.0000 
     51 CA         31.8680  -84.1440  -12.8860 C.3       5 GLC5        0.0000 
     52 CA         30.3140  -82.9170  -12.0500 C.3      10 GLP5        0.0000 
     53 CA         32.3175  -87.0630  -14.0865 C.3       5 GLC5        0.0000 
     54 CA         31.2130  -88.7550  -14.4510 C.3      10 GLP5        0.0000 
     55 N          33.0255  -86.2610  -11.0205 N.am      2 SEC2        0.0000 
     56 N          33.4760  -86.1440  -12.5970 N.am     12 SEL2        0.0000 
     57 N          32.5750  -86.3780   -9.4440 N.am      7 SEP2        0.0000 
     58 CA         36.0010  -88.5150  -12.7320 C.3       5 GLC5        0.0000 
     59 CA         34.5600  -86.9170  -12.4010 C.3      15 GLL5        0.0000 
     60 CA         37.4420  -90.1130  -13.0630 C.3      10 GLP5        0.0000 
     61 CA         32.8530  -87.5710  -11.1975 C.3       5 GLC5        0.0000 
     62 CA         31.1460  -88.2250   -9.9940 C.3      10 GLP5        0.0000 
     63 CA         34.4430  -85.8040  -10.8475 C.3       5 GLC5        0.0000 
     64 CA         34.3260  -84.6910   -9.2940 C.3      10 GLP5        0.0000 
     65 CA         33.9335  -88.9390  -12.9725 C.3       5 GLC5        0.0000 
     66 CA         33.3070  -90.9610  -13.5440 C.3      10 GLP5        0.0000 
     67 CA         32.8865  -87.8360  -13.4260 C.3       5 GLC5        0.0000 
     68 CA         36.5040  -88.2020  -13.6745 C.3       5 GLC5        0.0000 
     69 CA         35.5660  -86.2910  -14.2860 C.3      15 GLL5        0.0000 
     70 CA         39.4808  -83.6685  -14.7730 C.3       5 GLC5        0.0000 
     71 CA         38.9590  -82.2460  -13.5720 C.3      10 GLP5        0.0000 
     72 CA         37.7327  -88.6450  -14.4947 C.3       5 GLC5        0.0000 
     73 CA         35.5795  -84.2897  -13.8448 C.3       5 GLC5        0.0000 
     74 CA         36.1130  -82.7120  -13.2280 C.3      10 GLP5        0.0000 
     75 CA         34.2480  -85.8762  -16.3488 C.3       5 GLC5        0.0000 
     76 CA         34.5260  -85.4440  -14.6370 C.3      15 GLL5        0.0000 
     77 CA         33.4500  -85.8850  -18.2360 C.3      10 GLP5        0.0000 
     78 CA         34.3700  -87.4673  -15.2808 C.3       5 GLC5        0.0000 
     79 CA         33.6940  -89.0670  -16.1000 C.3      10 GLP5        0.0000 
@<TRIPOS>BOND
@<TRIPOS>SUBSTRUCTURE
     1 ALC1       33 GROUP        1 X    ALC  0     ROOT ALC X 1
     2 SEC2        4 GROUP        1 X    SEC  0     **** SEC X 2
     3 LYC4       17 GROUP        1 X    LYC  0     **** LYC X 4
     4 ZIC7        1 GROUP        1 X    ZIC  0     **** ZIC X 5
     5 GLC5       27 GROUP        1 X    GLC  0     **** GLC X 6
     6 ALP1       35 GROUP        1 Y    ALP  0     ROOT ALP Y 8
     7 SEP2        6 GROUP        1 Y    SEP  0     **** SEP Y 9
     8 LYP4       19 GROUP        1 Y    LYP  0     **** LYP Y 11
     9 ZIP7        3 GROUP        1 Y    ZIP  0     **** ZIP Y 12
    10 GLP5       29 GROUP        1 Y    GLP  0     **** GLP Y 13
    11 ALL1       34 GROUP        1 Z    ALL  0     ROOT ALL Z 15
    12 SEL2        5 GROUP        1 Z    SEL  0     **** SEL Z 16
    13 LYL4       18 GROUP        1 Z    LYL  0     **** LYL Z 18
    14 ZIL7        2 GROUP        1 Z    ZIL  0     **** ZIL Z 19
    15 GLL5       28 GROUP        1 Z    GLL  0     **** GLL Z 20
@<TRIPOS>SET

