#    Name: 1aon_ADP_2_ligand
#    Modification time : Mon Mar 24 18:37:39 2014

@<TRIPOS>MOLECULE
1aon_ADP_2_ligand
   39    41     1     0     0
SMALL
NO_CHARGES


@<TRIPOS>ATOM
      1 PB         44.0050  -83.4480  -18.8890 P.3       1 ADP1        0.0000 
      2 O1B        42.7800  -83.9070  -19.6130 O.co2     1 ADP1        0.0000 
      3 O2B        44.9740  -84.4930  -18.5070 O.co2     1 ADP1        0.0000 
      4 O3B        44.5870  -82.1380  -19.3180 O.co2     1 ADP1        0.0000 
      5 PA         41.8930  -82.7640  -17.1940 P.3       1 ADP1        0.0000 
      6 O1A        41.7490  -82.0300  -15.9050 O.co2     1 ADP1        0.0000 
      7 O2A        41.3150  -82.1890  -18.4420 O.co2     1 ADP1        0.0000 
      8 O3A        43.4310  -83.1230  -17.4300 O.3       1 ADP1        0.0000 
      9 O5'        41.2440  -84.1960  -16.9700 O.3       1 ADP1        0.0000 
     10 C5'        40.2110  -84.3650  -16.0120 C.3       1 ADP1        0.0000 
     11 C4'        39.7940  -85.8170  -15.9360 C.3       1 ADP1        0.0000 
     12 O4'        38.8030  -85.9350  -14.8900 O.3       1 ADP1        0.0000 
     13 C3'        39.1010  -86.3770  -17.1660 C.3       1 ADP1        0.0000 
     14 O3'        40.0640  -86.8880  -18.0790 O.3       1 ADP1        0.0000 
     15 C2'        38.2480  -87.4950  -16.5790 C.3       1 ADP1        0.0000 
     16 O2'        39.0130  -88.6290  -16.2190 O.3       1 ADP1        0.0000 
     17 C1'        37.7990  -86.8590  -15.2740 C.3       1 ADP1        0.0000 
     18 N9         36.5110  -86.1640  -15.2880 N.pl3     1 ADP1        0.0000 
     19 C8         35.9860  -85.2720  -16.1960 C.2       1 ADP1        0.0000 
     20 N7         34.8050  -84.8040  -15.8510 N.2       1 ADP1        0.0000 
     21 C5         34.5260  -85.4440  -14.6370 C.ar      1 ADP1        0.0000 
     22 C6         33.4220  -85.3710  -13.7220 C.ar      1 ADP1        0.0000 
     23 N6         32.3440  -84.5850  -13.9030 N.pl3     1 ADP1        0.0000 
     24 N1         33.4760  -86.1440  -12.5970 N.ar      1 ADP1        0.0000 
     25 C2         34.5600  -86.9170  -12.4010 C.ar      1 ADP1        0.0000 
     26 N3         35.6480  -87.0620  -13.1710 N.ar      1 ADP1        0.0000 
     27 C4         35.5660  -86.2910  -14.2860 C.ar      1 ADP1        0.0000 
     28 H          39.3196  -83.7695  -16.2656 H         1 ADP1        0.0000 
     29 H          40.5337  -84.0523  -15.0062 H         1 ADP1        0.0000 
     30 H          40.6353  -86.4343  -15.6952 H         1 ADP1        0.0000 
     31 H          38.4679  -85.6389  -17.5613 H         1 ADP1        0.0000 
     32 H          37.4235  -87.6682  -17.1682 H         1 ADP1        0.0000 
     33 H          37.7676  -87.6633  -14.5157 H         1 ADP1        0.0000 
     34 H          36.4801  -85.0236  -17.0296 H         1 ADP1        0.0000 
     35 H          32.3136  -84.0702  -14.7598 H         1 ADP1        0.0000 
     36 H          31.6697  -84.5860  -13.1645 H         1 ADP1        0.0000 
     37 H          34.5503  -87.5183  -11.4707 H         1 ADP1        0.0000 
     38 H          39.6197  -87.6727  -18.5113 H         1 ADP1        0.0000 
     39 H          38.9259  -89.2562  -16.9930 H         1 ADP1        0.0000 
@<TRIPOS>BOND
     1    2    1 ar   
     2    3    1 ar   
     3    4    1 ar   
     4    8    1 1    
     5    6    5 ar   
     6    7    5 ar   
     7    8    5 1    
     8    9    5 1    
     9   10    9 1    
    10   11   10 1    
    11   28   10 1    
    12   29   10 1    
    13   12   11 1    
    14   13   11 1    
    15   30   11 1    
    16   17   12 1    
    17   14   13 1    
    18   15   13 1    
    19   31   13 1    
    20   38   14 1    
    21   16   15 1    
    22   17   15 1    
    23   32   15 1    
    24   39   16 1    
    25   18   17 1    
    26   33   17 1    
    27   19   18 1    
    28   27   18 1    
    29   20   19 2    
    30   34   19 1    
    31   21   20 1    
    32   22   21 ar   
    33   27   21 ar   
    34   23   22 1    
    35   24   22 ar   
    36   35   23 1    
    37   36   23 1    
    38   25   24 ar   
    39   26   25 ar   
    40   37   25 1    
    41   27   26 ar   
@<TRIPOS>SUBSTRUCTURE
     1 ADP1        1 GROUP   
@<TRIPOS>SET

