#    Name: 1bb0_0IV_1_INTS_M
#    Modification time : Mon Mar 24 19:28:50 2014

@<TRIPOS>MOLECULE
1bb0_0IV_1_INTS_M
   86     0    12     0     0
SMALL
NO_CHARGES


@<TRIPOS>ATOM
      1 CA         17.9090  -15.1245   26.9885 C.3       4 GLC5        0.0000 
      2 CA         18.4750  -17.0660   26.1510 C.3      12 GLL5        0.0000 
      3 CA         17.3430  -13.1830   27.8260 C.3       8 GLP5        0.0000 
      4 CA         16.7330  -17.1440   27.1515 C.3       4 GLC5        0.0000 
      5 CA         14.9910  -17.2220   28.1520 C.3       8 GLP5        0.0000 
      6 CA         21.1110  -14.2020   28.1395 C.3       4 GLC5        0.0000 
      7 CA         20.7650  -14.1190   25.9670 C.3      12 GLL5        0.0000 
      8 CA         21.4570  -14.2850   30.3120 C.3       8 GLP5        0.0000 
      9 O          16.1845  -15.8855   24.3760 O.2       1 ALC1        0.0000 
     10 O          17.4920  -16.3810   23.6000 O.2       9 ALL1        0.0000 
     11 O          14.8770  -15.3900   25.1520 O.2       5 ALP1        0.0000 
     12 CA         21.6555  -15.6305   19.9160 C.3       4 GLC5        0.0000 
     13 CA         20.1430  -15.6500   20.9750 C.3      12 GLL5        0.0000 
     14 CA         23.1680  -15.6110   18.8570 C.3       8 GLP5        0.0000 
     15 CA         21.7400  -14.6755   20.3670 C.3       4 GLC5        0.0000 
     16 CA         19.7760  -14.2200   20.6820 C.3      12 GLL5        0.0000 
     17 CA         23.7040  -15.1310   20.0520 C.3       8 GLP5        0.0000 
     18 CA         19.2850  -15.5295   19.2550 C.3       4 GLC5        0.0000 
     19 CA         18.7940  -16.8390   17.8280 C.3       8 GLP5        0.0000 
     20 CA         20.3480  -12.5520   21.7435 C.3       4 GLC5        0.0000 
     21 CA         20.9200  -10.8840   22.8050 C.3       8 GLP5        0.0000 
     22 N          15.9505  -13.3990   24.1620 N.am      2 SEC2        0.0000 
     23 N          16.9460  -13.9800   22.9600 N.am     10 SEL2        0.0000 
     24 N          14.9550  -12.8180   25.3640 N.am      6 SEP2        0.0000 
     25 CA         18.8235  -11.2180   19.8930 C.3       4 GLC5        0.0000 
     26 CA         18.1290  -12.3510   21.4180 C.3      12 GLL5        0.0000 
     27 CA         19.5180  -10.0850   18.3680 C.3       8 GLP5        0.0000 
     28 CA         19.5245  -11.6175   22.1115 C.3       4 GLC5        0.0000 
     29 CA         17.8535  -11.9205   23.1570 C.3       4 GLC5        0.0000 
     30 CA         17.5780  -11.4900   24.8960 C.3       8 GLP5        0.0000 
     31 CA          9.9345  -14.5870   21.4430 C.3       4 GLC5        0.0000 
     32 CA         11.6690  -13.8310   21.5510 C.3      12 GLL5        0.0000 
     33 CA          8.2000  -15.3430   21.3350 C.3       8 GLP5        0.0000 
     34 CA         13.0950  -13.6755   24.6865 C.3       4 GLC5        0.0000 
     35 CA         12.2190  -13.8810   23.1160 C.3      12 GLL5        0.0000 
     36 CA         13.9710  -13.4700   26.2570 C.3       8 GLP5        0.0000 
     37 O          16.3940  -10.5510   21.4385 O.2       1 ALC1        0.0000 
     38 O          15.8250  -11.7010   20.5730 O.2       9 ALL1        0.0000 
     39 O          16.9630   -9.4010   22.3040 O.2       5 ALP1        0.0000 
     40 N          12.7535  -10.9665   16.6335 N.am      2 SEC2        0.0000 
     41 N          13.9280  -10.6470   17.5260 N.am     10 SEL2        0.0000 
     42 N          11.5790  -11.2860   15.7410 N.am      6 SEP2        0.0000 
     43 N          13.4085   -9.0660   17.7000 N.am      2 SEC2        0.0000 
     44 N          12.8890   -7.4850   17.8740 N.am      6 SEP2        0.0000 
     45 CA         13.0375   -8.9690   21.0785 C.3       4 GLC5        0.0000 
     46 CA         13.6810  -10.9870   20.6100 C.3      12 GLL5        0.0000 
     47 CA         12.3940   -6.9510   21.5470 C.3       8 GLP5        0.0000 
     48 OD1         9.2775  -11.6315   25.6160 O.co2     3 ASC3        0.0000 
     49 OD1        11.2960  -11.9580   24.5990 O.co2    11 ASL3        0.0000 
     50 OD1         7.9930  -10.5250   25.9900 O.co2     7 ASP3        0.0000 
     51 OD1         9.1805  -12.6995   25.6780 O.co2     3 ASC3        0.0000 
     52 OD1         7.7990  -12.6610   26.1140 O.co2     7 ASP3        0.0000 
     53 CA         14.6100  -11.3000   23.6625 C.3       4 GLC5        0.0000 
     54 CA         13.0430  -11.6160   22.8430 C.3      12 GLL5        0.0000 
     55 CA         16.1770  -10.9840   24.4820 C.3       8 GLP5        0.0000 
     56 CA         13.5070  -12.5430   24.5500 C.3       4 GLC5        0.0000 
     57 O           9.5200  -10.6035   25.3610 O.2       1 ALC1        0.0000 
     58 O          11.0470  -10.6820   24.7320 O.2       9 ALL1        0.0000 
     59 O           7.9930  -10.5250   25.9900 O.2       5 ALP1        0.0000 
     60 O           9.2775  -11.6315   25.6160 O.2       1 ALC1        0.0000 
     61 O          10.5620  -12.7380   25.2420 O.2       9 ALL1        0.0000 
     62 O           9.1805  -12.6995   25.6780 O.2       1 ALC1        0.0000 
     63 O           7.7990  -12.6610   26.1140 O.2       5 ALP1        0.0000 
     64 O          10.3075  -14.2645   24.8495 O.2       1 ALC1        0.0000 
     65 O          10.0530  -15.7910   24.4570 O.2       5 ALP1        0.0000 
     66 CA         20.2120  -16.3989   27.7650 C.3       4 GLC5        0.0000 
     67 CA         21.0480  -17.0080   29.3480 C.3       8 GLP5        0.0000 
     68 CA         18.8910  -13.0018   25.5030 C.3       4 GLC5        0.0000 
     69 CA         19.6430  -14.9080   26.2530 C.3      12 GLL5        0.0000 
     70 CA         22.8098  -13.3682   26.7553 C.3       4 GLC5        0.0000 
     71 CA         24.2890  -12.3580   27.8480 C.3       8 GLP5        0.0000 
     72 CA         21.7818  -12.7033   24.6118 C.3       4 GLC5        0.0000 
     73 CA         21.8960  -14.6380   25.3580 C.3      12 GLL5        0.0000 
     74 CA         22.2330  -11.0280   23.5610 C.3       8 GLP5        0.0000 
     75 CA         21.2362  -16.7110   27.3372 C.3       4 GLC5        0.0000 
     76 CA         21.9440  -16.0070   25.1040 C.3      12 GLL5        0.0000 
     77 CA         19.6638  -16.9648   19.7785 C.3       4 GLC5        0.0000 
     78 CA         19.1620  -16.4910   21.7530 C.3      12 GLL5        0.0000 
     79 CA         19.6750  -17.8590   18.1930 C.3       8 GLP5        0.0000 
     80 CA         11.5992  -13.2555   19.1820 C.3       4 GLC5        0.0000 
     81 CA         10.9130  -13.0620   17.2450 C.3       8 GLP5        0.0000 
     82 CA         14.7457   -9.6760   19.2130 C.3       4 GLC5        0.0000 
     83 CA         15.3380   -8.0190   18.2160 C.3       8 GLP5        0.0000 
     84 CA         10.5101  -12.3613   20.6420 C.3       4 GLC5        0.0000 
     85 CA         12.6450  -11.6780   21.3270 C.3      12 GLL5        0.0000 
     86 CA          8.5550  -12.1590   20.0610 C.3       8 GLP5        0.0000 
@<TRIPOS>BOND
@<TRIPOS>SUBSTRUCTURE
     1 ALC1        9 GROUP        1 X    ALC  0     ROOT ALC X 1
     2 SEC2       22 GROUP        1 X    SEC  0     **** SEC X 2
     3 ASC3       48 GROUP        1 X    ASC  0     **** ASC X 3
     4 GLC5        1 GROUP        1 X    GLC  0     **** GLC X 6
     5 ALP1       11 GROUP        1 Y    ALP  0     ROOT ALP Y 8
     6 SEP2       24 GROUP        1 Y    SEP  0     **** SEP Y 9
     7 ASP3       50 GROUP        1 Y    ASP  0     **** ASP Y 10
     8 GLP5        3 GROUP        1 Y    GLP  0     **** GLP Y 13
     9 ALL1       10 GROUP        1 Z    ALL  0     ROOT ALL Z 15
    10 SEL2       23 GROUP        1 Z    SEL  0     **** SEL Z 16
    11 ASL3       49 GROUP        1 Z    ASL  0     **** ASL Z 17
    12 GLL5        2 GROUP        1 Z    GLL  0     **** GLL Z 20
@<TRIPOS>SET

