#    Name: 1bb0_0IV_1_ligand
#    Modification time : Mon Mar 24 19:28:50 2014

@<TRIPOS>MOLECULE
1bb0_0IV_1_ligand
   70    72     1     0     0
SMALL
NO_CHARGES


@<TRIPOS>ATOM
      1 C          18.4750  -17.0660   26.1510 C.3       1 0IV1        0.0000 
      2 C1         19.7430  -16.2770   26.0710 C.ar      1 0IV1        0.0000 
      3 C2         19.6430  -14.9080   26.2530 C.ar      1 0IV1        0.0000 
      4 C3         20.7650  -14.1190   25.9670 C.ar      1 0IV1        0.0000 
      5 C4         21.8960  -14.6380   25.3580 C.ar      1 0IV1        0.0000 
      6 C5         21.9440  -16.0070   25.1040 C.ar      1 0IV1        0.0000 
      7 C6         20.9050  -16.8210   25.5490 C.ar      1 0IV1        0.0000 
      8 S          17.8250  -17.6630   24.6010 S.o2      1 0IV1        0.0000 
      9 O1S        16.5590  -18.1930   24.9700 O.2       1 0IV1        0.0000 
     10 O2S        18.7900  -18.3260   23.7910 O.2       1 0IV1        0.0000 
     11 N          17.4920  -16.3810   23.6000 N.pl3     1 0IV1        0.0000 
     12 CA         18.4820  -15.7300   22.8430 C.3       1 0IV1        0.0000 
     13 CB         19.1620  -16.4910   21.7530 C.3       1 0IV1        0.0000 
     14 CG         20.1430  -15.6500   20.9750 C.3       1 0IV1        0.0000 
     15 CD         19.7760  -14.2200   20.6820 C.3       1 0IV1        0.0000 
     16 C7         17.9000  -14.3990   22.3120 C.2       1 0IV1        0.0000 
     17 O          16.9460  -13.9800   22.9600 O.2       1 0IV1        0.0000 
     18 N1         18.6560  -13.7130   21.4880 N.am      1 0IV1        0.0000 
     19 CA1        18.1290  -12.3510   21.4180 C.3       1 0IV1        0.0000 
     20 C8         16.8320  -12.7310   20.6150 C.2       1 0IV1        0.0000 
     21 O1         16.7940  -13.6380   19.7430 O.2       1 0IV1        0.0000 
     22 C21        11.6690  -13.8310   21.5510 C.3       1 0IV1        0.0000 
     23 C31        12.2190  -13.8810   23.1160 C.3       1 0IV1        0.0000 
     24 N2         15.8250  -11.7010   20.5730 N.am      1 0IV1        0.0000 
     25 CA2        14.6260  -11.6790   19.8100 C.3       1 0IV1        0.0000 
     26 C9         14.7720  -11.1810   18.4660 C.2       1 0IV1        0.0000 
     27 O2         13.9280  -10.6470   17.5260 O.2       1 0IV1        0.0000 
     28 CB1        13.6810  -10.9870   20.6100 C.3       1 0IV1        0.0000 
     29 CZ         11.2960  -11.9580   24.5990 C.cat     1 0IV1        0.0000 
     30 NE         12.2760  -12.3890   23.7370 N.pl3     1 0IV1        0.0000 
     31 C11        12.9020  -13.0670   20.6870 C.3       1 0IV1        0.0000 
     32 CG1        12.6450  -11.6780   21.3270 C.3       1 0IV1        0.0000 
     33 CD1        13.0430  -11.6160   22.8430 C.3       1 0IV1        0.0000 
     34 NH1        11.0470  -10.6820   24.7320 N.pl3     1 0IV1        0.0000 
     35 NH2        10.5620  -12.7380   25.2420 N.pl3     1 0IV1        0.0000 
     36 H          17.6319  -16.4957   26.5534 H         1 0IV1        0.0000 
     37 H          18.5714  -17.9873   26.7339 H         1 0IV1        0.0000 
     38 H          18.7843  -14.4805   26.5840 H         1 0IV1        0.0000 
     39 H          20.7415  -13.1086   26.2236 H         1 0IV1        0.0000 
     40 H          22.6756  -14.0362   25.1008 H         1 0IV1        0.0000 
     41 H          22.7347  -16.4104   24.5956 H         1 0IV1        0.0000 
     42 H          21.0063  -17.8507   25.4871 H         1 0IV1        0.0000 
     43 H          16.5137  -16.1380   23.6066 H         1 0IV1        0.0000 
     44 H          19.3050  -15.3786   23.5542 H         1 0IV1        0.0000 
     45 H          18.4062  -16.8949   21.0578 H         1 0IV1        0.0000 
     46 H          19.6945  -17.3562   22.1836 H         1 0IV1        0.0000 
     47 H          20.3636  -16.1699   20.0011 H         1 0IV1        0.0000 
     48 H          21.1302  -15.6628   21.5160 H         1 0IV1        0.0000 
     49 H          19.5338  -14.1325   19.6009 H         1 0IV1        0.0000 
     50 H          20.6744  -13.5855   20.8418 H         1 0IV1        0.0000 
     51 H          18.7045  -11.7345   20.8194 H         1 0IV1        0.0000 
     52 H          17.8368  -11.9919   22.3428 H         1 0IV1        0.0000 
     53 H          10.8351  -13.2240   21.5101 H         1 0IV1        0.0000 
     54 H          11.5887  -14.7965   21.1950 H         1 0IV1        0.0000 
     55 H          13.1994  -14.2905   23.0982 H         1 0IV1        0.0000 
     56 H          11.5342  -14.4681   23.6777 H         1 0IV1        0.0000 
     57 H          16.0099  -10.8475   21.1979 H         1 0IV1        0.0000 
     58 H          14.2683  -12.7542   19.7494 H         1 0IV1        0.0000 
     59 H          15.8518  -11.2577   18.1210 H         1 0IV1        0.0000 
     60 H          13.1803  -10.1643   19.9640 H         1 0IV1        0.0000 
     61 H          14.2535  -10.3191   21.3655 H         1 0IV1        0.0000 
     62 H          12.6172  -13.0880   19.7208 H         1 0IV1        0.0000 
     63 H          13.7634  -13.4729   21.0162 H         1 0IV1        0.0000 
     64 H          11.7287  -11.3442   21.1301 H         1 0IV1        0.0000 
     65 H          14.1347  -11.8896   22.8820 H         1 0IV1        0.0000 
     66 H          13.0307  -10.5235   23.1160 H         1 0IV1        0.0000 
     67 H          10.3412  -10.4384   25.3972 H         1 0IV1        0.0000 
     68 H          11.5851  -10.0663   24.1563 H         1 0IV1        0.0000 
     69 H           9.8881  -12.3113   25.8452 H         1 0IV1        0.0000 
     70 H          10.7188  -13.7141   25.0917 H         1 0IV1        0.0000 
@<TRIPOS>BOND
     1    2    1 1    
     2    8    1 1    
     3   36    1 1    
     4   37    1 1    
     5    3    2 ar   
     6    7    2 ar   
     7    4    3 ar   
     8   38    3 1    
     9    5    4 ar   
    10   39    4 1    
    11    6    5 ar   
    12   40    5 1    
    13    7    6 ar   
    14   41    6 1    
    15   42    7 1    
    16    9    8 2    
    17   10    8 2    
    18   11    8 1    
    19   12   11 1    
    20   43   11 1    
    21   13   12 1    
    22   16   12 1    
    23   44   12 1    
    24   14   13 1    
    25   45   13 1    
    26   46   13 1    
    27   15   14 1    
    28   47   14 1    
    29   48   14 1    
    30   18   15 1    
    31   49   15 1    
    32   50   15 1    
    33   17   16 2    
    34   18   16 am   
    35   19   18 1    
    36   20   19 1    
    37   51   19 1    
    38   52   19 1    
    39   21   20 2    
    40   24   20 am   
    41   23   22 1    
    42   31   22 1    
    43   53   22 1    
    44   54   22 1    
    45   30   23 1    
    46   55   23 1    
    47   56   23 1    
    48   25   24 1    
    49   57   24 1    
    50   26   25 1    
    51   28   25 1    
    52   58   25 1    
    53   27   26 2    
    54   59   26 1    
    55   32   28 1    
    56   60   28 1    
    57   61   28 1    
    58   30   29 ar   
    59   34   29 ar   
    60   35   29 ar   
    61   33   30 1    
    62   32   31 1    
    63   62   31 1    
    64   63   31 1    
    65   33   32 1    
    66   64   32 1    
    67   65   33 1    
    68   66   33 1    
    69   67   34 1    
    70   68   34 1    
    71   69   35 1    
    72   70   35 1    
@<TRIPOS>SUBSTRUCTURE
     1 0IV1        1 GROUP   
@<TRIPOS>SET

