#    Name: 4ktl_1CQ_1_INTS_M
#    Modification time : Tue Mar 25 08:53:57 2014

@<TRIPOS>MOLECULE
4ktl_1CQ_1_INTS_M
   47     0     9     0     0
SMALL
NO_CHARGES


@<TRIPOS>ATOM
      1 CA        -11.8450   16.5250    1.2155 C.3       3 GLC5        0.0000 
      2 CA        -10.8960   18.2400    1.8550 C.3       9 GLL5        0.0000 
      3 CA        -12.7940   14.8100    0.5760 C.3       6 GLP5        0.0000 
      4 CA        -11.7135   20.8725    1.3455 C.3       3 GLC5        0.0000 
      5 CA         -9.7460   20.3450    1.6340 C.3       9 GLL5        0.0000 
      6 CA        -13.6810   21.4000    1.0570 C.3       6 GLP5        0.0000 
      7 O         -10.3125   21.9860   -0.1715 O.2       1 ALC1        0.0000 
      8 O          -9.4060   21.3980    0.8540 O.2       7 ALL1        0.0000 
      9 O         -11.2190   22.5740   -1.1970 O.2       4 ALP1        0.0000 
     10 CA        -15.1940   19.3840    5.7385 C.3       3 GLC5        0.0000 
     11 CA        -15.0760   18.0440    4.2880 C.3       9 GLL5        0.0000 
     12 CA        -15.3120   20.7240    7.1890 C.3       6 GLP5        0.0000 
     13 O         -12.2705   13.8415    5.4115 O.2       1 ALC1        0.0000 
     14 O         -11.6580   14.9230    4.6030 O.2       7 ALL1        0.0000 
     15 O         -12.8830   12.7600    6.2200 O.2       4 ALP1        0.0000 
     16 N          -9.6710   13.6875    5.6375 N.am      2 SEC2        0.0000 
     17 N         -10.3560   14.6670    4.6810 N.am      8 SEL2        0.0000 
     18 N          -8.9860   12.7080    6.5940 N.am      5 SEP2        0.0000 
     19 O          -8.0085   15.2100    5.5650 O.2       1 ALC1        0.0000 
     20 O          -8.4310   15.8910    4.2350 O.2       7 ALL1        0.0000 
     21 O          -7.5860   14.5290    6.8950 O.2       4 ALP1        0.0000 
     22 CA        -11.2928   18.3537   -0.3560 C.3       3 GLC5        0.0000 
     23 CA        -11.8610   17.8730   -2.2040 C.3       6 GLP5        0.0000 
     24 CA        -12.3678   19.4967    0.8680 C.3       3 GLC5        0.0000 
     25 CA        -10.5530   19.4290    1.1290 C.3       9 GLL5        0.0000 
     26 CA        -14.0110   20.1590    0.2440 C.3       6 GLP5        0.0000 
     27 CA        -10.0530   20.7415    4.6575 C.3       3 GLC5        0.0000 
     28 CA         -9.1950   20.0600    2.8950 C.3       9 GLL5        0.0000 
     29 CA        -10.7550   22.0270    6.0620 C.3       6 GLP5        0.0000 
     30 CA        -12.0695   15.6073    2.1895 C.3       3 GLC5        0.0000 
     31 CA        -10.7380   16.7060    3.7130 C.3       9 GLL5        0.0000 
     32 CA        -13.7621   15.3184    2.1974 C.3       3 GLC5        0.0000 
     33 CA        -15.6620   15.7050    3.8520 C.3       9 GLL5        0.0000 
     34 CA        -15.6539   15.1379    5.3670 C.3       3 GLC5        0.0000 
     35 CA        -14.2950   15.4440    3.7440 C.3       9 GLL5        0.0000 
     36 CA        -15.7790   13.9740    6.7560 C.3       6 GLP5        0.0000 
     37 CA        -17.0088   18.2707    3.1185 C.3       3 GLC5        0.0000 
     38 CA        -16.0790   17.0290    4.1580 C.3       9 GLL5        0.0000 
     39 CA        -18.4400   19.0050    2.0140 C.3       6 GLP5        0.0000 
     40 CA        -14.5297   19.7208    3.2388 C.3       3 GLC5        0.0000 
     41 CA        -14.6660   21.5410    2.2540 C.3       6 GLP5        0.0000 
     42 CA         -9.2835   14.9390    0.2285 C.3       3 GLC5        0.0000 
     43 CA         -8.1350   15.7620    1.8830 C.3       9 GLL5        0.0000 
     44 CA        -10.8940   14.1240   -0.8900 C.3       6 GLP5        0.0000 
     45 CA         -6.7867   15.0100   -0.9730 C.3       3 GLC5        0.0000 
     46 CA         -7.2110   15.7460    0.8110 C.3       9 GLL5        0.0000 
     47 CA         -7.0630   14.2640   -2.8770 C.3       6 GLP5        0.0000 
@<TRIPOS>BOND
@<TRIPOS>SUBSTRUCTURE
     1 ALC1        7 GROUP        1 X    ALC  0     ROOT ALC X 1
     2 SEC2       16 GROUP        1 X    SEC  0     **** SEC X 2
     3 GLC5        1 GROUP        1 X    GLC  0     **** GLC X 6
     4 ALP1        9 GROUP        1 Y    ALP  0     ROOT ALP Y 8
     5 SEP2       18 GROUP        1 Y    SEP  0     **** SEP Y 9
     6 GLP5        3 GROUP        1 Y    GLP  0     **** GLP Y 13
     7 ALL1        8 GROUP        1 Z    ALL  0     ROOT ALL Z 15
     8 SEL2       17 GROUP        1 Z    SEL  0     **** SEL Z 16
     9 GLL5        2 GROUP        1 Z    GLL  0     **** GLL Z 20
@<TRIPOS>SET

