#    Name: 4ktl_1CQ_1_ligand
#    Modification time : Tue Mar 25 08:53:57 2014

@<TRIPOS>MOLECULE
4ktl_1CQ_1_ligand
   44    47     1     0     0
SMALL
NO_CHARGES


@<TRIPOS>ATOM
      1 CAO       -10.8960   18.2400    1.8550 C.ar      1 1CQ407      0.0000 
      2 CAP       -10.5530   19.4290    1.1290 C.ar      1 1CQ407      0.0000 
      3 CAQ        -9.7460   20.3450    1.6340 C.ar      1 1CQ407      0.0000 
      4 OAY        -9.4060   21.3980    0.8540 O.3       1 1CQ407      0.0000 
      5 CAR        -9.1950   20.0600    2.8950 C.ar      1 1CQ407      0.0000 
      6 CAS        -9.5070   18.8520    3.6110 C.ar      1 1CQ407      0.0000 
      7 CAF       -10.4000   17.9030    3.0820 C.ar      1 1CQ407      0.0000 
      8 CAB       -10.7380   16.7060    3.7130 C.2       1 1CQ407      0.0000 
      9 CAC       -11.9520   16.1030    3.8930 C.2       1 1CQ407      0.0000 
     10 CAG       -13.3020   16.4530    3.8270 C.ar      1 1CQ407      0.0000 
     11 CAT       -14.2950   15.4440    3.7440 C.ar      1 1CQ407      0.0000 
     12 CAU       -15.6620   15.7050    3.8520 C.ar      1 1CQ407      0.0000 
     13 CAV       -16.0790   17.0290    4.1580 C.ar      1 1CQ407      0.0000 
     14 OAZ       -17.4430   17.2450    4.3760 O.3       1 1CQ407      0.0000 
     15 CAW       -15.0760   18.0440    4.2880 C.ar      1 1CQ407      0.0000 
     16 CAX       -13.7110   17.7570    4.1590 C.ar      1 1CQ407      0.0000 
     17 NAD       -11.6580   14.9230    4.6030 N.pl3     1 1CQ407      0.0000 
     18 NAE       -10.3560   14.6670    4.6810 N.2       1 1CQ407      0.0000 
     19 CAA        -9.7820   15.7910    4.1550 C.2       1 1CQ407      0.0000 
     20 NAH        -8.4310   15.8910    4.2350 N.pl3     1 1CQ407      0.0000 
     21 CAI        -7.6490   15.8360    3.1920 C.ar      1 1CQ407      0.0000 
     22 CAJ        -8.1350   15.7620    1.8830 C.ar      1 1CQ407      0.0000 
     23 CAK        -7.2110   15.7460    0.8110 C.ar      1 1CQ407      0.0000 
     24 CAL        -5.8100   15.7660    1.0510 C.ar      1 1CQ407      0.0000 
     25 OBA        -4.8770   15.7320    0.0230 O.3       1 1CQ407      0.0000 
     26 CAM        -5.3540   15.8180    2.3710 C.ar      1 1CQ407      0.0000 
     27 CAN        -6.2730   15.8440    3.4240 C.ar      1 1CQ407      0.0000 
     28 H         -11.5885   17.5920    1.3804 H         1 1CQ407      0.0000 
     29 H         -10.9785   19.5281    0.1782 H         1 1CQ407      0.0000 
     30 H          -8.5432   20.7310    3.3339 H         1 1CQ407      0.0000 
     31 H          -9.0633   18.6928    4.5222 H         1 1CQ407      0.0000 
     32 H         -13.9782   14.4584    3.5944 H         1 1CQ407      0.0000 
     33 H         -16.3506   14.9755    3.7175 H         1 1CQ407      0.0000 
     34 H         -15.3823   19.0115    4.4826 H         1 1CQ407      0.0000 
     35 H         -13.0141   18.4896    4.3049 H         1 1CQ407      0.0000 
     36 H         -12.3802   14.3664    4.9908 H         1 1CQ407      0.0000 
     37 H          -8.0085   16.0206    5.2089 H         1 1CQ407      0.0000 
     38 H          -9.1317   15.7202    1.6966 H         1 1CQ407      0.0000 
     39 H          -7.5551   15.7196   -0.1556 H         1 1CQ407      0.0000 
     40 H          -4.3482   15.8370    2.5667 H         1 1CQ407      0.0000 
     41 H          -5.9230   15.8698    4.3999 H         1 1CQ407      0.0000 
     42 H         -10.1534   21.4839    0.1951 H         1 1CQ407      0.0000 
     43 H         -17.4889   18.0868    4.9138 H         1 1CQ407      0.0000 
     44 H          -4.6735   14.7620   -0.1096 H         1 1CQ407      0.0000 
@<TRIPOS>BOND
     1    2    1 ar   
     2    7    1 ar   
     3   28    1 1    
     4    3    2 ar   
     5   29    2 1    
     6    4    3 1    
     7    5    3 ar   
     8   42    4 1    
     9    6    5 ar   
    10   30    5 1    
    11    7    6 ar   
    12   31    6 1    
    13    8    7 1    
    14    9    8 2    
    15   19    8 1    
    16   10    9 1    
    17   17    9 1    
    18   11   10 ar   
    19   16   10 ar   
    20   12   11 ar   
    21   32   11 1    
    22   13   12 ar   
    23   33   12 1    
    24   14   13 1    
    25   15   13 ar   
    26   43   14 1    
    27   16   15 ar   
    28   34   15 1    
    29   35   16 1    
    30   18   17 1    
    31   36   17 1    
    32   19   18 2    
    33   20   19 1    
    34   21   20 1    
    35   37   20 1    
    36   22   21 ar   
    37   27   21 ar   
    38   23   22 ar   
    39   38   22 1    
    40   24   23 ar   
    41   39   23 1    
    42   25   24 1    
    43   26   24 ar   
    44   44   25 1    
    45   27   26 ar   
    46   40   26 1    
    47   41   27 1    
@<TRIPOS>SUBSTRUCTURE
     1 1CQ407      1 GROUP   
@<TRIPOS>SET

