#    Name: 1r0y_ADP_2_INTS_M
#    Modification time : Tue Mar 25 00:14:33 2014

@<TRIPOS>MOLECULE
1r0y_ADP_2_INTS_M
   44     0     9     0     0
SMALL
NO_CHARGES


@<TRIPOS>ATOM
      1 NZ        141.6725   -8.9395   57.6185 N.4       2 LYC4        0.0000 
      2 NZ        141.9950   -7.7550   56.9530 N.4       8 LYL4        0.0000 
      3 NZ        141.3500  -10.1240   58.2840 N.4       5 LYP4        0.0000 
      4 N         141.3260   -6.8450   55.8640 N.am      1 SEC2        0.0000 
      5 N         141.9950   -7.7550   56.9530 N.am      7 SEL2        0.0000 
      6 N         140.6570   -5.9350   54.7750 N.am      4 SEP2        0.0000 
      7 N         141.0470   -6.6330   57.2395 N.am      1 SEC2        0.0000 
      8 N         140.0990   -5.5110   57.5260 N.am      4 SEP2        0.0000 
      9 N         141.6725   -8.9395   57.6185 N.am      1 SEC2        0.0000 
     10 N         141.3500  -10.1240   58.2840 N.am      4 SEP2        0.0000 
     11 N         142.4490   -5.4015   59.1210 N.am      1 SEC2        0.0000 
     12 N         143.3490   -6.4820   58.5160 N.am      7 SEL2        0.0000 
     13 N         141.5490   -4.3210   59.7260 N.am      4 SEP2        0.0000 
     14 N         144.3435   -8.7625   55.7530 N.am      1 SEC2        0.0000 
     15 N         144.6010   -7.8860   56.8290 N.am      7 SEL2        0.0000 
     16 N         144.0860   -9.6390   54.6770 N.am      4 SEP2        0.0000 
     17 N         146.0020   -4.5245   57.8370 N.am      1 SEC2        0.0000 
     18 N         145.2350   -4.7910   56.8050 N.am      7 SEL2        0.0000 
     19 N         146.7690   -4.2580   58.8690 N.am      4 SEP2        0.0000 
     20 N         142.4475   -2.6255   57.5420 N.am      1 SEC2        0.0000 
     21 N         143.1230   -3.4610   56.5220 N.am      7 SEL2        0.0000 
     22 N         141.7720   -1.7900   58.5620 N.am      4 SEP2        0.0000 
     23 N         142.9325   -2.1755   56.2770 N.am      1 SEC2        0.0000 
     24 N         142.7420   -0.8900   56.0320 N.am      4 SEP2        0.0000 
     25 N         141.9150   -5.9340   55.3505 N.am      1 SEC2        0.0000 
     26 N         143.1730   -5.9330   55.9260 N.am      7 SEL2        0.0000 
     27 N         141.6360   -5.7220   56.7260 N.am      1 SEC2        0.0000 
     28 CA        145.1630   -2.0910   54.4975 C.3       3 GLC5        0.0000 
     29 CA        143.8920   -3.4370   53.5900 C.3       9 GLL5        0.0000 
     30 CA        146.4340   -0.7450   55.4050 C.3       6 GLP5        0.0000 
     31 CA        142.0930   -4.0125   54.4180 C.3       3 GLC5        0.0000 
     32 CA        140.2940   -4.5880   55.2460 C.3       6 GLP5        0.0000 
     33 CA        145.0605   -1.9260   51.4140 C.3       3 GLC5        0.0000 
     34 CA        144.5950   -3.5010   52.2260 C.3       9 GLL5        0.0000 
     35 CA        145.5260   -0.3510   50.6020 C.3       6 GLP5        0.0000 
     36 CA        146.1540   -2.2660   51.2120 C.3       3 GLC5        0.0000 
     37 CA        146.7820   -4.1810   51.8220 C.3       9 GLL5        0.0000 
     38 CA        142.9237   -2.1040   52.6740 C.3       3 GLC5        0.0000 
     39 CA        141.6040   -0.7390   52.4400 C.3       6 GLP5        0.0000 
     40 CA        144.6037   -6.8030   52.8350 C.3       3 GLC5        0.0000 
     41 CA        144.5460   -4.9260   51.6140 C.3       9 GLL5        0.0000 
     42 CA        143.9650   -8.4080   53.9070 C.3       6 GLP5        0.0000 
     43 CA        146.0981   -4.5418   49.7833 C.3       3 GLC5        0.0000 
     44 CA        146.1840   -4.3940   47.7740 C.3       6 GLP5        0.0000 
@<TRIPOS>BOND
@<TRIPOS>SUBSTRUCTURE
     1 SEC2        4 GROUP        1 X    SEC  0     ROOT SEC X 2
     2 LYC4        1 GROUP        1 X    LYC  0     **** LYC X 4
     3 GLC5       28 GROUP        1 X    GLC  0     **** GLC X 6
     4 SEP2        6 GROUP        1 Y    SEP  0     ROOT SEP Y 9
     5 LYP4        3 GROUP        1 Y    LYP  0     **** LYP Y 11
     6 GLP5       30 GROUP        1 Y    GLP  0     **** GLP Y 13
     7 SEL2        5 GROUP        1 Z    SEL  0     ROOT SEL Z 16
     8 LYL4        2 GROUP        1 Z    LYL  0     **** LYL Z 18
     9 GLL5       29 GROUP        1 Z    GLL  0     **** GLL Z 20
@<TRIPOS>SET

