#    Name: 1r0y_ADP_2_ligand
#    Modification time : Tue Mar 25 00:14:33 2014

@<TRIPOS>MOLECULE
1r0y_ADP_2_ligand
   39    41     1     0     0
SMALL
NO_CHARGES


@<TRIPOS>ATOM
      1 PB        143.3050   -7.0310   57.0830 P.3       1 ADP8        0.0000 
      2 O1B       141.9950   -7.7550   56.9530 O.co2     1 ADP8        0.0000 
      3 O2B       143.3490   -6.4820   58.5160 O.co2     1 ADP8        0.0000 
      4 O3B       144.6010   -7.8860   56.8290 O.co2     1 ADP8        0.0000 
      5 PA        144.0360   -4.6070   55.9970 P.3       1 ADP8        0.0000 
      6 O1A       145.2350   -4.7910   56.8050 O.co2     1 ADP8        0.0000 
      7 O2A       143.1230   -3.4610   56.5220 O.co2     1 ADP8        0.0000 
      8 O3A       143.1730   -5.9330   55.9260 O.3       1 ADP8        0.0000 
      9 O5'       144.5660   -4.3250   54.4740 O.3       1 ADP8        0.0000 
     10 C5'       143.8920   -3.4370   53.5900 C.3       1 ADP8        0.0000 
     11 C4'       144.5950   -3.5010   52.2260 C.3       1 ADP8        0.0000 
     12 O4'       145.9850   -3.0920   52.2410 O.3       1 ADP8        0.0000 
     13 C3'       144.5460   -4.9260   51.6140 C.3       1 ADP8        0.0000 
     14 O3'       144.3450   -4.7670   50.2320 O.3       1 ADP8        0.0000 
     15 C2'       145.9390   -5.4700   51.9120 C.3       1 ADP8        0.0000 
     16 O2'       146.3040   -6.6120   51.1240 O.3       1 ADP8        0.0000 
     17 C1'       146.7820   -4.1810   51.8220 C.3       1 ADP8        0.0000 
     18 N9        147.8720   -4.1690   52.7830 N.pl3     1 ADP8        0.0000 
     19 C8        147.8050   -4.2320   54.1620 C.2       1 ADP8        0.0000 
     20 N7        149.0720   -4.1830   54.6370 N.2       1 ADP8        0.0000 
     21 C5        149.9410   -4.0930   53.5800 C.ar      1 ADP8        0.0000 
     22 C6        151.3350   -4.0220   53.4580 C.ar      1 ADP8        0.0000 
     23 N6        152.1150   -4.0210   54.5340 N.pl3     1 ADP8        0.0000 
     24 N1        151.9240   -3.9310   52.2070 N.ar      1 ADP8        0.0000 
     25 C2        151.1620   -3.9040   51.0710 C.ar      1 ADP8        0.0000 
     26 N3        149.7810   -3.9810   51.1950 N.ar      1 ADP8        0.0000 
     27 C4        149.1910   -4.0760   52.4160 C.ar      1 ADP8        0.0000 
     28 H         143.9320   -2.4045   53.9337 H         1 ADP8        0.0000 
     29 H         142.8510   -3.7182   53.4382 H         1 ADP8        0.0000 
     30 H         144.0344   -2.8587   51.5241 H         1 ADP8        0.0000 
     31 H         143.8296   -5.4723   52.1187 H         1 ADP8        0.0000 
     32 H         145.9062   -5.7129   53.0033 H         1 ADP8        0.0000 
     33 H         147.1342   -4.0511   50.8401 H         1 ADP8        0.0000 
     34 H         147.0021   -4.2979   54.6721 H         1 ADP8        0.0000 
     35 H         151.6467   -4.0539   55.4170 H         1 ADP8        0.0000 
     36 H         153.0998   -3.9874   54.3636 H         1 ADP8        0.0000 
     37 H         151.5912   -3.8289   50.1458 H         1 ADP8        0.0000 
     38 H         145.0778   -5.2941   49.8016 H         1 ADP8        0.0000 
     39 H         146.1362   -7.3997   51.7167 H         1 ADP8        0.0000 
@<TRIPOS>BOND
     1    2    1 ar   
     2    3    1 ar   
     3    4    1 ar   
     4    8    1 1    
     5    6    5 ar   
     6    7    5 ar   
     7    8    5 1    
     8    9    5 1    
     9   10    9 1    
    10   11   10 1    
    11   28   10 1    
    12   29   10 1    
    13   12   11 1    
    14   13   11 1    
    15   30   11 1    
    16   17   12 1    
    17   14   13 1    
    18   15   13 1    
    19   31   13 1    
    20   38   14 1    
    21   16   15 1    
    22   17   15 1    
    23   32   15 1    
    24   39   16 1    
    25   18   17 1    
    26   33   17 1    
    27   19   18 1    
    28   27   18 1    
    29   20   19 2    
    30   34   19 1    
    31   21   20 1    
    32   22   21 ar   
    33   27   21 ar   
    34   23   22 1    
    35   24   22 ar   
    36   35   23 1    
    37   36   23 1    
    38   25   24 ar   
    39   26   25 ar   
    40   37   25 1    
    41   27   26 ar   
@<TRIPOS>SUBSTRUCTURE
     1 ADP8        1 GROUP   
@<TRIPOS>SET

