#    Name: 1c4y_IH3_1_INTS_M
#    Modification time : Mon Mar 24 20:19:42 2014

@<TRIPOS>MOLECULE
1c4y_IH3_1_INTS_M
   62     0     9     0     0
SMALL
NO_CHARGES


@<TRIPOS>ATOM
      1 O          25.1140   49.2770   -2.4465 O.2       1 ALC1        0.0000 
      2 O          24.5070   48.3160   -3.7520 O.2       7 ALL1        0.0000 
      3 O          25.7210   50.2380   -1.1410 O.2       4 ALP1        0.0000 
      4 OD1        22.6570   46.5475   -6.1425 O.co2     2 ASC3        0.0000 
      5 OD1        23.4470   47.6070   -4.1920 O.co2     8 ASL3        0.0000 
      6 OD1        21.7170   45.6650   -6.7780 O.co2     5 ASP3        0.0000 
      7 O          22.6570   46.5475   -6.1425 O.2       1 ALC1        0.0000 
      8 O          23.5970   47.4300   -5.5070 O.2       7 ALL1        0.0000 
      9 O          21.7170   45.6650   -6.7780 O.2       4 ALP1        0.0000 
     10 CA         24.0630   49.3600   -7.4850 C.3       3 GLC5        0.0000 
     11 CA         24.7420   48.0160   -5.9250 C.3       9 GLL5        0.0000 
     12 CA         23.3840   50.7040   -9.0450 C.3       6 GLP5        0.0000 
     13 CA         25.2455   48.5220   -8.0430 C.3       3 GLC5        0.0000 
     14 CA         25.7490   49.0280  -10.1610 C.3       6 GLP5        0.0000 
     15 CA         27.0095   48.6745   -2.7810 C.3       3 GLC5        0.0000 
     16 CA         26.5890   49.3250   -4.7690 C.3       9 GLL5        0.0000 
     17 CA         27.4300   48.0240   -0.7930 C.3       6 GLP5        0.0000 
     18 CA         34.3105   53.1125   -0.4950 C.3       3 GLC5        0.0000 
     19 CA         32.9110   52.5160   -1.2580 C.3       9 GLL5        0.0000 
     20 CA         35.7100   53.7090    0.2680 C.3       6 GLP5        0.0000 
     21 CA         33.4695   52.9020   -2.7745 C.3       3 GLC5        0.0000 
     22 CA         34.0280   53.2880   -4.2910 C.3       6 GLP5        0.0000 
     23 CA         33.3415   54.1000   -0.4195 C.3       3 GLC5        0.0000 
     24 CA         31.5550   53.2470   -1.2270 C.3       9 GLL5        0.0000 
     25 CA         35.1280   54.9530    0.3880 C.3       6 GLP5        0.0000 
     26 CA         32.9285   55.0185    0.3125 C.3       3 GLC5        0.0000 
     27 CA         31.5190   54.7610   -0.8680 C.3       9 GLL5        0.0000 
     28 CA         34.3380   55.2760    1.4930 C.3       6 GLP5        0.0000 
     29 CA         31.3380   48.7120    1.3695 C.3       3 GLC5        0.0000 
     30 CA         32.4690   46.9980    0.6330 C.3       9 GLL5        0.0000 
     31 CA         30.2070   50.4260    2.1060 C.3       6 GLP5        0.0000 
     32 CA         26.3318   52.3963   -6.9668 C.3       3 GLC5        0.0000 
     33 CA         26.3500   50.7830   -5.0970 C.3       9 GLL5        0.0000 
     34 CA         25.6960   53.5980   -8.5050 C.3       6 GLP5        0.0000 
     35 CA         27.1722   47.1040   -4.4284 C.3       3 GLC5        0.0000 
     36 CA         27.5590   45.3790   -3.5480 C.3       6 GLP5        0.0000 
     37 CA         30.2773   51.1975    0.1212 C.3       3 GLC5        0.0000 
     38 CA         30.3570   52.6450   -1.4960 C.3       9 GLL5        0.0000 
     39 CA         29.5382   54.1347   -0.4999 C.3       3 GLC5        0.0000 
     40 CA         27.8390   54.4160    0.1150 C.3       6 GLP5        0.0000 
     41 CA         32.3303   54.1698   -2.5324 C.3       3 GLC5        0.0000 
     42 CA         33.4230   54.4860   -3.9500 C.3       6 GLP5        0.0000 
     43 CA         33.4830   44.6927   -0.4198 C.3       3 GLC5        0.0000 
     44 CA         33.6170   47.0110   -0.2250 C.3       9 GLL5        0.0000 
     45 CA         33.4530   42.6080    0.1070 C.3       6 GLP5        0.0000 
     46 CA         30.6135   47.4587    0.6480 C.3       3 GLC5        0.0000 
     47 CA         28.6970   47.6850   -0.0290 C.3       6 GLP5        0.0000 
     48 CA         32.9150   46.7730    4.1135 C.3       3 GLC5        0.0000 
     49 CA         32.5910   47.4670    2.0170 C.3       9 GLL5        0.0000 
     50 CA         32.6030   45.8260    5.9200 C.3       6 GLP5        0.0000 
     51 CA         32.0690   49.0580    2.8845 C.3       3 GLC5        0.0000 
     52 CA         33.8630   47.9730    2.5970 C.3       9 GLL5        0.0000 
     53 CA         30.9110   50.3960    3.4620 C.3       6 GLP5        0.0000 
     54 CA         33.5530   43.6307   -1.0615 C.3       3 GLC5        0.0000 
     55 CA         34.0780   45.2040   -2.0160 C.3       9 GLL5        0.0000 
     56 CA         32.2980   42.7780   -3.5795 C.3       3 GLC5        0.0000 
     57 CA         33.2280   44.1030   -2.4440 C.3       9 GLL5        0.0000 
     58 CA         31.0300   42.1600   -4.5540 C.3       6 GLP5        0.0000 
     59 CA         34.0345   42.5800   -1.3007 C.3       3 GLC5        0.0000 
     60 CA         33.9040   42.6890   -2.7660 C.3       9 GLL5        0.0000 
     61 CA         34.6665   43.3972   -0.9912 C.3       3 GLC5        0.0000 
     62 CA         36.1700   43.5070   -2.2520 C.3       9 GLL5        0.0000 
@<TRIPOS>BOND
@<TRIPOS>SUBSTRUCTURE
     1 ALC1        1 GROUP        1 X    ALC  0     ROOT ALC X 1
     2 ASC3        4 GROUP        1 X    ASC  0     **** ASC X 3
     3 GLC5       10 GROUP        1 X    GLC  0     **** GLC X 6
     4 ALP1        3 GROUP        1 Y    ALP  0     ROOT ALP Y 8
     5 ASP3        6 GROUP        1 Y    ASP  0     **** ASP Y 10
     6 GLP5       12 GROUP        1 Y    GLP  0     **** GLP Y 13
     7 ALL1        2 GROUP        1 Z    ALL  0     ROOT ALL Z 15
     8 ASL3        5 GROUP        1 Z    ASL  0     **** ASL Z 17
     9 GLL5       11 GROUP        1 Z    GLL  0     **** GLL Z 20
@<TRIPOS>SET

