#    Name: 1c4y_IH3_1_ligand
#    Modification time : Mon Mar 24 20:19:42 2014

@<TRIPOS>MOLECULE
1c4y_IH3_1_ligand
   76    81     1     0     0
SMALL
NO_CHARGES


@<TRIPOS>ATOM
      1 C1         25.3450   48.5910   -4.8320 C.2       1 IH3370      0.0000 
      2 NC         24.5070   48.3160   -3.7520 N.pl3     1 IH3370      0.0000 
      3 C3         23.4470   47.6070   -4.1920 C.cat     1 IH3370      0.0000 
      4 NA         23.5970   47.4300   -5.5070 N.pl3     1 IH3370      0.0000 
      5 C2         24.7420   48.0160   -5.9250 C.2       1 IH3370      0.0000 
      6 NB         22.4400   47.1610   -3.4600 N.pl3     1 IH3370      0.0000 
      7 N10        29.0620   50.8460   -4.2020 N.am      1 IH3370      0.0000 
      8 C7         27.5850   51.6060   -5.7600 C.3       1 IH3370      0.0000 
      9 C8         29.0090   50.9550   -5.4390 C.3       1 IH3370      0.0000 
     10 C9         28.9780   49.4540   -5.8540 C.3       1 IH3370      0.0000 
     11 C4         27.6040   48.7000   -5.8170 C.3       1 IH3370      0.0000 
     12 C5         26.5890   49.3250   -4.7690 C.3       1 IH3370      0.0000 
     13 C6         26.3500   50.7830   -5.0970 C.3       1 IH3370      0.0000 
     14 N20        33.0760   49.0520   -2.2080 N.am      1 IH3370      0.0000 
     15 C19        33.7510   50.2190   -1.8620 C.2       1 IH3370      0.0000 
     16 O19        35.0050   50.3120   -1.7280 O.2       1 IH3370      0.0000 
     17 N17        32.7570   51.1700   -1.6100 N.am      1 IH3370      0.0000 
     18 N18        31.4860   50.5670   -1.8930 N.am      1 IH3370      0.0000 
     19 C21        31.7170   49.2640   -2.3030 C.2       1 IH3370      0.0000 
     20 O21        30.8530   48.4160   -2.5980 O.2       1 IH3370      0.0000 
     21 C16        32.9110   52.5160   -1.2580 C.3       1 IH3370      0.0000 
     22 C14        31.5550   53.2470   -1.2270 C.2       1 IH3370      0.0000 
     23 C13        30.3570   52.6450   -1.4960 C.2       1 IH3370      0.0000 
     24 C12        30.3380   51.2930   -2.2310 C.3       1 IH3370      0.0000 
     25 C15        31.5190   54.7610   -0.8680 C.3       1 IH3370      0.0000 
     26 C11        30.1040   51.4940   -3.6530 C.2       1 IH3370      0.0000 
     27 O11        30.9070   52.1590   -4.3140 O.2       1 IH3370      0.0000 
     28 C23        33.4090   46.5440   -1.6680 C.3       1 IH3370      0.0000 
     29 C22        33.8590   47.5820   -2.6430 C.3       1 IH3370      0.0000 
     30 C24        33.6170   47.0110   -0.2250 C.ar      1 IH3370      0.0000 
     31 C25        32.4690   46.9980    0.6330 C.ar      1 IH3370      0.0000 
     32 C26        32.5910   47.4670    2.0170 C.ar      1 IH3370      0.0000 
     33 C27        33.8630   47.9730    2.5970 C.ar      1 IH3370      0.0000 
     34 C28        35.0480   48.0040    1.7420 C.ar      1 IH3370      0.0000 
     35 C29        34.9260   47.5260    0.3400 C.ar      1 IH3370      0.0000 
     36 C30        34.0780   45.2040   -2.0160 C.ar      1 IH3370      0.0000 
     37 C31        33.2280   44.1030   -2.4440 C.ar      1 IH3370      0.0000 
     38 C32        33.9040   42.6890   -2.7660 C.ar      1 IH3370      0.0000 
     39 C33        35.3280   42.4150   -2.6510 C.ar      1 IH3370      0.0000 
     40 C34        36.1700   43.5070   -2.2520 C.ar      1 IH3370      0.0000 
     41 C35        35.5900   44.8660   -1.9270 C.ar      1 IH3370      0.0000 
     42 H          24.6795   48.5974   -2.8504 H         1 IH3370      0.0000 
     43 H          22.9763   46.9493   -6.0901 H         1 IH3370      0.0000 
     44 H          25.0826   48.0342   -6.8189 H         1 IH3370      0.0000 
     45 H          28.4084   50.3300   -3.6139 H         1 IH3370      0.0000 
     46 H          27.4385   51.6188   -6.8296 H         1 IH3370      0.0000 
     47 H          27.5624   52.6112   -5.3668 H         1 IH3370      0.0000 
     48 H          29.7322   51.4402   -5.9569 H         1 IH3370      0.0000 
     49 H          29.6933   48.8962   -5.2056 H         1 IH3370      0.0000 
     50 H          29.3896   49.3672   -6.8866 H         1 IH3370      0.0000 
     51 H          27.7760   47.6617   -5.5479 H         1 IH3370      0.0000 
     52 H          27.1479   48.7446   -6.8020 H         1 IH3370      0.0000 
     53 H          27.0459   49.2435   -3.8053 H         1 IH3370      0.0000 
     54 H          25.4991   50.8867   -5.8005 H         1 IH3370      0.0000 
     55 H          26.0631   51.3428   -4.1838 H         1 IH3370      0.0000 
     56 H          33.5551   53.0671   -1.9676 H         1 IH3370      0.0000 
     57 H          33.3649   52.6417   -0.2579 H         1 IH3370      0.0000 
     58 H          29.4566   53.0195   -1.2480 H         1 IH3370      0.0000 
     59 H          29.4326   50.7699   -1.8056 H         1 IH3370      0.0000 
     60 H          32.3172   46.4055   -1.8203 H         1 IH3370      0.0000 
     61 H          34.8922   47.8058   -2.5721 H         1 IH3370      0.0000 
     62 H          33.5341   47.3968   -3.6343 H         1 IH3370      0.0000 
     63 H          31.5768   46.6713    0.3011 H         1 IH3370      0.0000 
     64 H          31.7639   47.4484    2.6205 H         1 IH3370      0.0000 
     65 H          33.8946   48.2773    3.5356 H         1 IH3370      0.0000 
     66 H          35.9184   48.3343    2.0790 H         1 IH3370      0.0000 
     67 H          35.7323   47.5398   -0.2642 H         1 IH3370      0.0000 
     68 H          32.2606   44.1607   -2.5519 H         1 IH3370      0.0000 
     69 H          33.2473   41.9711   -3.0667 H         1 IH3370      0.0000 
     70 H          35.6901   41.5156   -2.8408 H         1 IH3370      0.0000 
     71 H          37.1714   43.3995   -2.1770 H         1 IH3370      0.0000 
     72 H          36.2112   45.6076   -1.6332 H         1 IH3370      0.0000 
     73 H          31.8889   54.9352    0.0446 H         1 IH3370      0.0000 
     74 H          32.0552   55.3080   -1.5109 H         1 IH3370      0.0000 
     75 H          30.5872   55.1236   -0.8807 H         1 IH3370      0.0000 
     76 H          22.7835   47.1598   -2.5208 H         1 IH3370      0.0000 
@<TRIPOS>BOND
     1    2    1 1    
     2    5    1 2    
     3   12    1 1    
     4    3    2 ar   
     5   42    2 1    
     6    4    3 ar   
     7    6    3 ar   
     8    5    4 1    
     9   43    4 1    
    10   44    5 1    
    11   76    6 1    
    12    9    7 1    
    13   26    7 am   
    14   45    7 1    
    15    9    8 1    
    16   13    8 1    
    17   46    8 1    
    18   47    8 1    
    19   10    9 1    
    20   48    9 1    
    21   11   10 1    
    22   49   10 1    
    23   50   10 1    
    24   12   11 1    
    25   51   11 1    
    26   52   11 1    
    27   13   12 1    
    28   53   12 1    
    29   54   13 1    
    30   55   13 1    
    31   15   14 am   
    32   19   14 am   
    33   29   14 1    
    34   16   15 2    
    35   17   15 am   
    36   18   17 1    
    37   21   17 1    
    38   19   18 am   
    39   24   18 1    
    40   20   19 2    
    41   22   21 1    
    42   56   21 1    
    43   57   21 1    
    44   23   22 2    
    45   25   22 1    
    46   24   23 1    
    47   58   23 1    
    48   26   24 1    
    49   59   24 1    
    50   73   25 1    
    51   74   25 1    
    52   75   25 1    
    53   27   26 2    
    54   29   28 1    
    55   30   28 1    
    56   36   28 1    
    57   60   28 1    
    58   61   29 1    
    59   62   29 1    
    60   31   30 ar   
    61   35   30 ar   
    62   32   31 ar   
    63   63   31 1    
    64   33   32 ar   
    65   64   32 1    
    66   34   33 ar   
    67   65   33 1    
    68   35   34 ar   
    69   66   34 1    
    70   67   35 1    
    71   37   36 ar   
    72   41   36 ar   
    73   38   37 ar   
    74   68   37 1    
    75   39   38 ar   
    76   69   38 1    
    77   40   39 ar   
    78   70   39 1    
    79   41   40 ar   
    80   71   40 1    
    81   72   41 1    
@<TRIPOS>SUBSTRUCTURE
     1 IH3370      1 GROUP   
@<TRIPOS>SET

