#    Name: 1qfy_NAP_2_INTS_M
#    Modification time : Mon Mar 24 23:24:15 2014

@<TRIPOS>MOLECULE
1qfy_NAP_2_INTS_M
   97     0    12     0     0
SMALL
NO_CHARGES


@<TRIPOS>ATOM
      1 CA          7.5815    1.3005   -4.8715 C.3       4 GLC5        0.0000 
      2 CA          8.1080    1.2640   -6.8710 C.3      12 GLL5        0.0000 
      3 CA          7.0550    1.3370   -2.8720 C.3       8 GLP5        0.0000 
      4 O          11.5015   -1.4600   -9.3600 O.2       1 ALC1        0.0000 
      5 O          10.5650   -0.8470   -8.4500 O.2       9 ALL1        0.0000 
      6 O          12.4380   -2.0730  -10.2700 O.2       5 ALP1        0.0000 
      7 CA          9.1775   -0.9625  -11.5320 C.3       4 GLC5        0.0000 
      8 CA          9.1600    0.3780   -9.9230 C.3      12 GLL5        0.0000 
      9 CA          9.1950   -2.3030  -13.1410 C.3       8 GLP5        0.0000 
     10 CA          8.2675   -1.9005  -11.1740 C.3       4 GLC5        0.0000 
     11 CA          7.9620   -0.4620   -9.8700 C.3      12 GLL5        0.0000 
     12 CA          8.5730   -3.3390  -12.4780 C.3       8 GLP5        0.0000 
     13 CA          2.5560   -1.4000  -11.9610 C.3       4 GLC5        0.0000 
     14 CA          4.2840   -0.9420  -12.9190 C.3      12 GLL5        0.0000 
     15 CA          0.8280   -1.8580  -11.0030 C.3       8 GLP5        0.0000 
     16 O           1.9415   -0.6315  -13.7400 O.2       1 ALC1        0.0000 
     17 O           3.6250   -0.3710  -13.9180 O.2       9 ALL1        0.0000 
     18 O           0.2580   -0.8920  -13.5620 O.2       5 ALP1        0.0000 
     19 CA          4.5325   -2.3590   -9.2245 C.3       4 GLC5        0.0000 
     20 CA          4.5790   -2.7280  -11.4310 C.3      12 GLL5        0.0000 
     21 CA          4.4860   -1.9900   -7.0180 C.3       8 GLP5        0.0000 
     22 CA          6.0195   -4.1670  -11.9200 C.3       4 GLC5        0.0000 
     23 CA          7.4600   -5.6060  -12.4090 C.3       8 GLP5        0.0000 
     24 CA          4.1490   -4.2160  -10.1185 C.3       4 GLC5        0.0000 
     25 CA          3.7190   -5.7040   -8.8060 C.3       8 GLP5        0.0000 
     26 CA          2.7035   -2.2930  -11.2170 C.3       4 GLC5        0.0000 
     27 NZ          9.5035    6.9330   -4.9145 N.4       3 LYC4        0.0000 
     28 NZ          8.1050    6.3780   -4.9880 N.4      11 LYL4        0.0000 
     29 NZ         10.9020    7.4880   -4.8410 N.4       7 LYP4        0.0000 
     30 N           9.5035    6.9330   -4.9145 N.am      2 SEC2        0.0000 
     31 N           8.1050    6.3780   -4.9880 N.am     10 SEL2        0.0000 
     32 N          10.9020    7.4880   -4.8410 N.am      6 SEP2        0.0000 
     33 N           6.7140    3.7820   -2.2345 N.am      2 SEC2        0.0000 
     34 N           7.3930    4.7180   -3.1950 N.am     10 SEL2        0.0000 
     35 N           6.0350    2.8460   -1.2740 N.am      6 SEP2        0.0000 
     36 CA          5.8885    3.0635   -3.6075 C.3       4 GLC5        0.0000 
     37 CA          4.7220    4.7900   -4.3430 C.3      12 GLL5        0.0000 
     38 CA          2.2400    3.5570   -4.6970 C.3       4 GLC5        0.0000 
     39 CA          3.5180    5.3560   -5.0120 C.3      12 GLL5        0.0000 
     40 CA          0.9620    1.7580   -4.3820 C.3       8 GLP5        0.0000 
     41 CA          1.9345    7.8810   -2.1005 C.3       4 GLC5        0.0000 
     42 CA          2.3030    7.0630   -3.8750 C.3      12 GLL5        0.0000 
     43 CA          1.5660    8.6990   -0.3260 C.3       8 GLP5        0.0000 
     44 O           0.0360    7.9300   -4.5855 O.2       1 ALC1        0.0000 
     45 O           1.5710    8.2070   -4.2590 O.2       9 ALL1        0.0000 
     46 O          -1.4990    7.6530   -4.9120 O.2       5 ALP1        0.0000 
     47 CA          1.2235    3.7850   -4.1835 C.3       4 GLC5        0.0000 
     48 CA          1.4850    5.8120   -3.9850 C.3      12 GLL5        0.0000 
     49 CA          0.2405    3.5800   -3.5255 C.3       4 GLC5        0.0000 
     50 CA         -0.4810    5.4020   -2.6690 C.3      12 GLL5        0.0000 
     51 CA         -1.5645    6.5545   -4.2050 C.3       4 GLC5        0.0000 
     52 CA         -2.6480    7.7070   -5.7410 C.3       8 GLP5        0.0000 
     53 O          -2.7520    4.5590    0.9605 O.2       1 ALC1        0.0000 
     54 O          -3.2240    4.6960   -0.4560 O.2       9 ALL1        0.0000 
     55 O          -2.2800    4.4220    2.3770 O.2       5 ALP1        0.0000 
     56 O          -4.5405    4.2965    0.1380 O.2       1 ALC1        0.0000 
     57 O          -5.8570    3.8970    0.7320 O.2       5 ALP1        0.0000 
     58 CA         -0.9130    4.5260    1.5420 C.3       4 GLC5        0.0000 
     59 CA         -0.4360    4.6380   -0.3930 C.3      12 GLL5        0.0000 
     60 CA         -1.3900    4.4140    3.4770 C.3       8 GLP5        0.0000 
     61 CA          1.3070    3.3835   -2.9915 C.3       4 GLC5        0.0000 
     62 CA          1.6520    5.0090   -1.6010 C.3      12 GLL5        0.0000 
     63 NZ         13.4225    2.3345  -10.7340 N.4       3 LYC4        0.0000 
     64 NZ         11.5190    1.9370  -10.8000 N.4      11 LYL4        0.0000 
     65 NZ         15.3260    2.7320  -10.6680 N.4       7 LYP4        0.0000 
     66 NZ         12.6755   -0.4310  -13.2910 N.4       3 LYC4        0.0000 
     67 NZ         12.3620    0.0840  -12.0450 N.4      11 LYL4        0.0000 
     68 NZ         12.9890   -0.9460  -14.5370 N.4       7 LYP4        0.0000 
     69 N          12.4000   -0.9945  -11.1575 N.am      2 SEC2        0.0000 
     70 N          12.3620    0.0840  -12.0450 N.am     10 SEL2        0.0000 
     71 N          12.4380   -2.0730  -10.2700 N.am      6 SEP2        0.0000 
     72 N          12.6755   -0.4310  -13.2910 N.am      2 SEC2        0.0000 
     73 N          12.9890   -0.9460  -14.5370 N.am      6 SEP2        0.0000 
     74 NZ         11.7275    0.1885  -13.6975 N.4       3 LYC4        0.0000 
     75 NZ         10.4660    1.3230  -12.8580 N.4      11 LYL4        0.0000 
     76 CA          6.3853   -0.0500   -6.6875 C.3       4 GLC5        0.0000 
     77 CA          8.5050    0.0500   -7.6330 C.3      12 GLL5        0.0000 
     78 CA          4.4640   -0.7570   -6.1230 C.3       8 GLP5        0.0000 
     79 CA          6.6963    1.4140   -8.3560 C.3       4 GLC5        0.0000 
     80 CA          5.0860    2.1710   -9.4600 C.3       8 GLP5        0.0000 
     81 CA         10.0087   -0.8330   -6.5343 C.3       4 GLC5        0.0000 
     82 CA         10.9130   -1.8280   -4.9810 C.3       8 GLP5        0.0000 
     83 CA         10.7888    0.4425   -6.9782 C.3       4 GLC5        0.0000 
     84 CA         12.4730    0.7230   -5.8690 C.3       8 GLP5        0.0000 
     85 CA          6.8235    1.0645   -9.6783 C.3       4 GLC5        0.0000 
     86 CA          5.3895    0.7670  -10.6290 C.3       4 GLC5        0.0000 
     87 CA          6.0300   -0.9480  -11.2860 C.3      12 GLL5        0.0000 
     88 CA          4.2810    4.6635   -6.5137 C.3       4 GLC5        0.0000 
     89 CA          4.4420    4.2540   -8.3500 C.3       8 GLP5        0.0000 
     90 CA          3.3248    4.7993   -0.4300 C.3       4 GLC5        0.0000 
     91 CA          0.9850    4.6280   -0.4270 C.3      12 GLL5        0.0000 
     92 CA          5.3310    4.7800    0.1540 C.3       8 GLP5        0.0000 
     93 CA         -0.7314    3.0172   -0.6684 C.3       4 GLC5        0.0000 
     94 CA         -1.5560    1.3020   -0.6400 C.3       8 GLP5        0.0000 
     95 CA          1.4423    6.7588   -0.6700 C.3       4 GLC5        0.0000 
     96 CA          1.6011    3.0545   -0.9463 C.3       4 GLC5        0.0000 
     97 CA          2.2390    1.2880   -0.8870 C.3       8 GLP5        0.0000 
@<TRIPOS>BOND
@<TRIPOS>SUBSTRUCTURE
     1 ALC1        4 GROUP        1 X    ALC  0     ROOT ALC X 1
     2 SEC2       30 GROUP        1 X    SEC  0     **** SEC X 2
     3 LYC4       27 GROUP        1 X    LYC  0     **** LYC X 4
     4 GLC5        1 GROUP        1 X    GLC  0     **** GLC X 6
     5 ALP1        6 GROUP        1 Y    ALP  0     ROOT ALP Y 8
     6 SEP2       32 GROUP        1 Y    SEP  0     **** SEP Y 9
     7 LYP4       29 GROUP        1 Y    LYP  0     **** LYP Y 11
     8 GLP5        3 GROUP        1 Y    GLP  0     **** GLP Y 13
     9 ALL1        5 GROUP        1 Z    ALL  0     ROOT ALL Z 15
    10 SEL2       31 GROUP        1 Z    SEL  0     **** SEL Z 16
    11 LYL4       28 GROUP        1 Z    LYL  0     **** LYL Z 18
    12 GLL5        2 GROUP        1 Z    GLL  0     **** GLL Z 20
@<TRIPOS>SET

