#    Name: 1qfy_NAP_2_ligand
#    Modification time : Mon Mar 24 23:24:15 2014

@<TRIPOS>MOLECULE
1qfy_NAP_2_ligand
   73    77     1     0     0
SMALL
NO_CHARGES


@<TRIPOS>ATOM
      1 PA          8.9150    3.7420   -6.6900 P.3       1 NAP310      0.0000 
      2 O1A         9.0220    4.9150   -7.6130 O.co2     1 NAP310      0.0000 
      3 O2A         9.8150    3.5350   -5.4820 O.co2     1 NAP310      0.0000 
      4 O5B         8.8920    2.2970   -7.3650 O.3       1 NAP310      0.0000 
      5 C5B         8.1080    1.2640   -6.8710 C.3       1 NAP310      0.0000 
      6 C4B         8.5050    0.0500   -7.6330 C.3       1 NAP310      0.0000 
      7 O4B         7.3800   -0.3740   -8.5370 O.3       1 NAP310      0.0000 
      8 C3B         9.7040    0.2740   -8.5420 C.3       1 NAP310      0.0000 
      9 O3B        10.5650   -0.8470   -8.4500 O.3       1 NAP310      0.0000 
     10 C2B         9.1600    0.3780   -9.9230 C.3       1 NAP310      0.0000 
     11 O2B        10.1330   -0.1380  -10.8710 O.3       1 NAP310      0.0000 
     12 C1B         7.9620   -0.4620   -9.8700 C.3       1 NAP310      0.0000 
     13 N9A         7.0170   -0.1380  -10.9310 N.pl3     1 NAP310      0.0000 
     14 C8A         6.9470    0.9640  -11.7200 C.2       1 NAP310      0.0000 
     15 N7A         5.9110    0.8470  -12.5940 N.2       1 NAP310      0.0000 
     16 C5A         5.3560   -0.3260  -12.3100 C.ar      1 NAP310      0.0000 
     17 C6A         4.2840   -0.9420  -12.9190 C.ar      1 NAP310      0.0000 
     18 N6A         3.6250   -0.3710  -13.9180 N.pl3     1 NAP310      0.0000 
     19 N1A         3.9060   -2.1500  -12.4360 N.ar      1 NAP310      0.0000 
     20 C2A         4.5790   -2.7280  -11.4310 C.ar      1 NAP310      0.0000 
     21 N3A         5.6220   -2.1310  -10.8680 N.ar      1 NAP310      0.0000 
     22 C4A         6.0300   -0.9480  -11.2860 C.ar      1 NAP310      0.0000 
     23 O3          7.6410    3.9440   -5.5560 O.3       1 NAP310      0.0000 
     24 PN          7.3280    5.1830   -4.5810 P.3       1 NAP310      0.0000 
     25 O1N         8.1050    6.3780   -4.9880 O.co2     1 NAP310      0.0000 
     26 O2N         7.3930    4.7180   -3.1950 O.co2     1 NAP310      0.0000 
     27 O5D         5.8170    5.3470   -5.0730 O.3       1 NAP310      0.0000 
     28 C5D         4.7220    4.7900   -4.3430 C.3       1 NAP310      0.0000 
     29 C4D         3.5180    5.3560   -5.0120 C.3       1 NAP310      0.0000 
     30 O4D         2.2680    4.7780   -4.6020 O.3       1 NAP310      0.0000 
     31 C3D         3.4380    6.8520   -4.7980 C.3       1 NAP310      0.0000 
     32 O3D         3.1520    7.4480   -6.0620 O.3       1 NAP310      0.0000 
     33 C2D         2.3030    7.0630   -3.8750 C.3       1 NAP310      0.0000 
     34 O2D         1.5710    8.2070   -4.2590 O.3       1 NAP310      0.0000 
     35 C1D         1.4850    5.8120   -3.9850 C.3       1 NAP310      0.0000 
     36 N1N         0.8960    5.3950   -2.7090 N.pl3     1 NAP310      0.0000 
     37 C2N        -0.4810    5.4020   -2.6690 C.ar      1 NAP310      0.0000 
     38 C3N        -1.1610    5.0360   -1.5400 C.ar      1 NAP310      0.0000 
     39 C7N        -2.6230    5.0670   -1.5760 C.2       1 NAP310      0.0000 
     40 O7N        -3.2220    5.4220   -2.5980 O.2       1 NAP310      0.0000 
     41 N7N        -3.2240    4.6960   -0.4560 N.am      1 NAP310      0.0000 
     42 C4N        -0.4360    4.6380   -0.3930 C.ar      1 NAP310      0.0000 
     43 C5N         0.9850    4.6280   -0.4270 C.ar      1 NAP310      0.0000 
     44 C6N         1.6520    5.0090   -1.6010 C.ar      1 NAP310      0.0000 
     45 P2B        11.1480    0.8340  -11.6550 P.3       1 NAP310      0.0000 
     46 O1X        11.5190    1.9370  -10.8000 O.co2     1 NAP310      0.0000 
     47 O2X        12.3620    0.0840  -12.0450 O.co2     1 NAP310      0.0000 
     48 O3X        10.4660    1.3230  -12.8580 O.co2     1 NAP310      0.0000 
     49 H           7.0429    1.4363   -7.0268 H         1 NAP310      0.0000 
     50 H           8.2811    1.0780   -5.8109 H         1 NAP310      0.0000 
     51 H           8.7260   -0.7642   -6.9679 H         1 NAP310      0.0000 
     52 H          10.1702    1.1823   -8.2686 H         1 NAP310      0.0000 
     53 H           8.8967    1.3825  -10.1157 H         1 NAP310      0.0000 
     54 H           8.3001   -1.5183  -10.0163 H         1 NAP310      0.0000 
     55 H           7.5484    1.7266  -11.6695 H         1 NAP310      0.0000 
     56 H           3.9375    0.5399  -14.1876 H         1 NAP310      0.0000 
     57 H           2.8752   -0.9029  -14.3114 H         1 NAP310      0.0000 
     58 H           4.2689   -3.6759  -11.0852 H         1 NAP310      0.0000 
     59 H           4.7327    5.0987   -3.3111 H         1 NAP310      0.0000 
     60 H           4.6979    3.7158   -4.4185 H         1 NAP310      0.0000 
     61 H           3.6368    5.2166   -6.1092 H         1 NAP310      0.0000 
     62 H           4.3347    7.1871   -4.3738 H         1 NAP310      0.0000 
     63 H           2.6848    7.1299   -2.8747 H         1 NAP310      0.0000 
     64 H           0.6390    6.0595   -4.6848 H         1 NAP310      0.0000 
     65 H          -1.0118    5.6929   -3.5187 H         1 NAP310      0.0000 
     66 H          -4.2233    4.6687   -0.4811 H         1 NAP310      0.0000 
     67 H          -2.6241    4.4767    0.3135 H         1 NAP310      0.0000 
     68 H          -0.9258    4.3597    0.4536 H         1 NAP310      0.0000 
     69 H           1.5077    4.3449    0.3994 H         1 NAP310      0.0000 
     70 H           2.6682    5.0029   -1.6407 H         1 NAP310      0.0000 
     71 H          11.0209   -0.8966   -9.3386 H         1 NAP310      0.0000 
     72 H           2.2806    7.9214   -5.9336 H         1 NAP310      0.0000 
     73 H           0.7098    7.8527   -4.6235 H         1 NAP310      0.0000 
@<TRIPOS>BOND
     1    2    1 ar   
     2    3    1 ar   
     3    4    1 1    
     4   23    1 1    
     5    5    4 1    
     6    6    5 1    
     7   49    5 1    
     8   50    5 1    
     9    7    6 1    
    10    8    6 1    
    11   51    6 1    
    12   12    7 1    
    13    9    8 1    
    14   10    8 1    
    15   52    8 1    
    16   71    9 1    
    17   11   10 1    
    18   12   10 1    
    19   53   10 1    
    20   45   11 1    
    21   13   12 1    
    22   54   12 1    
    23   14   13 1    
    24   22   13 1    
    25   15   14 2    
    26   55   14 1    
    27   16   15 1    
    28   17   16 ar   
    29   22   16 ar   
    30   18   17 1    
    31   19   17 ar   
    32   56   18 1    
    33   57   18 1    
    34   20   19 ar   
    35   21   20 ar   
    36   58   20 1    
    37   22   21 ar   
    38   24   23 1    
    39   25   24 ar   
    40   26   24 ar   
    41   27   24 1    
    42   28   27 1    
    43   29   28 1    
    44   59   28 1    
    45   60   28 1    
    46   30   29 1    
    47   31   29 1    
    48   61   29 1    
    49   35   30 1    
    50   32   31 1    
    51   33   31 1    
    52   62   31 1    
    53   72   32 1    
    54   34   33 1    
    55   35   33 1    
    56   63   33 1    
    57   73   34 1    
    58   36   35 1    
    59   64   35 1    
    60   37   36 ar   
    61   44   36 ar   
    62   38   37 ar   
    63   65   37 1    
    64   39   38 1    
    65   42   38 ar   
    66   40   39 2    
    67   41   39 am   
    68   66   41 1    
    69   67   41 1    
    70   43   42 ar   
    71   68   42 1    
    72   44   43 ar   
    73   69   43 1    
    74   70   44 1    
    75   46   45 ar   
    76   47   45 ar   
    77   48   45 ar   
@<TRIPOS>SUBSTRUCTURE
     1 NAP310      1 GROUP   
@<TRIPOS>SET

