#    Name: 1fl2_FAD_1_INTS_M
#    Modification time : Tue Mar 25 01:28:34 2014

@<TRIPOS>MOLECULE
1fl2_FAD_1_INTS_M
  103     0     9     0     0
SMALL
NO_CHARGES


@<TRIPOS>ATOM
      1 N           1.6195   27.7670    7.0070 N.am      2 SEC2        0.0000 
      2 N           3.0140   28.1640    6.9490 N.am      8 SEL2        0.0000 
      3 N           0.2250   27.3700    7.0650 N.am      5 SEP2        0.0000 
      4 CA          4.4830   31.4425    9.1225 C.3       3 GLC5        0.0000 
      5 CA          3.8830   29.9360   10.0930 C.3       9 GLL5        0.0000 
      6 CA          5.0830   32.9490    8.1520 C.3       6 GLP5        0.0000 
      7 CA          4.7145   29.2585   12.7980 C.3       3 GLC5        0.0000 
      8 CA          3.2220   29.3570   11.3690 C.3       9 GLL5        0.0000 
      9 CA          6.2070   29.1600   14.2270 C.3       6 GLP5        0.0000 
     10 O          -0.3015   31.5045   13.7985 O.2       1 ALC1        0.0000 
     11 O           0.0570   30.7030   12.6120 O.2       7 ALL1        0.0000 
     12 O          -0.6600   32.3060   14.9850 O.2       4 ALP1        0.0000 
     13 CA          4.2765   29.8645   13.7035 C.3       3 GLC5        0.0000 
     14 CA          2.3460   30.5690   13.1800 C.3       9 GLL5        0.0000 
     15 CA          0.9700   30.2275   14.7545 C.3       3 GLC5        0.0000 
     16 CA         -0.4060   29.8860   16.3290 C.3       6 GLP5        0.0000 
     17 CA          5.6620   33.1100   17.0055 C.3       3 GLC5        0.0000 
     18 CA          3.6300   33.8890   16.6350 C.3       9 GLL5        0.0000 
     19 CA          7.6940   32.3310   17.3760 C.3       6 GLP5        0.0000 
     20 CA          2.7160   33.4495   18.4015 C.3       3 GLC5        0.0000 
     21 CA          1.8020   33.0100   20.1680 C.3       6 GLP5        0.0000 
     22 CA          4.9945   34.2395   18.1765 C.3       3 GLC5        0.0000 
     23 CA          6.3590   34.5900   19.7180 C.3       6 GLP5        0.0000 
     24 O           3.9110   35.8955   18.2235 O.2       1 ALC1        0.0000 
     25 O           3.7070   35.1490   16.9900 O.2       7 ALL1        0.0000 
     26 O           4.1150   36.6420   19.4570 O.2       4 ALP1        0.0000 
     27 N           4.0390   33.4395   18.7885 N.am      2 SEC2        0.0000 
     28 N           4.0430   32.9160   17.4680 N.am      8 SEL2        0.0000 
     29 N           4.0350   33.9630   20.1090 N.am      5 SEP2        0.0000 
     30 CA          5.8405   31.9670   17.2670 C.3       3 GLC5        0.0000 
     31 CA          3.9870   31.6030   17.1580 C.3       9 GLL5        0.0000 
     32 CA          5.0970   30.3815   15.6925 C.3       3 GLC5        0.0000 
     33 CA          3.8775   29.6350   17.1495 C.3       3 GLC5        0.0000 
     34 CA          3.7680   27.6670   17.1410 C.3       6 GLP5        0.0000 
     35 CA          2.0460   31.3860   17.0560 C.3       3 GLC5        0.0000 
     36 CA          0.1050   31.1690   16.9540 C.3       6 GLP5        0.0000 
     37 CA          2.8945   32.3065   18.6630 C.3       3 GLC5        0.0000 
     38 CA          5.2300   32.6405   15.6400 C.3       3 GLC5        0.0000 
     39 CA          6.4730   33.6780   14.1220 C.3       6 GLP5        0.0000 
     40 N           2.5455   29.7875   16.4070 N.am      2 SEC2        0.0000 
     41 N           3.5460   31.0680   16.0210 N.am      8 SEL2        0.0000 
     42 N           1.5450   28.5070   16.7930 N.am      5 SEP2        0.0000 
     43 CA          4.6615   30.5795   14.6890 C.3       3 GLC5        0.0000 
     44 CA          3.1160   31.9990   15.1510 C.3       9 GLL5        0.0000 
     45 N           4.3450   26.4230   -0.7065 N.am      2 SEC2        0.0000 
     46 N           2.7510   26.6600   -1.3070 N.am      8 SEL2        0.0000 
     47 N           5.9390   26.1860   -0.1060 N.am      5 SEP2        0.0000 
     48 N           5.1320   25.8580   -1.2405 N.am      2 SEC2        0.0000 
     49 N           4.3250   25.5300   -2.3750 N.am      8 SEL2        0.0000 
     50 O           2.8425   24.0560   -3.6715 O.2       1 ALC1        0.0000 
     51 O           2.2270   24.8340   -2.7640 O.2       7 ALL1        0.0000 
     52 O           3.4580   23.2780   -4.5790 O.2       4 ALP1        0.0000 
     53 CA         -5.4465   30.2945    0.2880 C.3       3 GLC5        0.0000 
     54 CA         -4.5040   28.4490    0.9360 C.3       9 GLL5        0.0000 
     55 CA         -6.3890   32.1400   -0.3600 C.3       6 GLP5        0.0000 
     56 CA          3.2890   26.1520    1.3000 C.3       3 GLC5        0.0000 
     57 CA          2.6910   27.8890    1.5520 C.3       9 GLL5        0.0000 
     58 CA          3.8870   24.4150    1.0480 C.3       6 GLP5        0.0000 
     59 O           4.5540   30.5870    2.2665 O.2       1 ALC1        0.0000 
     60 O           4.5750   29.3900    1.5250 O.2       7 ALL1        0.0000 
     61 O           4.5330   31.7840    3.0080 O.2       4 ALP1        0.0000 
     62 O           5.6080   30.4705    2.0370 O.2       1 ALC1        0.0000 
     63 O           6.6410   31.5510    2.5490 O.2       4 ALP1        0.0000 
     64 CA          4.7085   26.2695    4.4665 C.3       3 GLC5        0.0000 
     65 CA          4.2840   28.0070    3.4660 C.3       9 GLL5        0.0000 
     66 CA          5.1330   24.5320    5.4670 C.3       6 GLP5        0.0000 
     67 CA          5.2795   26.6000    2.1860 C.3       3 GLC5        0.0000 
     68 CA          6.2750   25.1930    0.9060 C.3       6 GLP5        0.0000 
     69 CA          4.9745   27.1440    5.4705 C.3       3 GLC5        0.0000 
     70 CA          5.1390   29.0070    4.2230 C.3       9 GLL5        0.0000 
     71 CA          4.8100   25.2810    6.7180 C.3       6 GLP5        0.0000 
     72 CA          5.5580   31.0570    4.2545 C.3       3 GLC5        0.0000 
     73 CA          5.9770   33.1070    4.2860 C.3       6 GLP5        0.0000 
     74 N           7.7235   31.1695    5.5900 N.am      2 SEC2        0.0000 
     75 N           7.2040   30.0110    6.2910 N.am      8 SEL2        0.0000 
     76 N           8.2430   32.3280    4.8890 N.am      5 SEP2        0.0000 
     77 N           7.5520   26.9220    7.5570 N.am      2 SEC2        0.0000 
     78 N           6.5920   28.0550    7.6690 N.am      8 SEL2        0.0000 
     79 N           8.5120   25.7890    7.4450 N.am      5 SEP2        0.0000 
     80 CA          4.0657   27.6773   10.1580 C.3       3 GLC5        0.0000 
     81 CA          4.5790   25.7080    9.5850 C.3       6 GLP5        0.0000 
     82 CA          4.7918   31.2107   11.2765 C.3       3 GLC5        0.0000 
     83 CA          6.0310   32.7750   11.8220 C.3       6 GLP5        0.0000 
     84 CA          1.6902   27.9337   10.2965 C.3       3 GLC5        0.0000 
     85 CA          0.9340   26.5300    9.2170 C.3       6 GLP5        0.0000 
     86 CA          1.6758   31.9950   16.2631 C.3       3 GLC5        0.0000 
     87 CA          3.1240   33.3970   15.3520 C.3       9 GLL5        0.0000 
     88 CA          4.8598   33.2495   14.8471 C.3       3 GLC5        0.0000 
     89 CA         -3.0013   25.7825    0.1632 C.3       3 GLC5        0.0000 
     90 CA         -1.2460   27.1320   -0.5180 C.3       9 GLL5        0.0000 
     91 CA         -4.0740   24.3480    0.7020 C.3       6 GLP5        0.0000 
     92 CA         -0.0193   27.5622   -2.1985 C.3       3 GLC5        0.0000 
     93 CA          0.7460   27.5540   -4.1750 C.3       6 GLP5        0.0000 
     94 CA         -3.9212   26.3590    0.7420 C.3       3 GLC5        0.0000 
     95 CA         -3.0330   28.2910    0.6280 C.3       9 GLL5        0.0000 
     96 CA         -0.8223   28.9932    3.1642 C.3       3 GLC5        0.0000 
     97 CA         -2.0780   29.1790    1.2320 C.3       9 GLL5        0.0000 
     98 CA         -0.1380   28.6110    5.0040 C.3       6 GLP5        0.0000 
     99 CA          4.5581   28.4333    0.2185 C.3       3 GLC5        0.0000 
    100 CA          1.9900   28.7110    0.4340 C.3       9 GLL5        0.0000 
    101 CA          6.1510   28.3190   -1.2340 C.3       6 GLP5        0.0000 
    102 CA          6.6893   28.0445    3.7908 C.3       3 GLC5        0.0000 
    103 CA          8.6670   27.5820    3.7370 C.3       6 GLP5        0.0000 
@<TRIPOS>BOND
@<TRIPOS>SUBSTRUCTURE
     1 ALC1       10 GROUP        1 X    ALC  0     ROOT ALC X 1
     2 SEC2        1 GROUP        1 X    SEC  0     **** SEC X 2
     3 GLC5        4 GROUP        1 X    GLC  0     **** GLC X 6
     4 ALP1       12 GROUP        1 Y    ALP  0     ROOT ALP Y 8
     5 SEP2        3 GROUP        1 Y    SEP  0     **** SEP Y 9
     6 GLP5        6 GROUP        1 Y    GLP  0     **** GLP Y 13
     7 ALL1       11 GROUP        1 Z    ALL  0     ROOT ALL Z 15
     8 SEL2        2 GROUP        1 Z    SEL  0     **** SEL Z 16
     9 GLL5        5 GROUP        1 Z    GLL  0     **** GLL Z 20
@<TRIPOS>SET

