#    Name: 1fl2_FAD_1_ligand
#    Modification time : Tue Mar 25 01:28:34 2014

@<TRIPOS>MOLECULE
1fl2_FAD_1_ligand
   84    89     1     0     0
SMALL
NO_CHARGES


@<TRIPOS>ATOM
      1 PA          3.4700   29.3220    7.5330 P.3       1 FAD522      0.0000 
      2 O1A         2.6620   30.5410    7.5470 O.co2     1 FAD522      0.0000 
      3 O2A         3.0140   28.1640    6.9490 O.co2     1 FAD522      0.0000 
      4 O5B         3.4760   28.9940    9.0220 O.3       1 FAD522      0.0000 
      5 C5B         3.8830   29.9360   10.0930 C.3       1 FAD522      0.0000 
      6 C4B         3.2220   29.3570   11.3690 C.3       1 FAD522      0.0000 
      7 O4B         3.5900   30.2500   12.4950 O.3       1 FAD522      0.0000 
      8 C3B         1.6710   29.3180   11.3830 C.3       1 FAD522      0.0000 
      9 O3B         1.0840   28.2000   11.9600 O.3       1 FAD522      0.0000 
     10 C2B         1.3560   30.6270   12.0680 C.3       1 FAD522      0.0000 
     11 O2B         0.0570   30.7030   12.6120 O.3       1 FAD522      0.0000 
     12 C1B         2.3460   30.5690   13.1800 C.3       1 FAD522      0.0000 
     13 N9A         2.5880   31.8380   13.8710 N.pl3     1 FAD522      0.0000 
     14 C8A         2.3160   33.0860   13.3950 C.2       1 FAD522      0.0000 
     15 N7A         2.6260   34.0450   14.2540 N.2       1 FAD522      0.0000 
     16 C5A         3.1240   33.3970   15.3520 C.ar      1 FAD522      0.0000 
     17 C6A         3.6300   33.8890   16.6350 C.ar      1 FAD522      0.0000 
     18 N6A         3.7070   35.1490   16.9900 N.pl3     1 FAD522      0.0000 
     19 N1A         4.0430   32.9160   17.4680 N.ar      1 FAD522      0.0000 
     20 C2A         3.9870   31.6030   17.1580 C.ar      1 FAD522      0.0000 
     21 N3A         3.5460   31.0680   16.0210 N.ar      1 FAD522      0.0000 
     22 C4A         3.1160   31.9990   15.1510 C.ar      1 FAD522      0.0000 
     23 N1          2.7510   26.6600   -1.3070 N.2       1 FAD522      0.0000 
     24 C2          3.1490   25.7100   -2.1320 C.2       1 FAD522      0.0000 
     25 O2          4.3250   25.5300   -2.3750 O.2       1 FAD522      0.0000 
     26 N3          2.2270   24.8340   -2.7640 N.am      1 FAD522      0.0000 
     27 C4          0.8660   24.9440   -2.5550 C.2       1 FAD522      0.0000 
     28 O4          0.1110   24.1880   -3.1130 O.2       1 FAD522      0.0000 
     29 C4X         0.4270   25.9780   -1.6360 C.2       1 FAD522      0.0000 
     30 N5         -0.8980   26.1380   -1.3890 N.2       1 FAD522      0.0000 
     31 C5X        -1.2460   27.1320   -0.5180 C.ar      1 FAD522      0.0000 
     32 C6         -2.6110   27.3020   -0.2330 C.ar      1 FAD522      0.0000 
     33 C7         -3.0330   28.2910    0.6280 C.ar      1 FAD522      0.0000 
     34 C7M        -4.5040   28.4490    0.9360 C.3       1 FAD522      0.0000 
     35 C8         -2.0780   29.1790    1.2320 C.ar      1 FAD522      0.0000 
     36 C8M        -2.4980   30.2830    2.1740 C.3       1 FAD522      0.0000 
     37 C9         -0.7250   29.0200    0.9460 C.ar      1 FAD522      0.0000 
     38 C9A        -0.3230   28.0090    0.0740 C.ar      1 FAD522      0.0000 
     39 N10         1.0430   27.8000   -0.2190 N.pl3     1 FAD522      0.0000 
     40 C10         1.4270   26.8450   -1.0600 C.2       1 FAD522      0.0000 
     41 C1'         1.9900   28.7110    0.4340 C.3       1 FAD522      0.0000 
     42 C2'         2.6910   27.8890    1.5520 C.3       1 FAD522      0.0000 
     43 O2'         1.6990   27.3080    2.3790 O.3       1 FAD522      0.0000 
     44 C3'         3.5900   28.7950    2.3490 C.3       1 FAD522      0.0000 
     45 O3'         4.5750   29.3900    1.5250 O.3       1 FAD522      0.0000 
     46 C4'         4.2840   28.0070    3.4660 C.3       1 FAD522      0.0000 
     47 O4'         3.3550   27.3260    4.3500 O.3       1 FAD522      0.0000 
     48 C5'         5.1390   29.0070    4.2230 C.3       1 FAD522      0.0000 
     49 O5'         5.8200   28.2510    5.4120 O.3       1 FAD522      0.0000 
     50 P           6.1770   28.9600    6.7040 P.3       1 FAD522      0.0000 
     51 O1P         7.2040   30.0110    6.2910 O.co2     1 FAD522      0.0000 
     52 O2P         6.5920   28.0550    7.6690 O.co2     1 FAD522      0.0000 
     53 O3P         4.9990   29.6280    7.3230 O.3       1 FAD522      0.0000 
     54 H           3.4907   30.9095    9.9203 H         1 FAD522      0.0000 
     55 H           4.9381   29.9346   10.2277 H         1 FAD522      0.0000 
     56 H           3.6006   28.3812   11.5655 H         1 FAD522      0.0000 
     57 H           1.3823   29.4690   10.3239 H         1 FAD522      0.0000 
     58 H           1.6247   31.4195   11.4294 H         1 FAD522      0.0000 
     59 H           2.1084   29.7878   13.8489 H         1 FAD522      0.0000 
     60 H           1.9242   33.2393   12.4909 H         1 FAD522      0.0000 
     61 H           3.4184   35.8176   16.3047 H         1 FAD522      0.0000 
     62 H           4.0473   35.3259   17.9135 H         1 FAD522      0.0000 
     63 H           4.3427   30.9123   17.9257 H         1 FAD522      0.0000 
     64 H           2.6004   24.1008   -3.3935 H         1 FAD522      0.0000 
     65 H          -3.2971   26.6718   -0.6804 H         1 FAD522      0.0000 
     66 H          -0.0303   29.6395    1.3717 H         1 FAD522      0.0000 
     67 H           1.4857   29.5398    0.8972 H         1 FAD522      0.0000 
     68 H           2.7452   29.0531   -0.2504 H         1 FAD522      0.0000 
     69 H           3.2917   27.1401    1.0615 H         1 FAD522      0.0000 
     70 H           2.9750   29.5538    2.8295 H         1 FAD522      0.0000 
     71 H           4.9620   27.3017    2.9881 H         1 FAD522      0.0000 
     72 H           4.5277   29.7923    4.6250 H         1 FAD522      0.0000 
     73 H           5.9076   29.3997    3.5850 H         1 FAD522      0.0000 
     74 H          -4.6712   29.2009    1.5737 H         1 FAD522      0.0000 
     75 H          -5.0376   28.6394    0.1120 H         1 FAD522      0.0000 
     76 H          -4.8877   27.6232    1.3494 H         1 FAD522      0.0000 
     77 H          -1.7138   30.8095    2.5023 H         1 FAD522      0.0000 
     78 H          -3.1215   30.9294    1.7341 H         1 FAD522      0.0000 
     79 H          -2.9685   29.9243    2.9802 H         1 FAD522      0.0000 
     80 H           0.4032   28.5642   12.5955 H         1 FAD522      0.0000 
     81 H           0.1435   31.3062   13.4049 H         1 FAD522      0.0000 
     82 H           2.1447   27.1771    3.2646 H         1 FAD522      0.0000 
     83 H           4.6974   30.3119    1.8926 H         1 FAD522      0.0000 
     84 H           3.4382   27.7993    5.2269 H         1 FAD522      0.0000 
@<TRIPOS>BOND
     1    2    1 ar   
     2    3    1 ar   
     3    4    1 1    
     4   53    1 1    
     5    5    4 1    
     6    6    5 1    
     7   54    5 1    
     8   55    5 1    
     9    7    6 1    
    10    8    6 1    
    11   56    6 1    
    12   12    7 1    
    13    9    8 1    
    14   10    8 1    
    15   57    8 1    
    16   80    9 1    
    17   11   10 1    
    18   12   10 1    
    19   58   10 1    
    20   81   11 1    
    21   13   12 1    
    22   59   12 1    
    23   14   13 1    
    24   22   13 1    
    25   15   14 2    
    26   60   14 1    
    27   16   15 1    
    28   17   16 ar   
    29   22   16 ar   
    30   18   17 1    
    31   19   17 ar   
    32   61   18 1    
    33   62   18 1    
    34   20   19 ar   
    35   21   20 ar   
    36   63   20 1    
    37   22   21 ar   
    38   24   23 1    
    39   40   23 2    
    40   25   24 2    
    41   26   24 am   
    42   27   26 am   
    43   64   26 1    
    44   28   27 2    
    45   29   27 1    
    46   30   29 2    
    47   40   29 1    
    48   31   30 1    
    49   32   31 ar   
    50   38   31 ar   
    51   33   32 ar   
    52   65   32 1    
    53   34   33 1    
    54   35   33 ar   
    55   74   34 1    
    56   75   34 1    
    57   76   34 1    
    58   36   35 1    
    59   37   35 ar   
    60   77   36 1    
    61   78   36 1    
    62   79   36 1    
    63   38   37 ar   
    64   66   37 1    
    65   39   38 1    
    66   40   39 1    
    67   41   39 1    
    68   42   41 1    
    69   67   41 1    
    70   68   41 1    
    71   43   42 1    
    72   44   42 1    
    73   69   42 1    
    74   82   43 1    
    75   45   44 1    
    76   46   44 1    
    77   70   44 1    
    78   83   45 1    
    79   47   46 1    
    80   48   46 1    
    81   71   46 1    
    82   84   47 1    
    83   49   48 1    
    84   72   48 1    
    85   73   48 1    
    86   50   49 1    
    87   51   50 ar   
    88   52   50 ar   
    89   53   50 1    
@<TRIPOS>SUBSTRUCTURE
     1 FAD522      1 GROUP   
@<TRIPOS>SET

