#    Name: 1y5w_NEZ_1_INTS_M
#    Modification time : Mon Apr  7 15:34:49 2014

@<TRIPOS>MOLECULE
1y5w_NEZ_1_INTS_M
   50     0     9     0     0
SMALL
NO_CHARGES


@<TRIPOS>ATOM
      1 O          13.8290   15.7760   22.7735 O.2       1 ALC1        0.0000 
      2 O          14.8070   16.1600   24.0500 O.2       7 ALL1        0.0000 
      3 O          12.8510   15.3920   21.4970 O.2       4 ALP1        0.0000 
      4 O          13.7915   15.2655   23.7505 O.2       1 ALC1        0.0000 
      5 O          12.7760   14.3710   23.4510 O.2       4 ALP1        0.0000 
      6 O          15.0140   16.7505   25.4080 O.2       1 ALC1        0.0000 
      7 O          15.2210   17.3410   26.7660 O.2       4 ALP1        0.0000 
      8 O          17.1490   17.0250   25.0385 O.2       1 ALC1        0.0000 
      9 O          16.9260   16.9340   23.6970 O.2       7 ALL1        0.0000 
     10 O          17.3720   17.1160   26.3800 O.2       4 ALP1        0.0000 
     11 N          19.5630   17.7320   24.6240 N.am      2 SEC2        0.0000 
     12 N          19.0490   17.6060   23.1840 N.am      8 SEL2        0.0000 
     13 N          20.0770   17.8580   26.0640 N.am      5 SEP2        0.0000 
     14 N          20.4705   17.5970   22.9265 N.am      2 SEC2        0.0000 
     15 N          21.8920   17.5880   22.6690 N.am      5 SEP2        0.0000 
     16 O          20.4445   17.8990   18.0340 O.2       1 ALC1        0.0000 
     17 O          19.0580   17.7160   17.8700 O.2       7 ALL1        0.0000 
     18 O          21.8310   18.0820   18.1980 O.2       4 ALP1        0.0000 
     19 CA         17.6700   15.6220   17.1370 C.3       3 GLC5        0.0000 
     20 CA         17.0770   17.0010   18.5920 C.3       9 GLL5        0.0000 
     21 CA         18.2630   14.2430   15.6820 C.3       6 GLP5        0.0000 
     22 CA         14.1270   18.8890   18.7775 C.3       3 GLC5        0.0000 
     23 CA         13.8570   17.2790   18.5770 C.3       9 GLL5        0.0000 
     24 CA         14.3970   20.4990   18.9780 C.3       6 GLP5        0.0000 
     25 CA         14.9108   18.0708   20.0185 C.3       3 GLC5        0.0000 
     26 CA         14.7330   16.1440   19.0610 C.3       9 GLL5        0.0000 
     27 CA         13.9660   19.5100   21.2990 C.3       6 GLP5        0.0000 
     28 CA         17.3468   15.0272   20.1808 C.3       3 GLC5        0.0000 
     29 CA         16.0700   16.6260   19.5240 C.3       9 GLL5        0.0000 
     30 CA         18.4480   13.3860   20.1380 C.3       6 GLP5        0.0000 
     31 CA         15.5125   18.2268   21.2125 C.3       3 GLC5        0.0000 
     32 CA         16.4210   16.7110   20.9230 C.3       9 GLL5        0.0000 
     33 CA         18.7315   19.1202   21.5250 C.3       3 GLC5        0.0000 
     34 CA         17.6970   17.1760   21.3290 C.3       9 GLL5        0.0000 
     35 CA         19.2620   20.8870   22.2010 C.3       6 GLP5        0.0000 
     36 CA         18.3245   15.3697   20.4935 C.3       3 GLC5        0.0000 
     37 CA         18.7050   17.5310   20.3690 C.3       9 GLL5        0.0000 
     38 CA         18.0825   15.2988   19.4672 C.3       3 GLC5        0.0000 
     39 CA         18.3570   17.4220   19.0010 C.3       9 GLL5        0.0000 
     40 CA         11.0563   13.3357   17.5023 C.3       3 GLC5        0.0000 
     41 CA         12.2140   15.2840   18.2620 C.3       9 GLL5        0.0000 
     42 CA         10.4720   11.6220   17.0920 C.3       6 GLP5        0.0000 
     43 CA         11.3673   14.4362   19.8448 C.3       3 GLC5        0.0000 
     44 CA         11.0670   14.8150   17.5630 C.3       9 GLL5        0.0000 
     45 CA         11.0940   13.8230   21.7770 C.3       6 GLP5        0.0000 
     46 CA          9.8068   14.0738   14.9563 C.3       3 GLC5        0.0000 
     47 CA         10.4480   15.6380   16.6050 C.3       9 GLL5        0.0000 
     48 CA          9.7640   12.7340   13.6950 C.3       6 GLP5        0.0000 
     49 CA         10.1608   13.5177   16.6547 C.3       3 GLC5        0.0000 
     50 CA          9.2510   15.1890   15.8300 C.3       9 GLL5        0.0000 
@<TRIPOS>BOND
@<TRIPOS>SUBSTRUCTURE
     1 ALC1        1 GROUP        1 X    ALC  0     ROOT ALC X 1
     2 SEC2       11 GROUP        1 X    SEC  0     **** SEC X 2
     3 GLC5       19 GROUP        1 X    GLC  0     **** GLC X 6
     4 ALP1        3 GROUP        1 Y    ALP  0     ROOT ALP Y 8
     5 SEP2       13 GROUP        1 Y    SEP  0     **** SEP Y 9
     6 GLP5       21 GROUP        1 Y    GLP  0     **** GLP Y 13
     7 ALL1        2 GROUP        1 Z    ALL  0     ROOT ALL Z 15
     8 SEL2       12 GROUP        1 Z    SEL  0     **** SEL Z 16
     9 GLL5       20 GROUP        1 Z    GLL  0     **** GLL Z 20
@<TRIPOS>SET

