#    Name: 1y5w_NEZ_1_ligand
#    Modification time : Mon Apr  7 15:34:49 2014

@<TRIPOS>MOLECULE
1y5w_NEZ_1_ligand
   41    44     1     0     0
SMALL
NO_CHARGES


@<TRIPOS>ATOM
      1 C14        14.7330   16.1440   19.0610 C.3       1 NEZ500      0.0000 
      2 C5         16.0700   16.6260   19.5240 C.ar      1 NEZ500      0.0000 
      3 C4         16.4210   16.7110   20.9230 C.ar      1 NEZ500      0.0000 
      4 N10        15.4640   16.4110   21.9110 N.2       1 NEZ500      0.0000 
      5 C9         15.7490   16.4950   23.1670 C.2       1 NEZ500      0.0000 
      6 N23        14.8070   16.1600   24.0500 N.pl3     1 NEZ500      0.0000 
      7 N8         16.9260   16.9340   23.6970 N.am      1 NEZ500      0.0000 
      8 C7         17.9200   17.2490   22.8520 C.2       1 NEZ500      0.0000 
      9 O22        19.0490   17.6060   23.1840 O.2       1 NEZ500      0.0000 
     10 C3         17.6970   17.1760   21.3290 C.ar      1 NEZ500      0.0000 
     11 C2         18.7050   17.5310   20.3690 C.ar      1 NEZ500      0.0000 
     12 C1         18.3570   17.4220   19.0010 C.ar      1 NEZ500      0.0000 
     13 N11        19.0580   17.7160   17.8700 N.pl3     1 NEZ500      0.0000 
     14 C12        18.2640   17.4690   16.8750 C.2       1 NEZ500      0.0000 
     15 N13        17.1140   17.0790   17.2520 N.2       1 NEZ500      0.0000 
     16 C6         17.0770   17.0010   18.5920 C.ar      1 NEZ500      0.0000 
     17 C15        13.8570   17.2790   18.5770 C.3       1 NEZ500      0.0000 
     18 C16        12.6410   16.6190   17.9110 C.ar      1 NEZ500      0.0000 
     19 C17        12.2140   15.2840   18.2620 C.ar      1 NEZ500      0.0000 
     20 C18        11.0670   14.8150   17.5630 C.ar      1 NEZ500      0.0000 
     21 C19        10.4480   15.6380   16.6050 C.ar      1 NEZ500      0.0000 
     22 C24         9.2510   15.1890   15.8300 C.3       1 NEZ500      0.0000 
     23 C20        10.8840   16.9480   16.2670 C.ar      1 NEZ500      0.0000 
     24 C21        12.0140   17.4480   16.9450 C.ar      1 NEZ500      0.0000 
     25 H          14.2216   15.6242   19.8834 H         1 NEZ500      0.0000 
     26 H          14.8629   15.4201   18.2442 H         1 NEZ500      0.0000 
     27 H          14.8647   16.6034   24.9445 H         1 NEZ500      0.0000 
     28 H          14.1279   15.4955   23.7382 H         1 NEZ500      0.0000 
     29 H          17.0387   17.0178   24.7150 H         1 NEZ500      0.0000 
     30 H          19.6048   17.8387   20.6624 H         1 NEZ500      0.0000 
     31 H          19.9621   18.0406   17.8554 H         1 NEZ500      0.0000 
     32 H          18.5438   17.5795   15.9035 H         1 NEZ500      0.0000 
     33 H          14.3808   17.8658   17.8523 H         1 NEZ500      0.0000 
     34 H          13.5279   17.8698   19.4055 H         1 NEZ500      0.0000 
     35 H          12.6864   14.7504   18.9327 H         1 NEZ500      0.0000 
     36 H          10.7009   13.8852   17.7609 H         1 NEZ500      0.0000 
     37 H          10.4043   17.4888   15.5749 H         1 NEZ500      0.0000 
     38 H          12.3713   18.3711   16.7516 H         1 NEZ500      0.0000 
     39 H           9.4447   14.3710   15.2884 H         1 NEZ500      0.0000 
     40 H           8.4818   14.9682   16.4296 H         1 NEZ500      0.0000 
     41 H           8.9345   15.8932   15.1944 H         1 NEZ500      0.0000 
@<TRIPOS>BOND
     1    2    1 1    
     2   17    1 1    
     3   25    1 1    
     4   26    1 1    
     5    3    2 ar   
     6   16    2 ar   
     7    4    3 1    
     8   10    3 ar   
     9    5    4 2    
    10    6    5 1    
    11    7    5 1    
    12   27    6 1    
    13   28    6 1    
    14    8    7 am   
    15   29    7 1    
    16    9    8 2    
    17   10    8 1    
    18   11   10 ar   
    19   12   11 ar   
    20   30   11 1    
    21   13   12 1    
    22   16   12 ar   
    23   14   13 1    
    24   31   13 1    
    25   15   14 2    
    26   32   14 1    
    27   16   15 1    
    28   18   17 1    
    29   33   17 1    
    30   34   17 1    
    31   19   18 ar   
    32   24   18 ar   
    33   20   19 ar   
    34   35   19 1    
    35   21   20 ar   
    36   36   20 1    
    37   22   21 1    
    38   23   21 ar   
    39   39   22 1    
    40   40   22 1    
    41   41   22 1    
    42   24   23 ar   
    43   37   23 1    
    44   38   24 1    
@<TRIPOS>SUBSTRUCTURE
     1 NEZ500      1 GROUP   
@<TRIPOS>SET

