#    Name: 2CJF_1_CAVITY_N1_6.mol2
#    Modification time : Tue Mar 11 07:18:58 2014

@<TRIPOS>MOLECULE
2CJF_1_CAVITY_N1_6.mol2
   64     0     5     0     0
SMALL
NO_CHARGES


@<TRIPOS>ATOM
      1 CZ        168.0107  113.9769   -0.0602 C.ar      3 PHE5        0.0000 
      2 CZ        167.8357  112.6874    0.6857 C.ar      3 PHE5        0.0000 
      3 O         172.5683  111.9995    3.6232 O.2       2 ALA2        0.0000 
      4 N         167.1018  117.0857   -0.9317 N.2       2 ALA2        0.0000 
      5 CZ        166.9268  115.7961   -0.1858 C.ar      3 PHE5        0.0000 
      6 CZ        168.1230  110.3145   -0.3327 C.ar      3 PHE5        0.0000 
      7 O         167.9480  109.0250    0.4132 O.2       2 ALA2        0.0000 
      8 CZ        171.6751  116.0505   -1.6485 C.ar      3 PHE5        0.0000 
      9 CZ        170.4162  116.5801   -1.0282 C.ar      3 PHE5        0.0000 
     10 CZ        169.1573  117.1097   -0.4080 C.ar      3 PHE5        0.0000 
     11 N         167.8984  117.6393    0.2123 N.2       2 ALA2        0.0000 
     12 CZ        168.9823  115.8202    0.3380 C.ar      3 PHE5        0.0000 
     13 N         167.7234  116.3498    0.9582 N.2       2 ALA2        0.0000 
     14 O         166.4646  116.8794    1.5785 O.2       2 ALA2        0.0000 
     15 CA        171.0874  107.2298    1.0626 C.3       4 GLY6        0.0000 
     16 O         169.8285  107.7594    1.6829 O.2       2 ALA2        0.0000 
     17 O         171.4373  109.8090   -0.4292 O.2       2 ALA2        0.0000 
     18 CZ        170.1785  110.3386    0.1910 C.ar      3 PHE5        0.0000 
     19 CZ        168.9196  110.8682    0.8113 C.ar      3 PHE5        0.0000 
     20 CA        167.6607  111.3978    1.4316 C.3       4 GLY6        0.0000 
     21 OG        171.2623  108.5194    0.3167 O.2       1 SER1        0.0000 
     22 OG        170.0035  109.0490    0.9369 O.2       1 SER1        0.0000 
     23 N         168.7446  109.5786    1.5572 N.2       2 ALA2        0.0000 
     24 O         167.4857  110.1082    2.1775 O.2       2 ALA2        0.0000 
     25 CZ        170.0662  114.0010    0.4636 C.ar      3 PHE5        0.0000 
     26 CZ        168.8073  114.5306    1.0839 C.ar      3 PHE5        0.0000 
     27 CZ        169.8912  112.7114    1.2095 C.ar      3 PHE5        0.0000 
     28 CA        168.6323  113.2410    1.8298 C.3       4 GLY6        0.0000 
     29 CA        172.4717  116.6042   -0.5045 C.3       4 GLY6        0.0000 
     30 CA        171.2128  117.1338    0.1158 C.3       4 GLY6        0.0000 
     31 CA        169.9539  117.6634    0.7361 C.3       4 GLY6        0.0000 
     32 CA        168.6950  118.1930    1.3564 C.3       4 GLY6        0.0000 
     33 OG        172.2967  115.3146    0.2414 O.2       1 SER1        0.0000 
     34 CZ        171.0378  115.8442    0.8617 C.ar      3 PHE5        0.0000 
     35 CA        169.7789  116.3738    1.4820 C.3       4 GLY6        0.0000 
     36 N         168.5201  116.9034    2.1023 N.2       2 ALA2        0.0000 
     37 OG        172.1217  114.0250    0.9874 O.2       1 SER1        0.0000 
     38 OG        170.8628  114.5546    1.6076 O.2       1 SER1        0.0000 
     39 CA        169.6039  115.0842    2.2279 C.3       4 GLY6        0.0000 
     40 N         168.3451  115.6138    2.8482 N.2       2 ALA2        0.0000 
     41 OG        171.9467  112.7354    1.7333 O.2       1 SER1        0.0000 
     42 DU        170.6878  113.2650    2.3535 H         5 CUB7        0.0000 
     43 CA        169.4289  113.7946    2.9738 C.3       4 GLY6        0.0000 
     44 CA        168.1701  114.3242    3.5941 C.3       4 GLY6        0.0000 
     45 O         173.0306  110.9163    1.8589 O.2       2 ALA2        0.0000 
     46 CA        171.7717  111.4459    2.4792 C.3       4 GLY6        0.0000 
     47 CA        170.5128  111.9755    3.0994 C.3       4 GLY6        0.0000 
     48 N         172.8556  109.6267    2.6048 N.2       2 ALA2        0.0000 
     49 CA        171.5967  110.1563    3.2251 C.3       4 GLY6        0.0000 
     50 CA        170.5912  117.8697   -1.7741 C.3       4 GLY6        0.0000 
     51 CA        169.3323  118.3993   -1.1539 C.3       4 GLY6        0.0000 
     52 N         171.8344  116.3978    2.0058 N.2       2 ALA2        0.0000 
     53 CA        171.6594  115.1083    2.7517 C.3       4 GLY6        0.0000 
     54 O         171.4844  113.8187    3.4976 O.2       2 ALA2        0.0000 
     55 N         170.2256  114.3483    4.1179 N.2       2 ALA2        0.0000 
     56 O         171.8840  107.7835    2.2066 O.2       2 ALA2        0.0000 
     57 O         170.6251  108.3131    2.8269 O.2       2 ALA2        0.0000 
     58 O         172.2340  110.3626    0.7148 O.2       2 ALA2        0.0000 
     59 OG        170.9751  110.8922    1.3351 O.2       1 SER1        0.0000 
     60 CA        169.7162  111.4218    1.9554 C.3       4 GLY6        0.0000 
     61 CA        168.4573  111.9514    2.5757 C.3       4 GLY6        0.0000 
     62 O         172.0590  109.0730    1.4607 O.2       2 ALA2        0.0000 
     63 CA        170.8001  109.6026    2.0810 C.3       4 GLY6        0.0000 
     64 CA        169.5412  110.1323    2.7013 C.3       4 GLY6        0.0000 
@<TRIPOS>BOND
@<TRIPOS>SUBSTRUCTURE
     1 SER1       21 GROUP   
     2 ALA2        3 GROUP   
     3 PHE5        1 GROUP   
     4 GLY6       15 GROUP   
     5 CUB7       42 GROUP   
@<TRIPOS>SET

