#    Name: 2cjf_RP4_1_INTS_M
#    Modification time : Tue Mar 25 00:51:25 2014

@<TRIPOS>MOLECULE
2cjf_RP4_1_INTS_M
   80     0     9     0     0
SMALL
NO_CHARGES


@<TRIPOS>ATOM
      1 N         168.3075  107.8415   -1.5705 N.am      2 SEC2        0.0000 
      2 N         169.2110  108.2130   -0.6210 N.am      8 SEL2        0.0000 
      3 N         167.4040  107.4700   -2.5200 N.am      5 SEP2        0.0000 
      4 N         166.8955  108.3620    2.3375 N.am      2 SEC2        0.0000 
      5 N         167.9310  108.2460    1.1890 N.am      8 SEL2        0.0000 
      6 N         165.8600  108.4780    3.4860 N.am      5 SEP2        0.0000 
      7 N         166.9765  107.5150    0.5875 N.am      2 SEC2        0.0000 
      8 N         166.0220  106.7840   -0.0140 N.am      5 SEP2        0.0000 
      9 CA        169.3655  106.8755    1.3165 C.3       3 GLC5        0.0000 
     10 CA        170.1610  108.8780    1.5620 C.3       9 GLL5        0.0000 
     11 CA        168.5700  104.8730    1.0710 C.3       6 GLP5        0.0000 
     12 N         169.8325  106.7925    2.9750 N.am      2 SEC2        0.0000 
     13 N         169.9730  108.0550    2.7400 N.am      8 SEL2        0.0000 
     14 N         169.6920  105.5300    3.2100 N.am      5 SEP2        0.0000 
     15 O         168.8365  107.9380    3.6510 O.2       1 ALC1        0.0000 
     16 O         169.9730  108.0550    2.7400 O.2       7 ALL1        0.0000 
     17 O         167.7000  107.8210    4.5620 O.2       4 ALP1        0.0000 
     18 CA        171.9325  106.9005    0.3125 C.3       3 GLC5        0.0000 
     19 CA        171.5890  108.6110    1.0850 C.3       9 GLL5        0.0000 
     20 CA        172.2760  105.1900   -0.4600 C.3       6 GLP5        0.0000 
     21 CA        174.4175  108.4100    2.9660 C.3       3 GLC5        0.0000 
     22 CA        172.6080  109.2140    2.0370 C.3       9 GLL5        0.0000 
     23 CA        176.2270  107.6060    3.8950 C.3       6 GLP5        0.0000 
     24 N         174.7260  109.8280    1.2145 N.am      2 SEC2        0.0000 
     25 N         173.9030  108.8240    1.6070 N.am      8 SEL2        0.0000 
     26 N         175.5490  110.8320    0.8220 N.am      5 SEP2        0.0000 
     27 O         174.5630  108.0340    2.3075 O.2       1 ALC1        0.0000 
     28 O         173.9030  108.8240    1.6070 O.2       7 ALL1        0.0000 
     29 O         175.2230  107.2440    3.0080 O.2       4 ALP1        0.0000 
     30 CA        173.4070  110.5935    4.0565 C.3       3 GLC5        0.0000 
     31 CA        172.4830  110.7320    2.0140 C.3       9 GLL5        0.0000 
     32 CA        174.3310  110.4550    6.0990 C.3       6 GLP5        0.0000 
     33 O         174.1315  112.1195    2.8675 O.2       1 ALC1        0.0000 
     34 O         172.9400  111.2080    3.2770 O.2       7 ALL1        0.0000 
     35 O         175.3230  113.0310    2.4580 O.2       4 ALP1        0.0000 
     36 CA        170.8585  117.6840    1.6240 C.3       3 GLC5        0.0000 
     37 CA        170.5920  115.5580    1.6440 C.3       9 GLL5        0.0000 
     38 CA        171.1250  119.8100    1.6040 C.3       6 GLP5        0.0000 
     39 CA        167.0010  113.9245    2.7290 C.3       3 GLC5        0.0000 
     40 CA        167.9360  115.3510    1.8410 C.3       9 GLL5        0.0000 
     41 CA        166.0660  112.4980    3.6170 C.3       6 GLP5        0.0000 
     42 CA        166.0225  114.6670    1.0310 C.3       3 GLC5        0.0000 
     43 CA        164.1090  113.9830    0.2210 C.3       6 GLP5        0.0000 
     44 CA        166.6460  118.9015   -2.7670 C.3       3 GLC5        0.0000 
     45 CA        166.6950  117.2950   -1.3880 C.3       9 GLL5        0.0000 
     46 CA        166.5970  120.5080   -4.1460 C.3       6 GLP5        0.0000 
     47 CA        170.4013  109.5350    3.6500 C.3       3 GLC5        0.0000 
     48 CA        170.0240  110.3700    1.8260 C.3       9 GLL5        0.0000 
     49 CA        170.7100  109.4460    5.6060 C.3       6 GLP5        0.0000 
     50 CA        171.6277  109.7095    3.8157 C.3       3 GLC5        0.0000 
     51 CA        170.0477  111.3858   -0.0418 C.3       3 GLC5        0.0000 
     52 CA        171.0770  111.2290    1.8530 C.3       9 GLL5        0.0000 
     53 CA        169.5450  111.9720   -1.9230 C.3       6 GLP5        0.0000 
     54 CA        170.5920  111.4507    3.7812 C.3       3 GLC5        0.0000 
     55 CA        170.2010  110.9270    5.7520 C.3       6 GLP5        0.0000 
     56 CA        173.4165  114.8157    2.3708 C.3       3 GLC5        0.0000 
     57 CA        172.0080  113.5760    1.6430 C.3       9 GLL5        0.0000 
     58 CA        174.8950  115.3550    3.1300 C.3       6 GLP5        0.0000 
     59 CA        170.8765  116.1312    3.3390 C.3       3 GLC5        0.0000 
     60 CA        171.8680  114.9770    1.5800 C.3       9 GLL5        0.0000 
     61 CA        170.5230  116.9950    5.0660 C.3       6 GLP5        0.0000 
     62 CA        169.6170  116.0100    3.4355 C.3       3 GLC5        0.0000 
     63 CA        169.4860  114.6990    1.7690 C.3       9 GLL5        0.0000 
     64 CA        167.8098  113.2477    2.7118 C.3       3 GLC5        0.0000 
     65 CA        165.5207  116.8088    0.6278 C.3       3 GLC5        0.0000 
     66 CA        167.6070  116.5920    0.7340 C.3       9 GLL5        0.0000 
     67 CA        163.7450  117.1800    1.1250 C.3       6 GLP5        0.0000 
     68 CA        166.5417  115.1975   -1.9692 C.3       3 GLC5        0.0000 
     69 CA        166.9860  116.2830   -0.4730 C.3       9 GLL5        0.0000 
     70 CA        166.2430  113.6060   -3.0080 C.3       6 GLP5        0.0000 
     71 CA        165.3062  117.5653   -0.0517 C.3       3 GLC5        0.0000 
     72 CA        168.0613  119.8710   -1.6255 C.3       3 GLC5        0.0000 
     73 CA        167.0400  118.6060   -1.0690 C.3       9 GLL5        0.0000 
     74 CA        168.7780  120.9800   -2.7840 C.3       6 GLP5        0.0000 
     75 CA        167.1592  119.3793    1.8848 C.3       3 GLC5        0.0000 
     76 CA        167.6490  118.9180    0.1350 C.3       9 GLL5        0.0000 
     77 CA        166.5350  120.3450    3.1800 C.3       6 GLP5        0.0000 
     78 CA        165.7643  117.7968    0.8573 C.3       3 GLC5        0.0000 
     79 CA        167.9180  117.9090    1.0440 C.3       9 GLL5        0.0000 
     80 CA        169.4543  119.1118    1.0968 C.3       3 GLC5        0.0000 
@<TRIPOS>BOND
@<TRIPOS>SUBSTRUCTURE
     1 ALC1       15 GROUP        1 X    ALC  0     ROOT ALC X 1
     2 SEC2        1 GROUP        1 X    SEC  0     **** SEC X 2
     3 GLC5        9 GROUP        1 X    GLC  0     **** GLC X 6
     4 ALP1       17 GROUP        1 Y    ALP  0     ROOT ALP Y 8
     5 SEP2        3 GROUP        1 Y    SEP  0     **** SEP Y 9
     6 GLP5       11 GROUP        1 Y    GLP  0     **** GLP Y 13
     7 ALL1       16 GROUP        1 Z    ALL  0     ROOT ALL Z 15
     8 SEL2        2 GROUP        1 Z    SEL  0     **** SEL Z 16
     9 GLL5       10 GROUP        1 Z    GLL  0     **** GLL Z 20
@<TRIPOS>SET

