#    Name: 2cjf_RP4_1_ligand
#    Modification time : Tue Mar 25 00:51:25 2014

@<TRIPOS>MOLECULE
2cjf_RP4_1_ligand
   42    44     1     0     0
SMALL
NO_CHARGES


@<TRIPOS>ATOM
      1 O3        169.2110  108.2130   -0.6210 O.co2     1 RP41151     0.0000 
      2 C2        169.0850  108.4250    0.5960 C.2       1 RP41151     0.0000 
      3 O1        167.9310  108.2460    1.1890 O.co2     1 RP41151     0.0000 
      4 C4        170.1610  108.8780    1.5620 C.3       1 RP41151     0.0000 
      5 O5        169.9730  108.0550    2.7400 O.3       1 RP41151     0.0000 
      6 C12       171.5890  108.6110    1.0850 C.3       1 RP41151     0.0000 
      7 C10       172.6080  109.2140    2.0370 C.3       1 RP41151     0.0000 
      8 O11       173.9030  108.8240    1.6070 O.3       1 RP41151     0.0000 
      9 C8        172.4830  110.7320    2.0140 C.3       1 RP41151     0.0000 
     10 O9        172.9400  111.2080    3.2770 O.3       1 RP41151     0.0000 
     11 C7        171.0770  111.2290    1.8530 C.2       1 RP41151     0.0000 
     12 C6        170.0240  110.3700    1.8260 C.2       1 RP41151     0.0000 
     13 C13       170.8890  112.7200    1.7680 C.ar      1 RP41151     0.0000 
     14 C25       172.0080  113.5760    1.6430 C.ar      1 RP41151     0.0000 
     15 C24       171.8680  114.9770    1.5800 C.ar      1 RP41151     0.0000 
     16 C23       170.5920  115.5580    1.6440 C.ar      1 RP41151     0.0000 
     17 C15       169.4860  114.6990    1.7690 C.ar      1 RP41151     0.0000 
     18 C14       169.6210  113.2960    1.8440 C.ar      1 RP41151     0.0000 
     19 S16       167.9360  115.3510    1.8410 S.3       1 RP41151     0.0000 
     20 C17       167.6070  116.5920    0.7340 C.ar      1 RP41151     0.0000 
     21 C22       166.9860  116.2830   -0.4730 C.ar      1 RP41151     0.0000 
     22 C21       166.6950  117.2950   -1.3880 C.ar      1 RP41151     0.0000 
     23 C20       167.0400  118.6060   -1.0690 C.ar      1 RP41151     0.0000 
     24 C19       167.6490  118.9180    0.1350 C.ar      1 RP41151     0.0000 
     25 C18       167.9180  117.9090    1.0440 C.ar      1 RP41151     0.0000 
     26 H         171.7196  109.0433    0.0917 H         1 RP41151     0.0000 
     27 H         171.7469  107.5334    1.0188 H         1 RP41151     0.0000 
     28 H         172.3936  108.8656    3.0268 H         1 RP41151     0.0000 
     29 H         173.0974  111.1226    1.2268 H         1 RP41151     0.0000 
     30 H         169.0456  110.6855    1.9867 H         1 RP41151     0.0000 
     31 H         172.9538  113.1605    1.5967 H         1 RP41151     0.0000 
     32 H         172.6978  115.5680    1.4877 H         1 RP41151     0.0000 
     33 H         170.4713  116.5579    1.6018 H         1 RP41151     0.0000 
     34 H         168.7899  112.7121    1.9534 H         1 RP41151     0.0000 
     35 H         166.7413  115.3091   -0.6913 H         1 RP41151     0.0000 
     36 H         166.2388  117.0781   -2.2723 H         1 RP41151     0.0000 
     37 H         166.8350  119.3625   -1.7500 H         1 RP41151     0.0000 
     38 H         167.8989  119.8899    0.3516 H         1 RP41151     0.0000 
     39 H         168.3495  118.1341    1.9521 H         1 RP41151     0.0000 
     40 H         169.0619  108.2912    3.0779 H         1 RP41151     0.0000 
     41 H         174.0403  107.9121    1.9936 H         1 RP41151     0.0000 
     42 H         173.7052  111.8152    3.0631 H         1 RP41151     0.0000 
@<TRIPOS>BOND
     1    2    1 ar   
     2    3    2 ar   
     3    4    2 1    
     4    5    4 1    
     5    6    4 1    
     6   12    4 1    
     7   40    5 1    
     8    7    6 1    
     9   26    6 1    
    10   27    6 1    
    11    8    7 1    
    12    9    7 1    
    13   28    7 1    
    14   41    8 1    
    15   10    9 1    
    16   11    9 1    
    17   29    9 1    
    18   42   10 1    
    19   12   11 2    
    20   13   11 1    
    21   30   12 1    
    22   14   13 ar   
    23   18   13 ar   
    24   15   14 ar   
    25   31   14 1    
    26   16   15 ar   
    27   32   15 1    
    28   17   16 ar   
    29   33   16 1    
    30   18   17 ar   
    31   19   17 1    
    32   34   18 1    
    33   20   19 1    
    34   21   20 ar   
    35   25   20 ar   
    36   22   21 ar   
    37   35   21 1    
    38   23   22 ar   
    39   36   22 1    
    40   24   23 ar   
    41   37   23 1    
    42   25   24 ar   
    43   38   24 1    
    44   39   25 1    
@<TRIPOS>SUBSTRUCTURE
     1 RP41151     1 GROUP   
@<TRIPOS>SET

