#    Name: 3LE9_1_CAVITY_N1_6.mol2
#    Modification time : Tue Mar 11 11:21:12 2014

@<TRIPOS>MOLECULE
3LE9_1_CAVITY_N1_6.mol2
   80     0     6     0     0
SMALL
NO_CHARGES


@<TRIPOS>ATOM
      1 O           7.2862    7.9620   30.9242 O.2       2 ALA2        0.0000 
      2 CA          6.5846    9.1595   29.3199 C.3       5 GLY6        0.0000 
      3 CA          6.9770    4.1527   25.4111 C.3       5 GLY6        0.0000 
      4 N           7.5461    5.2794   24.6008 N.2       2 ALA2        0.0000 
      5 N           5.7063    4.2236   24.6172 N.2       2 ALA2        0.0000 
      6 N           6.2754    5.3502   23.8068 N.2       2 ALA2        0.0000 
      7 N           6.8445    6.4769   22.9964 N.2       2 ALA2        0.0000 
      8 N           7.4137    7.6035   22.1860 N.2       2 ALA2        0.0000 
      9 N           7.9828    8.7302   21.3757 N.2       2 ALA2        0.0000 
     10 CA          5.0047    5.4211   23.0129 C.3       5 GLY6        0.0000 
     11 OG          5.5738    6.5477   22.2025 O.2       1 SER1        0.0000 
     12 OG          6.1430    7.6744   21.3921 O.2       1 SER1        0.0000 
     13 DU          6.7121    8.8010   20.5817 H         6 CUB7        0.0000 
     14 CA          6.9881    6.2671   25.5821 C.3       5 GLY6        0.0000 
     15 N           7.5572    7.3938   24.7717 N.2       2 ALA2        0.0000 
     16 N           8.1263    8.5204   23.9613 N.2       2 ALA2        0.0000 
     17 N           8.6955    9.6471   23.1509 N.2       2 ALA2        0.0000 
     18 N           5.1482    5.2113   25.5985 N.2       2 ALA2        0.0000 
     19 N           5.7174    6.3380   24.7881 N.2       2 ALA2        0.0000 
     20 N           6.2865    7.4646   23.9777 N.2       2 ALA2        0.0000 
     21 N           6.8557    8.5913   23.1674 N.2       2 ALA2        0.0000 
     22 OD1         7.4248    9.7179   22.3570 O.3       3 ASP3        0.0000 
     23 N           7.9939   10.8446   21.5466 N.2       2 ALA2        0.0000 
     24 CA          4.4467    6.4088   23.9942 C.3       5 GLY6        0.0000 
     25 OG          5.0158    7.5355   23.1838 O.2       1 SER1        0.0000 
     26 OG          5.5850    8.6621   22.3734 O.2       1 SER1        0.0000 
     27 DU          6.1541    9.7888   21.5630 H         6 CUB7        0.0000 
     28 DU          6.7232   10.9154   20.7526 H         6 CUB7        0.0000 
     29 OG          4.3143    8.7330   21.5795 O.2       1 SER1        0.0000 
     30 DU          4.8834    9.8596   20.7691 H         6 CUB7        0.0000 
     31 OG          3.6127    9.9305   19.9752 O.2       1 SER1        0.0000 
     32 N           6.6948    2.6066   31.3928 N.2       2 ALA2        0.0000 
     33 CA          7.2640    3.7332   30.5824 C.3       5 GLY6        0.0000 
     34 CA          8.9714    7.1132   28.1512 C.3       5 GLY6        0.0000 
     35 CA          5.4241    2.6774   30.5988 C.3       5 GLY6        0.0000 
     36 CA          5.9933    3.8040   29.7885 C.3       5 GLY6        0.0000 
     37 CA          7.7007    7.1840   27.3573 C.3       5 GLY6        0.0000 
     38 N           8.2699    8.3107   26.5469 N.2       2 ALA2        0.0000 
     39 CA          6.4300    7.2549   26.5634 C.3       5 GLY6        0.0000 
     40 N           6.9992    8.3815   25.7530 N.2       2 ALA2        0.0000 
     41 N           7.5683    9.5082   24.9426 N.2       2 ALA2        0.0000 
     42 O           5.1593    7.3257   25.7694 O.2       2 ALA2        0.0000 
     43 DU          5.7285    8.4523   24.9590 H         6 CUB7        0.0000 
     44 OD1         6.2976    9.5790   24.1487 O.3       3 ASP3        0.0000 
     45 OD1         6.8668   10.7057   23.3383 O.3       3 ASP3        0.0000 
     46 N           4.4578    8.5232   24.1651 N.2       2 ALA2        0.0000 
     47 N           5.0269    9.6498   23.3547 N.2       2 ALA2        0.0000 
     48 N           5.5961   10.7765   22.5443 N.2       2 ALA2        0.0000 
     49 CA          6.1652   11.9031   21.7339 C.3       5 GLY6        0.0000 
     50 N           3.7562    9.7207   22.5608 N.2       2 ALA2        0.0000 
     51 CA          4.3254   10.8473   21.7504 C.3       5 GLY6        0.0000 
     52 CA          4.8945   11.9740   20.9400 C.3       5 GLY6        0.0000 
     53 O           9.1149    6.9034   30.7368 O.2       2 ALA2        0.0000 
     54 CA          6.1368    3.5943   32.3741 C.3       5 GLY6        0.0000 
     55 N           6.7059    4.7209   31.5637 N.2       2 ALA2        0.0000 
     56 CA          7.2751    5.8476   30.7533 C.3       5 GLY6        0.0000 
     57 CA          7.8442    6.9742   29.9429 C.3       5 GLY6        0.0000 
     58 CA          8.4134    8.1009   29.1325 C.3       5 GLY6        0.0000 
     59 CA          4.8661    3.6651   31.5801 C.3       5 GLY6        0.0000 
     60 CA          6.0044    5.9184   29.9594 C.3       5 GLY6        0.0000 
     61 CA          6.5735    7.0451   29.1490 C.3       5 GLY6        0.0000 
     62 DU          7.1427    8.1717   28.3386 H         6 CUB7        0.0000 
     63 CA          7.7118    9.2984   27.5282 C.3       5 GLY6        0.0000 
     64 CA          5.3028    7.1159   28.3551 C.3       5 GLY6        0.0000 
     65 CA          5.8720    8.2426   27.5447 C.3       5 GLY6        0.0000 
     66 NZ          6.4411    9.3692   26.7343 N.2       4 LYS4        0.0000 
     67 CA          7.0103   10.4959   25.9239 C.3       5 GLY6        0.0000 
     68 O           4.6013    8.3134   26.7507 O.2       2 ALA2        0.0000 
     69 NZ          5.1704    9.4401   25.9403 N.2       4 LYS4        0.0000 
     70 NZ          5.7396   10.5667   25.1300 N.2       4 LYS4        0.0000 
     71 OD1         6.3087   11.6934   24.3196 O.3       3 ASP3        0.0000 
     72 CA          8.6622    3.3039   22.6381 C.3       5 GLY6        0.0000 
     73 O           7.5350    3.1650   24.4298 O.2       2 ALA2        0.0000 
     74 N           8.1041    4.2916   23.6194 N.2       2 ALA2        0.0000 
     75 N           6.2643    3.2358   23.6359 N.2       2 ALA2        0.0000 
     76 DU          6.8334    4.3625   22.8255 H         6 CUB7        0.0000 
     77 N           7.4026    5.4891   22.0151 N.2       2 ALA2        0.0000 
     78 N           7.9717    6.6158   21.2047 N.2       2 ALA2        0.0000 
     79 N           4.9936    3.3067   22.8420 N.2       2 ALA2        0.0000 
     80 N           5.5627    4.4333   22.0316 N.2       2 ALA2        0.0000 
@<TRIPOS>BOND
@<TRIPOS>SUBSTRUCTURE
     1 SER1       11 GROUP   
     2 ALA2        1 GROUP   
     3 ASP3       22 GROUP   
     4 LYS4       66 GROUP   
     5 GLY6        2 GROUP   
     6 CUB7       13 GROUP   
@<TRIPOS>SET

