#    Name: 3le9_727_1_INTS_M
#    Modification time : Mon Mar 24 21:34:20 2014

@<TRIPOS>MOLECULE
3le9_727_1_INTS_M
   63     0    12     0     0
SMALL
NO_CHARGES


@<TRIPOS>ATOM
      1 O           8.8020    7.5735   24.0490 O.2       1 ALC1        0.0000 
      2 O           7.5380    8.2640   24.3530 O.2       9 ALL1        0.0000 
      3 O          10.0660    6.8830   23.7450 O.2       5 ALP1        0.0000 
      4 O           4.0960   11.1355   24.1905 O.2       1 ALC1        0.0000 
      5 O           5.3600   10.9800   23.6120 O.2       9 ALL1        0.0000 
      6 O           2.8320   11.2910   24.7690 O.2       5 ALP1        0.0000 
      7 Zn          7.5755   12.4685   24.6735 Zn        3 ZIC7        0.0000 
      8 Zn          6.3080   12.5110   25.0160 Zn       11 ZIL7        0.0000 
      9 Zn          8.8430   12.4260   24.3310 Zn        7 ZIP7        0.0000 
     10 N           5.6165   13.3420   25.9055 N.am      2 SEC2        0.0000 
     11 N           6.3080   12.5110   25.0160 N.am     10 SEL2        0.0000 
     12 N           4.9250   14.1730   26.7950 N.am      6 SEP2        0.0000 
     13 CA          3.4085    8.4045   22.9375 C.3       4 GLC5        0.0000 
     14 CA          5.5930    8.5260   22.8370 C.3      12 GLL5        0.0000 
     15 CA          1.2240    8.2830   23.0380 C.3       8 GLP5        0.0000 
     16 CA         10.4885    8.1210   24.9980 C.3       4 GLC5        0.0000 
     17 CA          8.8580    8.1370   26.4230 C.3      12 GLL5        0.0000 
     18 CA         12.1190    8.1050   23.5730 C.3       8 GLP5        0.0000 
     19 CA          6.4395    8.9620   30.2095 C.3       4 GLC5        0.0000 
     20 CA          7.4740    8.2010   28.4100 C.3      12 GLL5        0.0000 
     21 CA          5.4050    9.7230   32.0090 C.3       8 GLP5        0.0000 
     22 CA          7.6895    6.1560   28.2605 C.3       4 GLC5        0.0000 
     23 CA          7.9050    4.1110   28.1110 C.3       8 GLP5        0.0000 
     24 CA          5.2135    6.5830   28.0800 C.3       4 GLC5        0.0000 
     25 CA          6.2870    8.2950   27.7060 C.3      12 GLL5        0.0000 
     26 CA          4.1400    4.8710   28.4540 C.3       8 GLP5        0.0000 
     27 CA          4.7975    9.0515   29.1380 C.3       4 GLC5        0.0000 
     28 CA          3.3080    9.8080   30.5700 C.3       8 GLP5        0.0000 
     29 CA          7.4050   10.1465   27.4980 C.3       4 GLC5        0.0000 
     30 CA          8.5230   11.9980   27.2900 C.3       8 GLP5        0.0000 
     31 N           3.1175    7.6730   25.6920 N.am      2 SEC2        0.0000 
     32 N           4.2020    8.4240   25.3870 N.am     10 SEL2        0.0000 
     33 N           2.0330    6.9220   25.9970 N.am      6 SEP2        0.0000 
     34 N           3.0320    9.0145   26.0510 N.am      2 SEC2        0.0000 
     35 N           1.8620    9.6050   26.7150 N.am      6 SEP2        0.0000 
     36 CA          8.5670    7.7675   32.4385 C.3       4 GLC5        0.0000 
     37 CA          8.5250    8.0720   30.5330 C.3      12 GLL5        0.0000 
     38 CA          8.6090    7.4630   34.3440 C.3       8 GLP5        0.0000 
     39 CA          6.9650    8.8975   31.2710 C.3       4 GLC5        0.0000 
     40 CA          8.6720    9.8885   30.1905 C.3       4 GLC5        0.0000 
     41 CA          8.8190   11.7050   29.8480 C.3       8 GLP5        0.0000 
     42 CA         10.2175    7.2110   31.2775 C.3       4 GLC5        0.0000 
     43 CA         11.9100    6.3500   32.0220 C.3       8 GLP5        0.0000 
     44 CA          4.2570   12.4567   21.1747 C.3       4 GLC5        0.0000 
     45 CA          5.0890   10.5010   21.2210 C.3      12 GLL5        0.0000 
     46 CA          3.1160   13.9200   21.5650 C.3       8 GLP5        0.0000 
     47 CA          8.2335   10.1017   26.7611 C.3       4 GLC5        0.0000 
     48 CA          9.0925    6.2803   27.5300 C.3       4 GLC5        0.0000 
     49 CA          9.3780    4.4330   27.9630 C.3       8 GLP5        0.0000 
     50 CA          8.6700    9.9138   28.2447 C.3       4 GLC5        0.0000 
     51 CA          8.7560    8.1180   27.7710 C.3      12 GLL5        0.0000 
     52 CA          9.2250   11.6680   28.3990 C.3       8 GLP5        0.0000 
     53 CA          3.4480   12.5655   17.6433 C.3       4 GLC5        0.0000 
     54 CA          5.0480   11.8410   19.1320 C.3      12 GLL5        0.0000 
     55 CA          2.4700   13.5850   16.3260 C.3       8 GLP5        0.0000 
     56 CA          3.7710   12.7330   20.2628 C.3       4 GLC5        0.0000 
     57 CA          3.8040   11.2510   18.7890 C.3      12 GLL5        0.0000 
     58 CA          1.5048   10.4105   20.3933 C.3       4 GLC5        0.0000 
     59 CA          3.1940   10.3030   19.6290 C.3      12 GLL5        0.0000 
     60 CA         -0.5000   10.7020   20.5510 C.3       8 GLP5        0.0000 
     61 CA          2.3668    9.2010   21.6367 C.3       4 GLC5        0.0000 
     62 CA          3.3128   12.0195   20.9002 C.3       4 GLC5        0.0000 
     63 CA          3.8250    9.9350   20.8420 C.3      12 GLL5        0.0000 
@<TRIPOS>BOND
@<TRIPOS>SUBSTRUCTURE
     1 ALC1        1 GROUP        1 X    ALC  0     ROOT ALC X 1
     2 SEC2       10 GROUP        1 X    SEC  0     **** SEC X 2
     3 ZIC7        7 GROUP        1 X    ZIC  0     **** ZIC X 5
     4 GLC5       13 GROUP        1 X    GLC  0     **** GLC X 6
     5 ALP1        3 GROUP        1 Y    ALP  0     ROOT ALP Y 8
     6 SEP2       12 GROUP        1 Y    SEP  0     **** SEP Y 9
     7 ZIP7        9 GROUP        1 Y    ZIP  0     **** ZIP Y 12
     8 GLP5       15 GROUP        1 Y    GLP  0     **** GLP Y 13
     9 ALL1        2 GROUP        1 Z    ALL  0     ROOT ALL Z 15
    10 SEL2       11 GROUP        1 Z    SEL  0     **** SEL Z 16
    11 ZIL7        8 GROUP        1 Z    ZIL  0     **** ZIL Z 19
    12 GLL5       14 GROUP        1 Z    GLL  0     **** GLL Z 20
@<TRIPOS>SET

