#    Name: 3le9_727_1_ligand
#    Modification time : Mon Mar 24 21:34:20 2014

@<TRIPOS>MOLECULE
3le9_727_1_ligand
   41    44     1     0     0
SMALL
NO_CHARGES


@<TRIPOS>ATOM
      1 N1          6.1580    8.3440   24.1590 N.am      1 727485      0.0000 
      2 N2          7.5380    8.2640   24.3530 N.pl3     1 727485      0.0000 
      3 C3          5.4240    8.3700   25.2980 C.2       1 727485      0.0000 
      4 N4          7.5980   11.1540   23.5600 N.am      1 727485      0.0000 
      5 C5          7.3160   10.2890   22.5310 C.2       1 727485      0.0000 
      6 C6          5.7770   10.0540   22.5240 C.3       1 727485      0.0000 
      7 N7          5.3600   10.9800   23.6120 N.am      1 727485      0.0000 
      8 C8          6.4090   11.6210   24.1810 C.2       1 727485      0.0000 
      9 O9          6.3080   12.5110   25.0160 O.2       1 727485      0.0000 
     10 O10         8.1310    9.6350   21.7940 O.2       1 727485      0.0000 
     11 C11         5.0890   10.5010   21.2210 C.ar      1 727485      0.0000 
     12 C12         5.5930    8.5260   22.8370 C.3       1 727485      0.0000 
     13 C13         6.4110    8.3090   26.3580 C.ar      1 727485      0.0000 
     14 C14         7.6490    8.2390   25.7250 C.ar      1 727485      0.0000 
     15 C15         8.8580    8.1370   26.4230 C.ar      1 727485      0.0000 
     16 C16         8.7560    8.1180   27.7710 C.ar      1 727485      0.0000 
     17 C17         7.4740    8.2010   28.4100 C.ar      1 727485      0.0000 
     18 C18         6.2870    8.2950   27.7060 C.ar      1 727485      0.0000 
     19 O19         4.2020    8.4240   25.3870 O.2       1 727485      0.0000 
     20 O20         7.2970    8.1940   29.7260 O.3       1 727485      0.0000 
     21 C21         8.5250    8.0720   30.5330 C.3       1 727485      0.0000 
     22 C22         5.7070   11.4860   20.3480 C.ar      1 727485      0.0000 
     23 C23         5.0480   11.8410   19.1320 C.ar      1 727485      0.0000 
     24 C24         3.8040   11.2510   18.7890 C.ar      1 727485      0.0000 
     25 C25         3.1940   10.3030   19.6290 C.ar      1 727485      0.0000 
     26 C26         3.8250    9.9350   20.8420 C.ar      1 727485      0.0000 
     27 H           8.1953    8.2358   23.7179 H         1 727485      0.0000 
     28 H           4.4223   11.0659   23.8367 H         1 727485      0.0000 
     29 H           4.5437    8.3174   22.8100 H         1 727485      0.0000 
     30 H           6.1258    7.9789   22.0873 H         1 727485      0.0000 
     31 H           9.7320    8.0828   25.9326 H         1 727485      0.0000 
     32 H           9.5877    8.0440   28.3791 H         1 727485      0.0000 
     33 H           5.4013    8.3485   28.1764 H         1 727485      0.0000 
     34 H           6.5827   11.9028   20.6064 H         1 727485      0.0000 
     35 H           5.4781   12.5245   18.5077 H         1 727485      0.0000 
     36 H           3.3454   11.5252   17.9099 H         1 727485      0.0000 
     37 H           2.3037    9.8809   19.3707 H         1 727485      0.0000 
     38 H           3.3796    9.2549   21.4649 H         1 727485      0.0000 
     39 H           9.0154    7.2228   30.3370 H         1 727485      0.0000 
     40 H           9.1603    8.8243   30.3585 H         1 727485      0.0000 
     41 H           8.3272    8.0767   31.5132 H         1 727485      0.0000 
@<TRIPOS>BOND
     1    2    1 1    
     2    3    1 am   
     3   12    1 1    
     4   14    2 1    
     5   27    2 1    
     6   13    3 1    
     7   19    3 2    
     8    5    4 am   
     9    8    4 am   
    10    6    5 1    
    11   10    5 2    
    12    7    6 1    
    13   11    6 1    
    14   12    6 1    
    15    8    7 am   
    16   28    7 1    
    17    9    8 2    
    18   22   11 ar   
    19   26   11 ar   
    20   29   12 1    
    21   30   12 1    
    22   14   13 ar   
    23   18   13 ar   
    24   15   14 ar   
    25   16   15 ar   
    26   31   15 1    
    27   17   16 ar   
    28   32   16 1    
    29   18   17 ar   
    30   20   17 1    
    31   33   18 1    
    32   21   20 1    
    33   39   21 1    
    34   40   21 1    
    35   41   21 1    
    36   23   22 ar   
    37   34   22 1    
    38   24   23 ar   
    39   35   23 1    
    40   25   24 ar   
    41   36   24 1    
    42   26   25 ar   
    43   37   25 1    
    44   38   26 1    
@<TRIPOS>SUBSTRUCTURE
     1 727485      1 GROUP   
@<TRIPOS>SET

