#    Name: 3keg_MRE_1_INTS_M
#    Modification time : Mon Mar 24 19:21:02 2014

@<TRIPOS>MOLECULE
3keg_MRE_1_INTS_M
   16     0     3     0     0
SMALL
NO_CHARGES


@<TRIPOS>ATOM
      1 CA        -34.0125  -13.9070   -6.2100 C.3       1 GLC5        0.0000 
      2 CA        -35.1460  -15.4790   -5.6380 C.3       3 GLL5        0.0000 
      3 CA        -32.8790  -12.3350   -6.7820 C.3       2 GLP5        0.0000 
      4 CA        -40.3895  -10.8075   -0.3235 C.3       1 GLC5        0.0000 
      5 CA        -42.2460  -11.5350   -0.2540 C.3       3 GLL5        0.0000 
      6 CA        -38.5330  -10.0800   -0.3930 C.3       2 GLP5        0.0000 
      7 CA        -42.0370   -9.9990    0.7965 C.3       1 GLC5        0.0000 
      8 CA        -41.8280   -8.4630    1.8470 C.3       2 GLP5        0.0000 
      9 CA        -41.6315  -11.8770    1.5885 C.3       1 GLC5        0.0000 
     10 CA        -41.0170  -12.2190    3.4310 C.3       2 GLP5        0.0000 
     11 CA        -34.0713  -18.8892   -2.6482 C.3       1 GLC5        0.0000 
     12 CA        -34.6790  -16.9770   -3.0720 C.3       3 GLL5        0.0000 
     13 CA        -33.8470  -20.6680   -1.6650 C.3       2 GLP5        0.0000 
     14 CA        -39.4693  -10.8483   -4.7190 C.3       1 GLC5        0.0000 
     15 CA        -39.3380  -12.6880   -4.0020 C.3       3 GLL5        0.0000 
     16 CA        -38.9980   -9.3340   -5.6590 C.3       2 GLP5        0.0000 
@<TRIPOS>BOND
@<TRIPOS>SUBSTRUCTURE
     1 GLC5        1 GROUP        1 X    GLC  0     ROOT GLC X 6
     2 GLP5        3 GROUP        1 Y    GLP  0     ROOT GLP Y 13
     3 GLL5        2 GROUP        1 Z    GLL  0     ROOT GLL Z 20
@<TRIPOS>SET

