#    Name: 3keg_MRE_1_ligand
#    Modification time : Mon Mar 24 19:21:02 2014

@<TRIPOS>MOLECULE
3keg_MRE_1_ligand
   34    35     1     0     0
SMALL
NO_CHARGES


@<TRIPOS>ATOM
      1 C1        -35.9300  -15.2170   -4.4630 C.ar      1 MRE214      0.0000 
      2 C2        -35.1460  -15.4790   -5.6380 C.ar      1 MRE214      0.0000 
      3 C3        -34.1230  -16.5040   -5.5060 C.ar      1 MRE214      0.0000 
      4 C4        -33.9120  -17.2440   -4.1910 C.ar      1 MRE214      0.0000 
      5 C5        -34.6790  -16.9770   -3.0720 C.ar      1 MRE214      0.0000 
      6 C6        -35.7370  -15.9260   -3.1920 C.ar      1 MRE214      0.0000 
      7 C1'       -38.6460  -13.5930   -3.0820 C.ar      1 MRE214      0.0000 
      8 C2'       -39.1150  -13.8290   -1.8140 C.ar      1 MRE214      0.0000 
      9 C3'       -40.3140  -13.1830   -1.3560 C.ar      1 MRE214      0.0000 
     10 C4'       -41.0230  -12.2890   -2.2460 C.ar      1 MRE214      0.0000 
     11 C5'       -40.5430  -12.0370   -3.5560 C.ar      1 MRE214      0.0000 
     12 C6'       -39.3380  -12.6880   -4.0020 C.ar      1 MRE214      0.0000 
     13 C         -35.4570  -14.6850   -6.8800 C.2       1 MRE214      0.0000 
     14 CHX       -42.2460  -11.5350   -0.2540 C.3       1 MRE214      0.0000 
     15 CHZ       -43.2500  -11.1460   -2.5530 C.3       1 MRE214      0.0000 
     16 N1        -36.9220  -14.2050   -4.4760 N.2       1 MRE214      0.0000 
     17 N1'       -37.4360  -14.2760   -3.3800 N.2       1 MRE214      0.0000 
     18 OXT       -34.8250  -14.8070   -7.9600 O.co2     1 MRE214      0.0000 
     19 O         -36.3590  -13.8360   -6.8190 O.co2     1 MRE214      0.0000 
     20 N10       -42.2210  -11.6280   -1.6990 N.pl3     1 MRE214      0.0000 
     21 H         -33.5295  -16.7500   -6.2789 H         1 MRE214      0.0000 
     22 H         -33.1682  -17.9464   -4.1965 H         1 MRE214      0.0000 
     23 H         -34.5727  -17.4374   -2.1954 H         1 MRE214      0.0000 
     24 H         -36.3066  -15.7153   -2.3992 H         1 MRE214      0.0000 
     25 H         -38.6297  -14.4625   -1.1706 H         1 MRE214      0.0000 
     26 H         -40.6612  -13.3478   -0.4256 H         1 MRE214      0.0000 
     27 H         -41.0334  -11.4094   -4.1776 H         1 MRE214      0.0000 
     28 H         -38.9731  -12.5324   -4.9180 H         1 MRE214      0.0000 
     29 H         -42.2153  -12.4369    0.1768 H         1 MRE214      0.0000 
     30 H         -41.4677  -11.0153    0.0982 H         1 MRE214      0.0000 
     31 H         -43.0743  -11.0812    0.0747 H         1 MRE214      0.0000 
     32 H         -42.9090  -10.4582   -3.1939 H         1 MRE214      0.0000 
     33 H         -43.6541  -11.8802   -3.0986 H         1 MRE214      0.0000 
     34 H         -43.9934  -10.7218   -2.0360 H         1 MRE214      0.0000 
@<TRIPOS>BOND
     1    2    1 ar   
     2    6    1 ar   
     3   16    1 1    
     4    3    2 ar   
     5   13    2 1    
     6    4    3 ar   
     7   21    3 1    
     8    5    4 ar   
     9   22    4 1    
    10    6    5 ar   
    11   23    5 1    
    12   24    6 1    
    13    8    7 ar   
    14   12    7 ar   
    15   17    7 1    
    16    9    8 ar   
    17   25    8 1    
    18   10    9 ar   
    19   26    9 1    
    20   11   10 ar   
    21   20   10 1    
    22   12   11 ar   
    23   27   11 1    
    24   28   12 1    
    25   18   13 ar   
    26   19   13 ar   
    27   20   14 1    
    28   29   14 1    
    29   30   14 1    
    30   31   14 1    
    31   20   15 1    
    32   32   15 1    
    33   33   15 1    
    34   34   15 1    
    35   17   16 2    
@<TRIPOS>SUBSTRUCTURE
     1 MRE214      1 GROUP   
@<TRIPOS>SET

