#    Name: 4CG9_1_CAVITY_N1_6.mol2
#    Modification time : Mon Mar 10 13:13:23 2014

@<TRIPOS>MOLECULE
4CG9_1_CAVITY_N1_6.mol2
  100     0     6     0     0
SMALL
NO_CHARGES


@<TRIPOS>ATOM
      1 CZ        -18.3516    4.3435    4.5171 C.ar      4 PHE5        0.0000 
      2 CZ        -17.9854    6.1479    7.6967 C.ar      4 PHE5        0.0000 
      3 CZ        -16.6970    5.9447    6.9560 C.ar      4 PHE5        0.0000 
      4 CZ        -15.4085    5.7414    6.2153 C.ar      4 PHE5        0.0000 
      5 CZ        -18.7393    6.0899    6.4012 C.ar      4 PHE5        0.0000 
      6 CZ        -17.4509    5.8866    5.6605 C.ar      4 PHE5        0.0000 
      7 CZ        -16.1624    5.6834    4.9199 C.ar      4 PHE5        0.0000 
      8 CZ        -14.8740    5.4801    4.1792 C.ar      4 PHE5        0.0000 
      9 OG        -19.4932    6.0318    5.1057 O.2       1 SER1        0.0000 
     10 OG        -18.2047    5.8286    4.3650 O.2       1 SER1        0.0000 
     11 CZ        -16.9163    5.6253    3.6244 C.ar      4 PHE5        0.0000 
     12 CZ        -15.6278    5.4221    2.8837 C.ar      4 PHE5        0.0000 
     13 N         -14.3394    5.2188    2.1430 N.2       2 ALA2        0.0000 
     14 OG        -18.9586    5.7705    3.0695 O.2       1 SER1        0.0000 
     15 CZ        -17.0847    7.6910    8.8401 C.ar      4 PHE5        0.0000 
     16 CZ        -15.7962    7.4878    8.0995 C.ar      4 PHE5        0.0000 
     17 CZ        -17.8386    7.6330    7.5447 C.ar      4 PHE5        0.0000 
     18 CZ        -16.5501    7.4297    6.8040 C.ar      4 PHE5        0.0000 
     19 CZ        -15.2617    7.2265    6.0633 C.ar      4 PHE5        0.0000 
     20 CZ        -18.5924    7.5749    6.2492 C.ar      4 PHE5        0.0000 
     21 DU        -17.3040    7.3717    5.5085 H         6 CUB7        0.0000 
     22 CZ        -16.0155    7.1684    4.7678 C.ar      4 PHE5        0.0000 
     23 CA        -14.7271    6.9652    4.0272 C.3       5 GLY6        0.0000 
     24 CZ        -19.3463    7.5168    4.9537 C.ar      4 PHE5        0.0000 
     25 DU        -18.0579    7.3136    4.2130 H         6 CUB7        0.0000 
     26 DU        -16.7694    7.1103    3.4723 H         6 CUB7        0.0000 
     27 DU        -15.4810    6.9071    2.7317 H         6 CUB7        0.0000 
     28 CA        -14.1925    6.7038    1.9910 C.3       5 GLY6        0.0000 
     29 CZ        -21.3886    7.6620    4.3989 C.ar      4 PHE5        0.0000 
     30 OG        -20.1002    7.4588    3.6582 O.2       1 SER1        0.0000 
     31 DU        -18.8117    7.2555    2.9175 H         6 CUB7        0.0000 
     32 CA        -17.4724    9.4374   10.7243 C.3       5 GLY6        0.0000 
     33 OG        -16.1839    9.2341    9.9836 O.2       1 SER1        0.0000 
     34 CZ        -19.5147    9.5826   10.1695 C.ar      4 PHE5        0.0000 
     35 CZ        -18.2263    9.3793    9.4288 C.ar      4 PHE5        0.0000 
     36 OG        -16.9378    9.1761    8.6881 O.2       1 SER1        0.0000 
     37 OG        -15.6494    8.9728    7.9475 O.2       1 SER1        0.0000 
     38 CZ        -20.2686    9.5245    8.8740 C.ar      4 PHE5        0.0000 
     39 CZ        -18.9801    9.3213    8.1333 C.ar      4 PHE5        0.0000 
     40 CZ        -17.6917    9.1180    7.3926 C.ar      4 PHE5        0.0000 
     41 O         -16.4032    8.9147    6.6520 O.2       2 ALA2        0.0000 
     42 CZ        -15.1148    8.7115    5.9113 C.ar      4 PHE5        0.0000 
     43 CZ        -18.4456    9.0599    6.0971 C.ar      4 PHE5        0.0000 
     44 DU        -17.1571    8.8567    5.3565 H         6 CUB7        0.0000 
     45 DU        -15.8687    8.6534    4.6158 H         6 CUB7        0.0000 
     46 CZ        -14.5802    8.4502    3.8751 C.ar      4 PHE5        0.0000 
     47 CZ        -20.4879    9.2051    5.5423 C.ar      4 PHE5        0.0000 
     48 CZ        -19.1994    9.0019    4.8017 C.ar      4 PHE5        0.0000 
     49 DU        -17.9110    8.7986    4.0610 H         6 CUB7        0.0000 
     50 DU        -16.6225    8.5954    3.3203 H         6 CUB7        0.0000 
     51 DU        -15.3341    8.3921    2.5796 H         6 CUB7        0.0000 
     52 CZ        -22.5302    9.3503    4.9875 C.ar      4 PHE5        0.0000 
     53 CZ        -21.2418    9.1471    4.2468 C.ar      4 PHE5        0.0000 
     54 DU        -19.9533    8.9438    3.5062 H         6 CUB7        0.0000 
     55 CA        -17.3255   10.9224   10.5723 C.3       5 GLY6        0.0000 
     56 NZ        -16.0371   10.7192    9.8316 N.2       3 LYS4        0.0000 
     57 CZ        -19.3678   11.0676   10.0174 C.ar      4 PHE5        0.0000 
     58 DU        -18.0794   10.8643    9.2768 H         6 CUB7        0.0000 
     59 O         -16.7909   10.6611    8.5361 O.2       2 ALA2        0.0000 
     60 O         -15.5025   10.4578    7.7954 O.2       2 ALA2        0.0000 
     61 CZ        -21.4102   11.2128    9.4626 C.ar      4 PHE5        0.0000 
     62 CZ        -20.1217   11.0095    8.7220 C.ar      4 PHE5        0.0000 
     63 DU        -18.8333   10.8063    7.9813 H         6 CUB7        0.0000 
     64 O         -17.5448   10.6030    7.2406 O.2       2 ALA2        0.0000 
     65 CZ        -20.8756   10.9515    7.4265 C.ar      4 PHE5        0.0000 
     66 CZ        -19.5871   10.7482    6.6858 C.ar      4 PHE5        0.0000 
     67 O         -18.2987   10.5450    5.9451 O.2       2 ALA2        0.0000 
     68 O         -17.0102   10.3417    5.2045 O.2       2 ALA2        0.0000 
     69 N         -15.7218   10.1385    4.4638 N.2       2 ALA2        0.0000 
     70 N         -14.4333    9.9352    3.7231 N.2       2 ALA2        0.0000 
     71 OG        -21.6295   10.8934    6.1310 O.2       1 SER1        0.0000 
     72 CZ        -20.3410   10.6902    5.3903 C.ar      4 PHE5        0.0000 
     73 DU        -19.0526   10.4869    4.6496 H         6 CUB7        0.0000 
     74 O         -17.7641   10.2837    3.9090 O.2       2 ALA2        0.0000 
     75 N         -16.4757   10.0804    3.1683 N.2       2 ALA2        0.0000 
     76 OG        -22.3833   10.8354    4.8355 O.2       1 SER1        0.0000 
     77 OG        -21.0949   10.6321    4.0948 O.2       1 SER1        0.0000 
     78 O         -17.1786   12.4074   10.4202 O.2       2 ALA2        0.0000 
     79 CZ        -19.2210   12.5526    9.8654 C.ar      4 PHE5        0.0000 
     80 NZ        -17.9325   12.3494    9.1248 N.2       3 LYS4        0.0000 
     81 CZ        -21.2633   12.6978    9.3106 C.ar      4 PHE5        0.0000 
     82 NZ        -19.9748   12.4946    8.5699 N.2       3 LYS4        0.0000 
     83 NZ        -18.6864   12.2913    7.8293 N.2       3 LYS4        0.0000 
     84 CZ        -20.7287   12.4365    7.2744 C.ar      4 PHE5        0.0000 
     85 NZ        -19.4403   12.2333    6.5338 N.2       3 LYS4        0.0000 
     86 O         -18.1518   12.0300    5.7931 O.2       2 ALA2        0.0000 
     87 CZ        -20.1941   12.1752    5.2383 C.ar      4 PHE5        0.0000 
     88 NZ        -18.9057   11.9719    4.4976 N.2       3 LYS4        0.0000 
     89 O         -17.6173   11.7687    3.7569 O.2       2 ALA2        0.0000 
     90 N         -16.3288   11.5654    3.0163 N.2       2 ALA2        0.0000 
     91 N         -15.0404   11.3622    2.2756 N.2       2 ALA2        0.0000 
     92 OG        -20.9480   12.1171    3.9428 O.2       1 SER1        0.0000 
     93 DU        -19.6596   11.9139    3.2021 H         6 CUB7        0.0000 
     94 DU        -18.3711   11.7106    2.4614 H         6 CUB7        0.0000 
     95 OG        -22.9903   12.2623    3.3880 O.2       1 SER1        0.0000 
     96 NZ        -20.0473   13.6602    5.0863 N.2       3 LYS4        0.0000 
     97 NZ        -18.7588   13.4570    4.3456 N.2       3 LYS4        0.0000 
     98 O         -17.4704   13.2537    3.6049 O.2       2 ALA2        0.0000 
     99 N         -16.1819   13.0505    2.8642 N.2       2 ALA2        0.0000 
    100 CZ        -20.8012   13.6022    3.7908 C.ar      4 PHE5        0.0000 
@<TRIPOS>BOND
@<TRIPOS>SUBSTRUCTURE
     1 SER1        9 GROUP   
     2 ALA2       13 GROUP   
     3 LYS4       56 GROUP   
     4 PHE5        1 GROUP   
     5 GLY6       23 GROUP   
     6 CUB7       21 GROUP   
@<TRIPOS>SET

