#    Name: 4cg9_GQG_1_INTS_M
#    Modification time : Tue Mar 25 09:22:46 2014

@<TRIPOS>MOLECULE
4cg9_GQG_1_INTS_M
   31     0     3     0     0
SMALL
NO_CHARGES


@<TRIPOS>ATOM
      1 CA        -19.3335   15.5635    8.6690 C.3       1 GLC5        0.0000 
      2 CA        -20.6390   14.3650    9.3450 C.3       3 GLL5        0.0000 
      3 CA        -18.0280   16.7620    7.9930 C.3       2 GLP5        0.0000 
      4 CA        -21.3995   15.0810    8.0450 C.3       1 GLC5        0.0000 
      5 CA        -22.1600   15.7970    6.7450 C.3       2 GLP5        0.0000 
      6 CA        -21.0420   14.0375   10.8550 C.3       1 GLC5        0.0000 
      7 CA        -21.4450   13.7100   12.3650 C.3       2 GLP5        0.0000 
      8 CA        -22.8060   13.0600    7.7295 C.3       1 GLC5        0.0000 
      9 CA        -22.0750   12.2690    8.9680 C.3       3 GLL5        0.0000 
     10 CA        -23.5370   13.8510    6.4910 C.3       2 GLP5        0.0000 
     11 CA        -21.9830   12.3225   10.6720 C.3       1 GLC5        0.0000 
     12 CA        -21.8910   12.3760   12.3760 C.3       2 GLP5        0.0000 
     13 CA        -22.3975   10.4020    8.8865 C.3       1 GLC5        0.0000 
     14 CA        -22.7200    8.5350    8.8050 C.3       2 GLP5        0.0000 
     15 CA        -18.6110    9.5975   11.6140 C.3       1 GLC5        0.0000 
     16 CA        -18.7550    9.8960    9.5500 C.3       3 GLL5        0.0000 
     17 CA        -18.4670    9.2990   13.6780 C.3       2 GLP5        0.0000 
     18 CA        -18.2215   14.6995    8.8125 C.3       1 GLC5        0.0000 
     19 CA        -18.4150   12.6370    9.6320 C.3       3 GLL5        0.0000 
     20 CA        -14.4590    8.9075    8.9935 C.3       1 GLC5        0.0000 
     21 CA        -16.3030    9.4930    9.8580 C.3       3 GLL5        0.0000 
     22 CA        -12.6150    8.3220    8.1290 C.3       2 GLP5        0.0000 
     23 CA        -17.3850    9.3960   11.7680 C.3       1 GLC5        0.0000 
     24 CA        -15.5995    7.8610   10.5405 C.3       1 GLC5        0.0000 
     25 CA        -14.8960    6.2290   11.2230 C.3       2 GLP5        0.0000 
     26 CA        -17.4657    3.2367    3.4972 C.3       1 GLC5        0.0000 
     27 CA        -17.7570    5.1960    3.5170 C.3       3 GLL5        0.0000 
     28 CA        -17.7090    1.2610    3.9290 C.3       2 GLP5        0.0000 
     29 CA        -13.5503    6.6595    3.8400 C.3       1 GLC5        0.0000 
     30 CA        -15.5370    5.9600    2.9200 C.3       3 GLL5        0.0000 
     31 CA        -11.6100    7.0080    4.1570 C.3       2 GLP5        0.0000 
@<TRIPOS>BOND
@<TRIPOS>SUBSTRUCTURE
     1 GLC5        1 GROUP        1 X    GLC  0     ROOT GLC X 6
     2 GLP5        3 GROUP        1 Y    GLP  0     ROOT GLP Y 13
     3 GLL5        2 GROUP        1 Z    GLL  0     ROOT GLL Z 20
@<TRIPOS>SET

