#    Name: 4cg9_GQG_1_ligand
#    Modification time : Tue Mar 25 09:22:46 2014

@<TRIPOS>MOLECULE
4cg9_GQG_1_ligand
   43    45     1     0     0
SMALL
NO_CHARGES


@<TRIPOS>ATOM
      1 CAA       -20.6390   14.3650    9.3450 C.3       1 GQG0        0.0000 
      2 NBE       -20.7810   12.8960    9.3040 N.pl3     1 GQG0        0.0000 
      3 CAB       -22.0750   12.2690    8.9680 C.3       1 GQG0        0.0000 
      4 CBA       -19.7030   12.1060    9.4620 C.ar      1 GQG0        0.0000 
      5 CAM       -19.8650   10.7210    9.4210 C.ar      1 GQG0        0.0000 
      6 CAP       -18.7550    9.8960    9.5500 C.ar      1 GQG0        0.0000 
      7 CAL       -18.4150   12.6370    9.6320 C.ar      1 GQG0        0.0000 
      8 CAO       -17.2880   11.8180    9.7770 C.ar      1 GQG0        0.0000 
      9 NBG       -17.4590   10.4270    9.7490 N.pl3     1 GQG0        0.0000 
     10 CAS       -16.3030    9.4930    9.8580 C.3       1 GQG0        0.0000 
     11 CAX       -16.3180    8.7750    8.6490 C.ar      1 GQG0        0.0000 
     12 CAG       -15.8360    9.3570    7.4740 C.ar      1 GQG0        0.0000 
     13 CAK       -15.8910    8.6350    6.2720 C.ar      1 GQG0        0.0000 
     14 CAF       -16.8850    7.4990    8.6050 C.ar      1 GQG0        0.0000 
     15 CAJ       -16.9460    6.7750    7.4130 C.ar      1 GQG0        0.0000 
     16 CAZ       -16.4510    7.3440    6.2380 C.ar      1 GQG0        0.0000 
     17 CAY       -16.5140    6.6330    5.0300 C.ar      1 GQG0        0.0000 
     18 CAI       -17.6670    5.9030    4.7140 C.ar      1 GQG0        0.0000 
     19 CAE       -17.7570    5.1960    3.5170 C.ar      1 GQG0        0.0000 
     20 CAH       -15.4440    6.6620    4.1260 C.ar      1 GQG0        0.0000 
     21 CAD       -15.5370    5.9600    2.9200 C.ar      1 GQG0        0.0000 
     22 CAW       -16.6880    5.2290    2.6140 C.ar      1 GQG0        0.0000 
     23 H         -20.7989   10.3171    9.2963 H         1 GQG0        0.0000 
     24 H         -18.8671    8.8682    9.5010 H         1 GQG0        0.0000 
     25 H         -18.2952   13.6684    9.6507 H         1 GQG0        0.0000 
     26 H         -16.3651   12.2234    9.9000 H         1 GQG0        0.0000 
     27 H         -16.4516    8.8528   10.7170 H         1 GQG0        0.0000 
     28 H         -15.3974   10.0716    9.9801 H         1 GQG0        0.0000 
     29 H         -15.4458   10.3011    7.4868 H         1 GQG0        0.0000 
     30 H         -15.5201    9.0503    5.4088 H         1 GQG0        0.0000 
     31 H         -17.2668    7.0831    9.4724 H         1 GQG0        0.0000 
     32 H         -17.3499    5.8356    7.4004 H         1 GQG0        0.0000 
     33 H         -18.4567    5.8909    5.3775 H         1 GQG0        0.0000 
     34 H         -18.5973    4.6555    3.2967 H         1 GQG0        0.0000 
     35 H         -14.5992    7.1945    4.3481 H         1 GQG0        0.0000 
     36 H         -14.7530    5.9822    2.2544 H         1 GQG0        0.0000 
     37 H         -16.7505    4.7163    1.7279 H         1 GQG0        0.0000 
     38 H         -19.7080   14.6416    9.5832 H         1 GQG0        0.0000 
     39 H         -20.8523   14.7835    8.4622 H         1 GQG0        0.0000 
     40 H         -21.2495   14.7784   10.0205 H         1 GQG0        0.0000 
     41 H         -22.3915   12.5354    8.0576 H         1 GQG0        0.0000 
     42 H         -22.0176   11.2707    8.9779 H         1 GQG0        0.0000 
     43 H         -22.7922   12.5278    9.6150 H         1 GQG0        0.0000 
@<TRIPOS>BOND
     1    2    1 1    
     2   38    1 1    
     3   39    1 1    
     4   40    1 1    
     5    3    2 1    
     6    4    2 1    
     7   41    3 1    
     8   42    3 1    
     9   43    3 1    
    10    5    4 ar   
    11    7    4 ar   
    12    6    5 ar   
    13   23    5 1    
    14    9    6 ar   
    15   24    6 1    
    16    8    7 ar   
    17   25    7 1    
    18    9    8 ar   
    19   26    8 1    
    20   10    9 1    
    21   11   10 1    
    22   27   10 1    
    23   28   10 1    
    24   12   11 ar   
    25   14   11 ar   
    26   13   12 ar   
    27   29   12 1    
    28   16   13 ar   
    29   30   13 1    
    30   15   14 ar   
    31   31   14 1    
    32   16   15 ar   
    33   32   15 1    
    34   17   16 1    
    35   18   17 ar   
    36   20   17 ar   
    37   19   18 ar   
    38   33   18 1    
    39   22   19 ar   
    40   34   19 1    
    41   21   20 ar   
    42   35   20 1    
    43   22   21 ar   
    44   36   21 1    
    45   37   22 1    
@<TRIPOS>SUBSTRUCTURE
     1 GQG0        1 GROUP   
@<TRIPOS>SET

