#    Name: 3sxn_COA_1_INTS_M
#    Modification time : Mon Mar 24 18:46:07 2014

@<TRIPOS>MOLECULE
3sxn_COA_1_INTS_M
   93     0    12     0     0
SMALL
NO_CHARGES


@<TRIPOS>ATOM
      1 CA          3.2705  -16.0975   23.4470 C.3       4 GLC5        0.0000 
      2 CA          3.3830  -16.3610   21.2600 C.3      12 GLL5        0.0000 
      3 CA          3.1580  -15.8340   25.6340 C.3       8 GLP5        0.0000 
      4 CA          3.1170  -17.8870   22.8180 C.3       4 GLC5        0.0000 
      5 CA          2.8510  -19.4130   24.3760 C.3       8 GLP5        0.0000 
      6 O           7.7450  -17.5665   21.0125 O.2       1 ALC1        0.0000 
      7 O           6.3880  -18.0460   20.6500 O.2       9 ALL1        0.0000 
      8 O           9.1020  -17.0870   21.3750 O.2       5 ALP1        0.0000 
      9 CA         -0.7545  -19.6745   20.6240 C.3       4 GLC5        0.0000 
     10 CA          0.6150  -18.8980   19.1900 C.3      12 GLL5        0.0000 
     11 CA         -2.1240  -20.4510   22.0580 C.3       8 GLP5        0.0000 
     12 CA          1.6080  -18.4780   16.4265 C.3       4 GLC5        0.0000 
     13 CA          0.1960  -18.5910   17.7630 C.3      12 GLL5        0.0000 
     14 CA          3.0200  -18.3650   15.0900 C.3       8 GLP5        0.0000 
     15 NZ         -4.3200  -20.9255   18.7740 N.4       3 LYC4        0.0000 
     16 NZ         -4.1490  -19.7300   17.8750 N.4      11 LYL4        0.0000 
     17 NZ         -4.8260  -23.3280   19.2320 N.4       7 LYP4        0.0000 
     18 N          -4.3200  -20.9255   18.7740 N.am      2 SEC2        0.0000 
     19 N          -4.1490  -19.7300   17.8750 N.am     10 SEL2        0.0000 
     20 N          -4.4910  -22.1210   19.6730 N.am      6 SEP2        0.0000 
     21 CA         -1.5510  -20.4405   20.3405 C.3       4 GLC5        0.0000 
     22 CA         -0.9780  -20.4300   18.6230 C.3      12 GLL5        0.0000 
     23 N           0.1950  -25.2000   16.9085 N.am      2 SEC2        0.0000 
     24 N           0.5070  -23.8600   16.2690 N.am     10 SEL2        0.0000 
     25 N          -0.1170  -26.5400   17.5480 N.am      6 SEP2        0.0000 
     26 N           0.5505  -22.8675   13.7155 N.am      2 SEC2        0.0000 
     27 N           1.2140  -22.0820   14.7880 N.am     10 SEL2        0.0000 
     28 N          -0.1130  -23.6530   12.6430 N.am      6 SEP2        0.0000 
     29 N           4.0250  -21.3240   14.0335 N.am      2 SEC2        0.0000 
     30 N           4.2550  -21.7910   15.2670 N.am     10 SEL2        0.0000 
     31 N           3.7950  -20.8570   12.8000 N.am      6 SEP2        0.0000 
     32 N           4.8810  -20.4800   15.6965 N.am      2 SEC2        0.0000 
     33 N           5.5070  -19.1690   16.1260 N.am      6 SEP2        0.0000 
     34 N           2.9130  -25.3585   15.5835 N.am      2 SEC2        0.0000 
     35 N           3.5800  -24.1510   15.1270 N.am     10 SEL2        0.0000 
     36 N           2.2460  -26.5660   16.0400 N.am      6 SEP2        0.0000 
     37 CA          4.7170  -23.7665   19.6355 C.3       4 GLC5        0.0000 
     38 CA          6.5620  -23.0930   18.7530 C.3      12 GLL5        0.0000 
     39 CA          2.8720  -24.4400   20.5180 C.3       8 GLP5        0.0000 
     40 CA          4.0620  -24.0960   18.0820 C.3       4 GLC5        0.0000 
     41 CA          5.3810  -22.6210   17.9100 C.3      12 GLL5        0.0000 
     42 CA          2.7430  -25.5710   18.2540 C.3       8 GLP5        0.0000 
     43 CA          6.9070  -25.9875   19.9495 C.3       4 GLC5        0.0000 
     44 CA          6.9980  -24.5180   18.5140 C.3      12 GLL5        0.0000 
     45 CA          6.8160  -27.4570   21.3850 C.3       8 GLP5        0.0000 
     46 CA          8.5170  -25.8765   18.3700 C.3       4 GLC5        0.0000 
     47 CA         10.0360  -27.2350   18.2260 C.3       8 GLP5        0.0000 
     48 CA          6.5775  -25.4860   16.9990 C.3       4 GLC5        0.0000 
     49 CA          6.1570  -26.4540   15.4840 C.3       8 GLP5        0.0000 
     50 CA          4.8705  -25.0445   18.3840 C.3       4 GLC5        0.0000 
     51 CA          6.7665  -21.3555   21.6275 C.3       4 GLC5        0.0000 
     52 CA          7.0630  -22.2860   19.9050 C.3      12 GLL5        0.0000 
     53 CA          6.4700  -20.4250   23.3500 C.3       8 GLP5        0.0000 
     54 CA          7.4010  -23.9800   16.3100 C.3       4 GLC5        0.0000 
     55 CA          7.6200  -22.4340   17.7850 C.3      12 GLL5        0.0000 
     56 CA          7.1820  -25.5260   14.8350 C.3       8 GLP5        0.0000 
     57 N           6.5125  -20.0975   16.8455 N.am      2 SEC2        0.0000 
     58 N           7.5180  -21.0260   17.5650 N.am     10 SEL2        0.0000 
     59 O           8.3540  -20.1465   16.7845 O.2       1 ALC1        0.0000 
     60 O           7.5180  -21.0260   17.5650 O.2       9 ALL1        0.0000 
     61 O           9.1900  -19.2670   16.0040 O.2       5 ALP1        0.0000 
     62 N           9.3310  -24.9790   16.9700 N.am      2 SEC2        0.0000 
     63 N           9.5450  -23.7530   17.7020 N.am     10 SEL2        0.0000 
     64 N           9.1170  -26.2050   16.2380 N.am      6 SEP2        0.0000 
     65 CA         10.8185  -20.1840   18.4430 C.3       4 GLC5        0.0000 
     66 CA         10.9920  -21.9810   19.2350 C.3      12 GLL5        0.0000 
     67 CA         10.6450  -18.3870   17.6510 C.3       8 GLP5        0.0000 
     68 CA         12.2995  -20.6510   20.1610 C.3       4 GLC5        0.0000 
     69 CA         13.6070  -19.3210   21.0870 C.3       8 GLP5        0.0000 
     70 CA         11.0145  -21.5295   22.7595 C.3       4 GLC5        0.0000 
     71 CA         10.6570  -22.0290   20.7300 C.3      12 GLL5        0.0000 
     72 CA         11.3720  -21.0300   24.7890 C.3       8 GLP5        0.0000 
     73 CA         12.4130  -21.2780   21.2830 C.3       4 GLC5        0.0000 
     74 CA         14.1690  -20.5270   21.8360 C.3       8 GLP5        0.0000 
     75 CA         11.1805  -24.7555   22.6830 C.3       4 GLC5        0.0000 
     76 CA          9.2490  -23.8050   23.0080 C.3      12 GLL5        0.0000 
     77 CA         13.1120  -25.7060   22.3580 C.3       8 GLP5        0.0000 
     78 CA          8.5640  -25.8865   22.6760 C.3       4 GLC5        0.0000 
     79 CA          7.8790  -27.9680   22.3440 C.3       8 GLP5        0.0000 
     80 CA          7.8595  -22.1150   23.1790 C.3       4 GLC5        0.0000 
     81 CA         11.9905  -24.3160   23.4650 C.3       4 GLC5        0.0000 
     82 CA         10.2820  -24.0690   24.0440 C.3      12 GLL5        0.0000 
     83 CA         13.6990  -24.5630   22.8860 C.3       8 GLP5        0.0000 
     84 CA          8.9690  -23.2585   27.0385 C.3       4 GLC5        0.0000 
     85 CA          9.2550  -24.3890   25.4340 C.3      12 GLL5        0.0000 
     86 CA          8.6830  -22.1280   28.6430 C.3       8 GLP5        0.0000 
     87 CA         10.3135  -22.7095   25.1115 C.3       4 GLC5        0.0000 
     88 CA          7.3920  -23.8905   25.8255 C.3       4 GLC5        0.0000 
     89 CA          5.5290  -23.3920   26.2170 C.3       8 GLP5        0.0000 
     90 CA          4.9398  -18.8627   21.9755 C.3       4 GLC5        0.0000 
     91 CA          5.0970  -17.7550   20.6300 C.3      12 GLL5        0.0000 
     92 CA          5.2750  -19.5560   23.6680 C.3       8 GLP5        0.0000 
     93 CA         10.5688  -22.4835   24.1575 C.3       4 GLC5        0.0000 
@<TRIPOS>BOND
@<TRIPOS>SUBSTRUCTURE
     1 ALC1        6 GROUP        1 X    ALC  0     ROOT ALC X 1
     2 SEC2       18 GROUP        1 X    SEC  0     **** SEC X 2
     3 LYC4       15 GROUP        1 X    LYC  0     **** LYC X 4
     4 GLC5        1 GROUP        1 X    GLC  0     **** GLC X 6
     5 ALP1        8 GROUP        1 Y    ALP  0     ROOT ALP Y 8
     6 SEP2       20 GROUP        1 Y    SEP  0     **** SEP Y 9
     7 LYP4       17 GROUP        1 Y    LYP  0     **** LYP Y 11
     8 GLP5        3 GROUP        1 Y    GLP  0     **** GLP Y 13
     9 ALL1        7 GROUP        1 Z    ALL  0     ROOT ALL Z 15
    10 SEL2       19 GROUP        1 Z    SEL  0     **** SEL Z 16
    11 LYL4       16 GROUP        1 Z    LYL  0     **** LYL Z 18
    12 GLL5        2 GROUP        1 Z    GLL  0     **** GLL Z 20
@<TRIPOS>SET

