#    Name: 3sxn_COA_1_ligand
#    Modification time : Mon Mar 24 18:46:07 2014

@<TRIPOS>MOLECULE
3sxn_COA_1_ligand
   79    81     1     0     0
SMALL
NO_CHARGES


@<TRIPOS>ATOM
      1 N1A         4.6610  -16.6810   21.2440 N.ar      1 COA500      0.0000 
      2 C2A         3.3830  -16.3610   21.2600 C.ar      1 COA500      0.0000 
      3 N3A         2.4410  -17.0580   20.6640 N.ar      1 COA500      0.0000 
      4 C4A         2.7430  -18.1480   19.9920 C.ar      1 COA500      0.0000 
      5 C5A         4.1120  -18.5840   19.9360 C.ar      1 COA500      0.0000 
      6 C6A         5.0970  -17.7550   20.6300 C.ar      1 COA500      0.0000 
      7 N6A         6.3880  -18.0460   20.6500 N.pl3     1 COA500      0.0000 
      8 N7A         4.1170  -19.6790   19.2340 N.2       1 COA500      0.0000 
      9 C8A         2.8650  -19.9070   18.8960 C.2       1 COA500      0.0000 
     10 N9A         2.0530  -19.0000   19.3470 N.pl3     1 COA500      0.0000 
     11 C1B         0.6150  -18.8980   19.1900 C.3       1 COA500      0.0000 
     12 C2B         0.1960  -18.5910   17.7630 C.3       1 COA500      0.0000 
     13 O2B         0.1870  -17.2180   17.4660 O.3       1 COA500      0.0000 
     14 C3B        -1.1620  -19.2400   17.6940 C.3       1 COA500      0.0000 
     15 O3B        -2.2000  -18.3850   18.1260 O.3       1 COA500      0.0000 
     16 P3B        -3.6340  -18.4310   17.4970 P.3       1 COA500      0.0000 
     17 O7A        -4.3790  -17.3240   18.0270 O.co2     1 COA500      0.0000 
     18 O8A        -3.4020  -18.2430   16.0990 O.co2     1 COA500      0.0000 
     19 O9A        -4.1490  -19.7300   17.8750 O.co2     1 COA500      0.0000 
     20 C4B        -0.9780  -20.4300   18.6230 C.3       1 COA500      0.0000 
     21 O4B         0.0140  -20.0940   19.5570 O.3       1 COA500      0.0000 
     22 C5B        -0.5820  -21.7200   17.9030 C.3       1 COA500      0.0000 
     23 O5B         0.4880  -21.5460   17.0350 O.3       1 COA500      0.0000 
     24 P1A         1.1240  -22.5910   16.1040 P.3       1 COA500      0.0000 
     25 O1A         0.5070  -23.8600   16.2690 O.co2     1 COA500      0.0000 
     26 O2A         1.2140  -22.0820   14.7880 O.co2     1 COA500      0.0000 
     27 O3A         2.5820  -22.6530   16.6830 O.3       1 COA500      0.0000 
     28 P2A         3.8670  -23.0020   15.8930 P.3       1 COA500      0.0000 
     29 O4A         4.2550  -21.7910   15.2670 O.co2     1 COA500      0.0000 
     30 O5A         3.5800  -24.1510   15.1270 O.co2     1 COA500      0.0000 
     31 O6A         4.9790  -23.4560   16.8810 O.3       1 COA500      0.0000 
     32 CBP         6.5620  -23.0930   18.7530 C.3       1 COA500      0.0000 
     33 CCP         5.3810  -22.6210   17.9100 C.3       1 COA500      0.0000 
     34 CDP         6.9980  -24.5180   18.5140 C.3       1 COA500      0.0000 
     35 CEP         7.0630  -22.2860   19.9050 C.3       1 COA500      0.0000 
     36 CAP         7.6200  -22.4340   17.7850 C.3       1 COA500      0.0000 
     37 OAP         7.5180  -21.0260   17.5650 O.3       1 COA500      0.0000 
     38 C9P         9.1130  -22.6940   17.9700 C.2       1 COA500      0.0000 
     39 O9P         9.5450  -23.7530   17.7020 O.2       1 COA500      0.0000 
     40 N8P         9.8650  -21.7210   18.4260 N.am      1 COA500      0.0000 
     41 C7P        10.9920  -21.9810   19.2350 C.3       1 COA500      0.0000 
     42 C6P        10.6570  -22.0290   20.7300 C.3       1 COA500      0.0000 
     43 C5P        10.6960  -23.4150   21.1470 C.2       1 COA500      0.0000 
     44 O5P        11.6710  -23.9950   20.8900 O.2       1 COA500      0.0000 
     45 N4P         9.6880  -24.0060   21.7030 N.am      1 COA500      0.0000 
     46 C3P         9.2490  -23.8050   23.0080 C.3       1 COA500      0.0000 
     47 C2P        10.2820  -24.0690   24.0440 C.3       1 COA500      0.0000 
     48 S1P         9.2550  -24.3890   25.4340 S.3       1 COA500      0.0000 
     49 H           3.0920  -15.4695   21.7970 H         1 COA500      0.0000 
     50 H           7.0127  -17.2699   20.7361 H         1 COA500      0.0000 
     51 H           6.6217  -19.0155   20.5771 H         1 COA500      0.0000 
     52 H           2.5783  -20.7023   18.3465 H         1 COA500      0.0000 
     53 H           0.2361  -18.0799   19.8142 H         1 COA500      0.0000 
     54 H           0.8539  -19.1693   17.1197 H         1 COA500      0.0000 
     55 H          -1.2929  -19.6251   16.7057 H         1 COA500      0.0000 
     56 H          -1.9287  -20.6067   19.1297 H         1 COA500      0.0000 
     57 H          -1.4946  -22.0893   17.3814 H         1 COA500      0.0000 
     58 H          -0.3676  -22.4755   18.6932 H         1 COA500      0.0000 
     59 H           4.5376  -22.4124   18.6350 H         1 COA500      0.0000 
     60 H           5.6539  -21.5900   17.5316 H         1 COA500      0.0000 
     61 H           7.3983  -22.9115   16.7379 H         1 COA500      0.0000 
     62 H           9.6615  -20.7156   18.2099 H         1 COA500      0.0000 
     63 H          11.7821  -21.2105   19.1034 H         1 COA500      0.0000 
     64 H          11.4708  -22.9504   18.9778 H         1 COA500      0.0000 
     65 H           9.6712  -21.5978   20.8693 H         1 COA500      0.0000 
     66 H          11.3915  -21.4318   21.2602 H         1 COA500      0.0000 
     67 H           9.1111  -24.7265   21.1350 H         1 COA500      0.0000 
     68 H           8.3587  -24.4478   23.2443 H         1 COA500      0.0000 
     69 H           8.8775  -22.7557   23.1582 H         1 COA500      0.0000 
     70 H          10.8178  -23.2344   24.3315 H         1 COA500      0.0000 
     71 H          10.7934  -24.9570   23.9169 H         1 COA500      0.0000 
     72 H           7.2819  -24.6656   17.5666 H         1 COA500      0.0000 
     73 H           7.7714  -24.7721   19.0947 H         1 COA500      0.0000 
     74 H           6.2625  -25.1683   18.7043 H         1 COA500      0.0000 
     75 H           7.8389  -22.7259   20.3571 H         1 COA500      0.0000 
     76 H           7.3675  -21.3779   19.6177 H         1 COA500      0.0000 
     77 H           6.3564  -22.1520   20.5998 H         1 COA500      0.0000 
     78 H          -0.7485  -16.9189   17.6539 H         1 COA500      0.0000 
     79 H           8.2785  -20.8037   16.9549 H         1 COA500      0.0000 
@<TRIPOS>BOND
     1    2    1 ar   
     2    6    1 ar   
     3    3    2 ar   
     4   49    2 1    
     5    4    3 ar   
     6    5    4 ar   
     7   10    4 1    
     8    6    5 ar   
     9    8    5 1    
    10    7    6 1    
    11   50    7 1    
    12   51    7 1    
    13    9    8 2    
    14   10    9 1    
    15   52    9 1    
    16   11   10 1    
    17   12   11 1    
    18   21   11 1    
    19   53   11 1    
    20   13   12 1    
    21   14   12 1    
    22   54   12 1    
    23   78   13 1    
    24   15   14 1    
    25   20   14 1    
    26   55   14 1    
    27   16   15 1    
    28   17   16 ar   
    29   18   16 ar   
    30   19   16 ar   
    31   21   20 1    
    32   22   20 1    
    33   56   20 1    
    34   23   22 1    
    35   57   22 1    
    36   58   22 1    
    37   24   23 1    
    38   25   24 ar   
    39   26   24 ar   
    40   27   24 1    
    41   28   27 1    
    42   29   28 ar   
    43   30   28 ar   
    44   31   28 1    
    45   33   31 1    
    46   33   32 1    
    47   34   32 1    
    48   35   32 1    
    49   36   32 1    
    50   59   33 1    
    51   60   33 1    
    52   72   34 1    
    53   73   34 1    
    54   74   34 1    
    55   75   35 1    
    56   76   35 1    
    57   77   35 1    
    58   37   36 1    
    59   38   36 1    
    60   61   36 1    
    61   79   37 1    
    62   39   38 2    
    63   40   38 am   
    64   41   40 1    
    65   62   40 1    
    66   42   41 1    
    67   63   41 1    
    68   64   41 1    
    69   43   42 1    
    70   65   42 1    
    71   66   42 1    
    72   44   43 2    
    73   45   43 am   
    74   46   45 1    
    75   67   45 1    
    76   47   46 1    
    77   68   46 1    
    78   69   46 1    
    79   48   47 1    
    80   70   47 1    
    81   71   47 1    
@<TRIPOS>SUBSTRUCTURE
     1 COA500      1 GROUP   
@<TRIPOS>SET

