#    Name: 3fly_FLY_1_INTS_M
#    Modification time : Tue Mar 25 06:03:58 2014

@<TRIPOS>MOLECULE
3fly_FLY_1_INTS_M
   66     0     9     0     0
SMALL
NO_CHARGES


@<TRIPOS>ATOM
      1 CA         21.4260    6.5320   31.2725 C.3       3 GLC5        0.0000 
      2 CA         21.4840    8.6100   30.7530 C.3       9 GLL5        0.0000 
      3 CA         21.3680    4.4540   31.7920 C.3       6 GLP5        0.0000 
      4 CA         22.2050    7.4565   29.1435 C.3       3 GLC5        0.0000 
      5 CA         22.9260    6.3030   27.5340 C.3       6 GLP5        0.0000 
      6 CA         22.9605   11.1500   29.0810 C.3       3 GLC5        0.0000 
      7 CA         22.6150   10.6970   31.1110 C.3       9 GLL5        0.0000 
      8 CA         23.3060   11.6030   27.0510 C.3       6 GLP5        0.0000 
      9 N          22.9160    6.5600   30.5285 N.am      2 SEC2        0.0000 
     10 N          22.6730    7.9800   30.7570 N.am      8 SEL2        0.0000 
     11 N          23.1590    5.1400   30.3000 N.am      5 SEP2        0.0000 
     12 CA         20.2110   12.6400   33.1610 C.3       3 GLC5        0.0000 
     13 CA         20.1580   12.0640   31.1160 C.3       9 GLL5        0.0000 
     14 CA         20.2640   13.2160   35.2060 C.3       6 GLP5        0.0000 
     15 CA         24.0350    7.3805   29.6115 C.3       3 GLC5        0.0000 
     16 CA         23.8260    8.6810   30.9320 C.3       9 GLL5        0.0000 
     17 CA         24.2440    6.0800   28.2910 C.3       6 GLP5        0.0000 
     18 CA         28.5375    7.2960   30.4680 C.3       3 GLC5        0.0000 
     19 CA         27.1880    7.9610   32.0970 C.3       9 GLL5        0.0000 
     20 CA         29.8870    6.6310   28.8390 C.3       6 GLP5        0.0000 
     21 CA         28.4010    7.9145   29.3715 C.3       3 GLC5        0.0000 
     22 CA         26.9150    9.1980   29.9040 C.3       9 GLL5        0.0000 
     23 CA         28.1395   10.2015   28.5945 C.3       3 GLC5        0.0000 
     24 CA         29.3640   11.2050   27.2850 C.3       6 GLP5        0.0000 
     25 CA         26.0460    8.7960   27.9455 C.3       3 GLC5        0.0000 
     26 CA         25.1770    8.3940   25.9870 C.3       6 GLP5        0.0000 
     27 CA         12.3810   10.3125   30.3600 C.3       3 GLC5        0.0000 
     28 CA         13.9620   10.4860   30.8930 C.3       9 GLL5        0.0000 
     29 CA         10.8000   10.1390   29.8270 C.3       6 GLP5        0.0000 
     30 CA         15.0180    9.1755   30.2415 C.3       3 GLC5        0.0000 
     31 CA         16.0740    7.8650   29.5900 C.3       6 GLP5        0.0000 
     32 CA         19.1860   10.9970   34.4345 C.3       3 GLC5        0.0000 
     33 CA         17.9830   11.2440   33.2920 C.3       9 GLL5        0.0000 
     34 CA         20.3890   10.7500   35.5770 C.3       6 GLP5        0.0000 
     35 O          25.3940    6.6490   31.0255 O.2       1 ALC1        0.0000 
     36 O          25.0300    8.0470   30.9370 O.2       7 ALL1        0.0000 
     37 O          25.7580    5.2510   31.1140 O.2       4 ALP1        0.0000 
     38 CA         20.1088    8.9283   32.2614 C.3       3 GLC5        0.0000 
     39 CA         20.2010   10.6750   30.9330 C.3       9 GLL5        0.0000 
     40 CA         19.3900    7.8680   33.6350 C.3       6 GLP5        0.0000 
     41 CA         19.1478   10.9443   29.2347 C.3       3 GLC5        0.0000 
     42 CA         18.1160   10.5190   27.4450 C.3       6 GLP5        0.0000 
     43 CA         19.1032    9.1902   30.5389 C.3       3 GLC5        0.0000 
     44 CA         17.3790    8.3920   30.1900 C.3       6 GLP5        0.0000 
     45 CA         25.4140    7.5375   29.4265 C.3       3 GLC5        0.0000 
     46 CA         26.2530    8.7920   31.2200 C.3       9 GLL5        0.0000 
     47 CA         17.0988   13.7817   31.7097 C.3       3 GLC5        0.0000 
     48 CA         17.7280   12.1830   31.1120 C.3       9 GLL5        0.0000 
     49 CA         16.8660   15.2900   32.8730 C.3       6 GLP5        0.0000 
     50 CA         17.3552   10.3328   30.3683 C.3       3 GLC5        0.0000 
     51 CA         16.9350   12.3640   29.9810 C.3       9 GLL5        0.0000 
     52 CA         17.3084   11.2749   28.8359 C.3       3 GLC5        0.0000 
     53 CA         15.6700   11.7880   29.9070 C.3       9 GLL5        0.0000 
     54 CA         16.4032    9.9027   30.3160 C.3       3 GLC5        0.0000 
     55 CA         18.5013    9.6030   33.1865 C.3       3 GLC5        0.0000 
     56 CA         17.2420   11.4320   32.1840 C.3       9 GLL5        0.0000 
     57 CA         13.7679   12.3309   29.5817 C.3       3 GLC5        0.0000 
     58 CA         12.8410   13.7120   28.4960 C.3       6 GLP5        0.0000 
     59 CA         13.5161   11.5489   32.1021 C.3       3 GLC5        0.0000 
     60 CA         12.2630   12.3800   32.9840 C.3       6 GLP5        0.0000 
     61 CA         13.9671    9.2634   32.2376 C.3       3 GLC5        0.0000 
     62 CA         13.1650    7.8090   33.2550 C.3       6 GLP5        0.0000 
     63 CA         16.6870   12.2740   33.9458 C.3       3 GLC5        0.0000 
     64 CA         15.9680   10.8600   32.1180 C.3       9 GLL5        0.0000 
     65 CA         16.0800   13.3530   35.1700 C.3       6 GLP5        0.0000 
     66 CA         17.3365    9.7935   31.4558 C.3       3 GLC5        0.0000 
@<TRIPOS>BOND
@<TRIPOS>SUBSTRUCTURE
     1 ALC1       35 GROUP        1 X    ALC  0     ROOT ALC X 1
     2 SEC2        9 GROUP        1 X    SEC  0     **** SEC X 2
     3 GLC5        1 GROUP        1 X    GLC  0     **** GLC X 6
     4 ALP1       37 GROUP        1 Y    ALP  0     ROOT ALP Y 8
     5 SEP2       11 GROUP        1 Y    SEP  0     **** SEP Y 9
     6 GLP5        3 GROUP        1 Y    GLP  0     **** GLP Y 13
     7 ALL1       36 GROUP        1 Z    ALL  0     ROOT ALL Z 15
     8 SEL2       10 GROUP        1 Z    SEL  0     **** SEL Z 16
     9 GLL5        2 GROUP        1 Z    GLL  0     **** GLL Z 20
@<TRIPOS>SET

