#    Name: 3fly_FLY_1_ligand
#    Modification time : Tue Mar 25 06:03:58 2014

@<TRIPOS>MOLECULE
3fly_FLY_1_ligand
   41    43     1     0     0
SMALL
NO_CHARGES


@<TRIPOS>ATOM
      1 C2         21.4840    8.6100   30.7530 C.ar      1 FLY361      0.0000 
      2 C3         22.6150   10.6970   31.1110 C.ar      1 FLY361      0.0000 
      3 N1         22.6730    7.9800   30.7570 N.ar      1 FLY361      0.0000 
      4 C4         21.4240    9.9940   30.9320 C.ar      1 FLY361      0.0000 
      5 C5         20.2010   10.6750   30.9330 C.2       1 FLY361      0.0000 
      6 C6         20.1580   12.0640   31.1160 C.2       1 FLY361      0.0000 
      7 C7         21.3440   12.7710   31.2940 C.2       1 FLY361      0.0000 
      8 C9         23.8260    8.6810   30.9320 C.ar      1 FLY361      0.0000 
      9 C11        26.2530    8.7920   31.2200 C.3       1 FLY361      0.0000 
     10 C13        27.1880    7.9610   32.0970 C.3       1 FLY361      0.0000 
     11 C14        26.9150    9.1980   29.9040 C.3       1 FLY361      0.0000 
     12 C17        17.7280   12.1830   31.1120 C.ar      1 FLY361      0.0000 
     13 C18        16.9350   12.3640   29.9810 C.ar      1 FLY361      0.0000 
     14 C19        15.6700   11.7880   29.9070 C.ar      1 FLY361      0.0000 
     15 C20        15.1850   11.0390   30.9770 C.ar      1 FLY361      0.0000 
     16 C21        15.9680   10.8600   32.1180 C.ar      1 FLY361      0.0000 
     17 C22        17.2420   11.4320   32.1840 C.ar      1 FLY361      0.0000 
     18 F24        13.9620   10.4860   30.8930 F         1 FLY361      0.0000 
     19 F23        17.9830   11.2440   33.2920 F         1 FLY361      0.0000 
     20 O16        18.9730   12.7710   31.1290 O.3       1 FLY361      0.0000 
     21 O15        21.2960   14.0100   31.4530 O.2       1 FLY361      0.0000 
     22 N8         22.5910   12.0970   31.2930 N.am      1 FLY361      0.0000 
     23 C25        23.8460   12.8450   31.4810 C.3       1 FLY361      0.0000 
     24 N10        23.7910   10.0250   31.1070 N.ar      1 FLY361      0.0000 
     25 N12        25.0300    8.0470   30.9370 N.pl3     1 FLY361      0.0000 
     26 H          20.5992    8.0887   30.6188 H         1 FLY361      0.0000 
     27 H          19.3251   10.1519   30.7982 H         1 FLY361      0.0000 
     28 H          26.0041    9.7045   31.7626 H         1 FLY361      0.0000 
     29 H          17.2879   12.9283   29.1939 H         1 FLY361      0.0000 
     30 H          15.0950   11.9145   29.0659 H         1 FLY361      0.0000 
     31 H          15.6111   10.3107   32.9065 H         1 FLY361      0.0000 
     32 H          25.1246    7.0446   30.7468 H         1 FLY361      0.0000 
     33 H          27.4740    7.1184   31.6407 H         1 FLY361      0.0000 
     34 H          28.0198    8.4633   32.3331 H         1 FLY361      0.0000 
     35 H          26.7521    7.6952   32.9569 H         1 FLY361      0.0000 
     36 H          27.7366    9.7476   30.0556 H         1 FLY361      0.0000 
     37 H          27.1903    8.4016   29.3656 H         1 FLY361      0.0000 
     38 H          26.3008    9.7409   29.3313 H         1 FLY361      0.0000 
     39 H          24.3472   12.5326   32.2879 H         1 FLY361      0.0000 
     40 H          24.4594   12.7441   30.6977 H         1 FLY361      0.0000 
     41 H          23.6806   13.8241   31.5996 H         1 FLY361      0.0000 
@<TRIPOS>BOND
     1    3    1 ar   
     2    4    1 ar   
     3   26    1 1    
     4    4    2 ar   
     5   22    2 1    
     6   24    2 ar   
     7    8    3 ar   
     8    5    4 1    
     9    6    5 2    
    10   27    5 1    
    11    7    6 1    
    12   20    6 1    
    13   21    7 2    
    14   22    7 am   
    15   24    8 ar   
    16   25    8 1    
    17   10    9 1    
    18   11    9 1    
    19   25    9 1    
    20   28    9 1    
    21   33   10 1    
    22   34   10 1    
    23   35   10 1    
    24   36   11 1    
    25   37   11 1    
    26   38   11 1    
    27   13   12 ar   
    28   17   12 ar   
    29   20   12 1    
    30   14   13 ar   
    31   29   13 1    
    32   15   14 ar   
    33   30   14 1    
    34   16   15 ar   
    35   18   15 1    
    36   17   16 ar   
    37   31   16 1    
    38   19   17 1    
    39   23   22 1    
    40   39   23 1    
    41   40   23 1    
    42   41   23 1    
    43   32   25 1    
@<TRIPOS>SUBSTRUCTURE
     1 FLY361      1 GROUP   
@<TRIPOS>SET

