#    Name: 4GV8_6_CAVITY_N1_ALL.mol2
#    Modification time : Tue Mar 11 00:49:14 2014

@<TRIPOS>MOLECULE
4GV8_6_CAVITY_N1_ALL.mol2
   84     0     7     0     0
SMALL
NO_CHARGES


@<TRIPOS>ATOM
      1 OG          3.0591   43.8767  -34.9323 O.2       1 SER1        0.0000 
      2 DU          1.7662   44.4010  -34.3813 H         7 CUB7        0.0000 
      3 CA          0.4733   44.9252  -33.8303 C.3       6 GLY6        0.0000 
      4 CA         -0.8196   45.4495  -33.2794 C.3       6 GLY6        0.0000 
      5 CA          4.9830   42.5876  -37.3585 C.3       6 GLY6        0.0000 
      6 DU          3.6901   43.1118  -36.8076 H         7 CUB7        0.0000 
      7 OG          2.3972   43.6361  -36.2566 O.2       1 SER1        0.0000 
      8 OG          1.1043   44.1603  -35.7057 O.2       1 SER1        0.0000 
      9 DU         -0.1886   44.6846  -35.1547 H         7 CUB7        0.0000 
     10 DU         -1.4815   45.2088  -34.6037 H         7 CUB7        0.0000 
     11 N           4.3211   42.3469  -38.6829 N.2       2 ALA2        0.0000 
     12 OG          3.0282   42.8712  -38.1319 O.2       1 SER1        0.0000 
     13 OG          1.7353   43.3954  -37.5810 O.2       1 SER1        0.0000 
     14 N           3.6592   42.1063  -40.0072 N.2       2 ALA2        0.0000 
     15 OG          2.3662   42.6305  -39.4563 O.2       1 SER1        0.0000 
     16 NZ          2.9972   41.8656  -41.3316 N.2       4 LYS4        0.0000 
     17 OG          1.7043   42.3899  -40.7806 O.2       1 SER1        0.0000 
     18 OG         -0.2505   42.6735  -41.5541 O.2       1 SER1        0.0000 
     19 CA          3.9776   41.9678  -35.0444 C.3       6 GLY6        0.0000 
     20 N           2.6847   42.4921  -34.4935 N.2       2 ALA2        0.0000 
     21 N           1.3918   43.0163  -33.9425 N.2       2 ALA2        0.0000 
     22 CA          0.0989   43.5406  -33.3916 C.3       6 GLY6        0.0000 
     23 CA         -1.1941   44.0648  -32.8406 C.3       6 GLY6        0.0000 
     24 CA          4.6086   41.2029  -36.9197 C.3       6 GLY6        0.0000 
     25 CA          3.3157   41.7272  -36.3688 C.3       6 GLY6        0.0000 
     26 CA          2.0227   42.2514  -35.8178 C.3       6 GLY6        0.0000 
     27 CA          0.7298   42.7757  -35.2669 C.3       6 GLY6        0.0000 
     28 OG         -0.5631   43.2999  -34.7159 O.2       1 SER1        0.0000 
     29 CA         -1.8560   43.8242  -34.1650 C.3       6 GLY6        0.0000 
     30 CA         -3.1489   44.3484  -33.6140 C.3       6 GLY6        0.0000 
     31 CA          2.6537   41.4865  -37.6932 C.3       6 GLY6        0.0000 
     32 OG         -1.2250   43.0593  -36.0403 O.2       1 SER1        0.0000 
     33 OG         -2.5179   43.5835  -35.4893 O.2       1 SER1        0.0000 
     34 N           3.2847   40.7216  -39.5685 N.2       2 ALA2        0.0000 
     35 OG          1.3298   41.0052  -40.3419 O.2       1 SER1        0.0000 
     36 N           3.6031   40.5832  -34.6057 N.2       2 ALA2        0.0000 
     37 N           2.3102   41.1074  -34.0547 N.2       2 ALA2        0.0000 
     38 N           1.0173   41.6317  -33.5038 N.2       2 ALA2        0.0000 
     39 CA         -0.2756   42.1559  -32.9528 C.3       6 GLY6        0.0000 
     40 CA          4.2341   39.8183  -36.4810 C.3       6 GLY6        0.0000 
     41 CA          2.9412   40.3425  -35.9300 C.3       6 GLY6        0.0000 
     42 CA          1.6483   40.8668  -35.3791 C.3       6 GLY6        0.0000 
     43 CA          0.3554   41.3910  -34.8281 C.3       6 GLY6        0.0000 
     44 CA         -0.9375   41.9153  -34.2772 C.3       6 GLY6        0.0000 
     45 CA         -2.2305   42.4395  -33.7262 C.3       6 GLY6        0.0000 
     46 O           3.5722   39.5776  -37.8053 O.2       2 ALA2        0.0000 
     47 CA          2.2792   40.1019  -37.2544 C.3       6 GLY6        0.0000 
     48 N          -1.5995   41.6746  -35.6015 N.2       2 ALA2        0.0000 
     49 N           2.9102   39.3370  -39.1297 N.2       2 ALA2        0.0000 
     50 CZ          4.7826   46.2602  -41.3235 C.ar      5 PHE5        0.0000 
     51 N           2.8026   46.0263  -33.4957 N.2       2 ALA2        0.0000 
     52 N           1.5097   46.5505  -32.9448 N.2       2 ALA2        0.0000 
     53 OG          2.1407   45.7856  -34.8201 O.2       1 SER1        0.0000 
     54 DU          0.8478   46.3099  -34.2691 H         7 CUB7        0.0000 
     55 CZ          5.3575   43.9722  -37.7973 C.ar      5 PHE5        0.0000 
     56 CZ          4.0646   44.4965  -37.2463 C.ar      5 PHE5        0.0000 
     57 OG          2.7717   45.0207  -36.6954 O.2       1 SER1        0.0000 
     58 NZ          5.9885   43.2073  -39.6726 N.2       4 LYS4        0.0000 
     59 CZ          4.6956   43.7316  -39.1216 C.ar      5 PHE5        0.0000 
     60 CZ          3.4027   44.2558  -38.5707 C.ar      5 PHE5        0.0000 
     61 OG          2.1097   44.7801  -38.0197 O.2       1 SER1        0.0000 
     62 NZ          4.0336   43.4909  -40.4460 N.2       4 LYS4        0.0000 
     63 OG          2.7407   44.0152  -39.8951 O.2       1 SER1        0.0000 
     64 NZ          3.3717   43.2503  -41.7704 N.2       4 LYS4        0.0000 
     65 OG          2.0788   43.7745  -41.2194 O.2       1 SER1        0.0000 
     66 OD1         1.4168   43.5339  -42.5438 O.3       3 ASP3        0.0000 
     67 O           3.7211   44.1174  -33.6079 O.2       2 ALA2        0.0000 
     68 O           2.4282   44.6416  -33.0569 O.2       2 ALA2        0.0000 
     69 CA          1.1353   45.1659  -32.5060 C.3       6 GLY6        0.0000 
     70 CA         -0.1577   45.6901  -31.9550 C.3       6 GLY6        0.0000 
     71 OG          4.3521   43.3525  -35.4832 O.2       1 SER1        0.0000 
     72 CZ          6.3629   44.5920  -40.1114 C.ar      5 PHE5        0.0000 
     73 CZ          5.0700   45.1162  -39.5604 C.ar      5 PHE5        0.0000 
     74 CZ          3.7771   45.6405  -39.0095 C.ar      5 PHE5        0.0000 
     75 NZ          4.4081   44.8756  -40.8848 N.2       4 LYS4        0.0000 
     76 DU          3.1152   45.3998  -40.3338 H         7 CUB7        0.0000 
     77 NZ          3.7462   44.6349  -42.2091 N.2       4 LYS4        0.0000 
     78 CA          3.2286   39.1985  -34.1669 C.3       6 GLY6        0.0000 
     79 N           1.9357   39.7228  -33.6159 N.2       2 ALA2        0.0000 
     80 CA          0.6428   40.2470  -33.0650 C.3       6 GLY6        0.0000 
     81 CA          1.2738   39.4821  -34.9403 C.3       6 GLY6        0.0000 
     82 O          -0.0191   40.0064  -34.3893 O.2       2 ALA2        0.0000 
     83 CA          1.9048   38.7172  -36.8156 C.3       6 GLY6        0.0000 
     84 CA          1.2428   38.4766  -38.1400 C.3       6 GLY6        0.0000 
@<TRIPOS>BOND
@<TRIPOS>SUBSTRUCTURE
     1 SER1        1 GROUP   
     2 ALA2       11 GROUP   
     3 ASP3       66 GROUP   
     4 LYS4       16 GROUP   
     5 PHE5       50 GROUP   
     6 GLY6        3 GROUP   
     7 CUB7        2 GROUP   
@<TRIPOS>SET

