#    Name: 4gv8_DUP_6_INTS_M
#    Modification time : Mon Mar 24 23:50:42 2014

@<TRIPOS>MOLECULE
4gv8_DUP_6_INTS_M
   61     0    15     0     0
SMALL
NO_CHARGES


@<TRIPOS>ATOM
      1 CA          3.3570   38.5775  -36.0985 C.3       5 GLC5        0.0000 
      2 CA          2.7990   40.1950  -36.2120 C.3      15 GLL5        0.0000 
      3 CA          3.9150   36.9600  -35.9850 C.3      10 GLP5        0.0000 
      4 O           3.1020   41.2745  -32.9170 O.2       1 ALC1        0.0000 
      5 O           3.3870   41.3250  -34.2510 O.2      11 ALL1        0.0000 
      6 O           2.8170   41.2240  -31.5830 O.2       6 ALP1        0.0000 
      7 N           4.3025   43.5770  -32.7735 N.am      2 SEC2        0.0000 
      8 N           4.3140   43.5150  -34.3500 N.am     12 SEL2        0.0000 
      9 N           4.2910   43.6390  -31.1970 N.am      7 SEP2        0.0000 
     10 CA          5.0325   45.1430  -36.6895 C.3       5 GLC5        0.0000 
     11 CA          4.1330   43.5760  -37.1150 C.3      15 GLL5        0.0000 
     12 CA          5.9320   46.7100  -36.2640 C.3      10 GLP5        0.0000 
     13 CA          6.7615   44.4705  -37.3040 C.3       5 GLC5        0.0000 
     14 CA          5.5110   43.2690  -37.7200 C.3      15 GLL5        0.0000 
     15 CA          8.0120   45.6720  -36.8880 C.3      10 GLP5        0.0000 
     16 CA          6.8190   41.6585  -38.8005 C.3       5 GLC5        0.0000 
     17 CA          5.2630   43.0080  -39.1900 C.3      15 GLL5        0.0000 
     18 CA          8.3750   40.3090  -38.4110 C.3      10 GLP5        0.0000 
     19 CA          6.5515   44.5525  -38.7045 C.3       5 GLC5        0.0000 
     20 CA          7.8400   46.0970  -38.2190 C.3      10 GLP5        0.0000 
     21 N           7.6165   42.4465  -40.2135 N.am      2 SEC2        0.0000 
     22 N           6.4240   43.3300  -39.9810 N.am     12 SEL2        0.0000 
     23 N           8.8090   41.5630  -40.4460 N.am      7 SEP2        0.0000 
     24 O           6.3170   42.9635  -41.2845 O.2       1 ALC1        0.0000 
     25 O           6.4240   43.3300  -39.9810 O.2      11 ALL1        0.0000 
     26 O           6.2100   42.5970  -42.5880 O.2       6 ALP1        0.0000 
     27 CA          5.3395   45.3300  -38.9905 C.3       5 GLC5        0.0000 
     28 CA          3.9840   43.8210  -39.4550 C.3      15 GLL5        0.0000 
     29 CA          6.6950   46.8390  -38.5260 C.3      10 GLP5        0.0000 
     30 Zn          1.8795   41.6570  -43.7675 Zn        4 ZIC7        0.0000 
     31 Zn          2.2670   41.3790  -42.7700 Zn       14 ZIL7        0.0000 
     32 Zn          1.4920   41.9350  -44.7650 Zn        9 ZIP7        0.0000 
     33 N           0.2415   39.5610  -40.2635 N.am      2 SEC2        0.0000 
     34 N           1.5490   39.7500  -40.8440 N.am     12 SEL2        0.0000 
     35 N          -1.0660   39.3720  -39.6830 N.am      7 SEP2        0.0000 
     36 N           1.7030   38.5440  -41.7670 N.am      2 SEC2        0.0000 
     37 N           1.8570   37.3380  -42.6900 N.am      7 SEP2        0.0000 
     38 NZ         -1.7275   42.3610  -44.3860 N.4       3 LYC4        0.0000 
     39 NZ         -0.5690   42.1170  -43.5080 N.4      13 LYL4        0.0000 
     40 NZ         -3.3080   41.3470  -45.3240 N.4       8 LYP4        0.0000 
     41 Zn          0.4615   42.0260  -44.1365 Zn        4 ZIC7        0.0000 
     42 Zn         -0.5690   42.1170  -43.5080 Zn       14 ZIL7        0.0000 
     43 N          -1.5020   41.2350  -44.3080 N.am      2 SEC2        0.0000 
     44 N          -0.5690   42.1170  -43.5080 N.am     12 SEL2        0.0000 
     45 N          -2.4350   40.3530  -45.1080 N.am      7 SEP2        0.0000 
     46 N          -1.7275   42.3610  -44.3860 N.am      2 SEC2        0.0000 
     47 N          -2.8860   42.6050  -45.2640 N.am      7 SEP2        0.0000 
     48 N          -2.6245   42.0115  -40.4045 N.am      2 SEC2        0.0000 
     49 N          -2.1970   42.7340  -41.6190 N.am     12 SEL2        0.0000 
     50 N          -3.0520   41.2890  -39.1900 N.am      7 SEP2        0.0000 
     51 N           0.6885   45.2530  -45.6455 N.am      2 SEC2        0.0000 
     52 N          -0.2650   45.6240  -44.5150 N.am     12 SEL2        0.0000 
     53 N           1.6420   44.8820  -46.7760 N.am      7 SEP2        0.0000 
     54 Zn          1.5075   42.9250  -44.3495 Zn        4 ZIC7        0.0000 
     55 Zn          1.5230   43.9150  -43.9340 Zn       14 ZIL7        0.0000 
     56 CA          1.4405   40.7810  -37.2290 C.3       5 GLC5        0.0000 
     57 CA          3.2210   41.3150  -36.9440 C.3      15 GLL5        0.0000 
     58 CA         -0.1290   40.8070  -37.8800 C.3      10 GLP5        0.0000 
     59 CA          4.9365   40.5235  -36.1475 C.3       5 GLC5        0.0000 
     60 CA          6.8630   40.2920  -35.7170 C.3      10 GLP5        0.0000 
     61 CA          5.8425   41.8573  -36.5673 C.3       5 GLC5        0.0000 
@<TRIPOS>BOND
@<TRIPOS>SUBSTRUCTURE
     1 ALC1        4 GROUP        1 X    ALC  0     ROOT ALC X 1
     2 SEC2        7 GROUP        1 X    SEC  0     **** SEC X 2
     3 LYC4       38 GROUP        1 X    LYC  0     **** LYC X 4
     4 ZIC7       30 GROUP        1 X    ZIC  0     **** ZIC X 5
     5 GLC5        1 GROUP        1 X    GLC  0     **** GLC X 6
     6 ALP1        6 GROUP        1 Y    ALP  0     ROOT ALP Y 8
     7 SEP2        9 GROUP        1 Y    SEP  0     **** SEP Y 9
     8 LYP4       40 GROUP        1 Y    LYP  0     **** LYP Y 11
     9 ZIP7       32 GROUP        1 Y    ZIP  0     **** ZIP Y 12
    10 GLP5        3 GROUP        1 Y    GLP  0     **** GLP Y 13
    11 ALL1        5 GROUP        1 Z    ALL  0     ROOT ALL Z 15
    12 SEL2        8 GROUP        1 Z    SEL  0     **** SEL Z 16
    13 LYL4       39 GROUP        1 Z    LYL  0     **** LYL Z 18
    14 ZIL7       31 GROUP        1 Z    ZIL  0     **** ZIL Z 19
    15 GLL5        2 GROUP        1 Z    GLL  0     **** GLL Z 20
@<TRIPOS>SET

