#    Name: 4gv8_DUP_6_ligand
#    Modification time : Mon Mar 24 23:50:42 2014

@<TRIPOS>MOLECULE
4gv8_DUP_6_ligand
   39    40     1     0     0
SMALL
NO_CHARGES


@<TRIPOS>ATOM
      1 O4          2.5040   39.1660  -34.0420 O.2       1 DUP201      0.0000 
      2 C4          2.8900   40.2220  -34.8150 C.2       1 DUP201      0.0000 
      3 C5          2.7990   40.1950  -36.2120 C.2       1 DUP201      0.0000 
      4 C6          3.2210   41.3150  -36.9440 C.2       1 DUP201      0.0000 
      5 N3          3.3870   41.3250  -34.2510 N.am      1 DUP201      0.0000 
      6 C2          3.8140   42.4110  -34.9840 C.2       1 DUP201      0.0000 
      7 O2          4.3140   43.5150  -34.3500 O.2       1 DUP201      0.0000 
      8 N1          3.7030   42.4200  -36.3150 N.am      1 DUP201      0.0000 
      9 C1'         4.1330   43.5760  -37.1150 C.3       1 DUP201      0.0000 
     10 C2'         5.5110   43.2690  -37.7200 C.3       1 DUP201      0.0000 
     11 C3'         5.2630   43.0080  -39.1900 C.3       1 DUP201      0.0000 
     12 O3'         6.4240   43.3300  -39.9810 O.3       1 DUP201      0.0000 
     13 O4'         3.2290   43.8260  -38.2210 O.3       1 DUP201      0.0000 
     14 C4'         3.9840   43.8210  -39.4550 C.3       1 DUP201      0.0000 
     15 C5'         3.1180   43.2890  -40.5940 C.3       1 DUP201      0.0000 
     16 O5'         2.7440   41.9300  -40.3600 O.3       1 DUP201      0.0000 
     17 PA          1.7080   41.1790  -41.3580 P.3       1 DUP201      0.0000 
     18 O1A         2.2670   41.3790  -42.7700 O.co2     1 DUP201      0.0000 
     19 O2A         1.5490   39.7500  -40.8440 O.co2     1 DUP201      0.0000 
     20 N3A         0.2780   42.0500  -41.1110 N.4       1 DUP201      0.0000 
     21 PB         -0.7690   42.7780  -42.1890 P.3       1 DUP201      0.0000 
     22 O1B        -0.5690   42.1170  -43.5080 O.co2     1 DUP201      0.0000 
     23 O2B        -2.1970   42.7340  -41.6190 O.co2     1 DUP201      0.0000 
     24 O3B        -0.3350   44.3670  -42.2950 O.3       1 DUP201      0.0000 
     25 PG          0.6520   45.0540  -43.4390 P.3       1 DUP201      0.0000 
     26 O2G        -0.2650   45.6240  -44.5150 O.co2     1 DUP201      0.0000 
     27 O1G         1.5230   43.9150  -43.9340 O.co2     1 DUP201      0.0000 
     28 O3G         1.3750   46.0900  -42.6450 O.co2     1 DUP201      0.0000 
     29 H           2.4321   39.3751  -36.6908 H         1 DUP201      0.0000 
     30 H           3.1568   41.2811  -37.9795 H         1 DUP201      0.0000 
     31 H           3.4640   41.3860  -33.1964 H         1 DUP201      0.0000 
     32 H           4.2381   44.4452  -36.5011 H         1 DUP201      0.0000 
     33 H           5.9143   42.3966  -37.2537 H         1 DUP201      0.0000 
     34 H           6.1466   44.1191  -37.5987 H         1 DUP201      0.0000 
     35 H           4.9866   41.9554  -39.2655 H         1 DUP201      0.0000 
     36 H           4.2864   44.8406  -39.6917 H         1 DUP201      0.0000 
     37 H           3.6912   43.3965  -41.5281 H         1 DUP201      0.0000 
     38 H           2.2362   43.9434  -40.6773 H         1 DUP201      0.0000 
     39 H           6.1992   43.0250  -40.9064 H         1 DUP201      0.0000 
@<TRIPOS>BOND
     1    2    1 2    
     2    3    2 1    
     3    5    2 1    
     4    4    3 2    
     5   29    3 1    
     6    8    4 1    
     7   30    4 1    
     8    6    5 1    
     9   31    5 1    
    10    7    6 2    
    11    8    6 1    
    12    9    8 1    
    13   10    9 1    
    14   13    9 1    
    15   32    9 1    
    16   11   10 1    
    17   33   10 1    
    18   34   10 1    
    19   12   11 1    
    20   14   11 1    
    21   35   11 1    
    22   39   12 1    
    23   14   13 1    
    24   15   14 1    
    25   36   14 1    
    26   16   15 1    
    27   37   15 1    
    28   38   15 1    
    29   17   16 1    
    30   18   17 ar   
    31   19   17 ar   
    32   20   17 1    
    33   21   20 1    
    34   22   21 ar   
    35   23   21 ar   
    36   24   21 1    
    37   25   24 1    
    38   26   25 ar   
    39   27   25 ar   
    40   28   25 ar   
@<TRIPOS>SUBSTRUCTURE
     1 DUP201      1 GROUP   
@<TRIPOS>SET

