#    Name: 2b00_GCH_1_INTS_M
#    Modification time : Mon Mar 24 19:45:47 2014

@<TRIPOS>MOLECULE
2b00_GCH_1_INTS_M
   77     0     6     0     0
SMALL
NO_CHARGES


@<TRIPOS>ATOM
      1 O          38.9115   16.2410   11.5360 O.2       1 ALC1        0.0000 
      2 O          38.5790   17.7080   11.3100 O.2       5 ALL1        0.0000 
      3 O          39.2440   14.7740   11.7620 O.2       3 ALP1        0.0000 
      4 CA         36.7755   15.8895   11.7070 C.3       2 GLC5        0.0000 
      5 CA         36.7070   17.7040   12.9090 C.3       6 GLL5        0.0000 
      6 CA         36.8440   14.0750   10.5050 C.3       4 GLP5        0.0000 
      7 CA         39.7575   20.0565   16.0800 C.3       2 GLC5        0.0000 
      8 CA         38.5640   19.1230   14.8890 C.3       6 GLL5        0.0000 
      9 CA         40.9510   20.9900   17.2710 C.3       4 GLP5        0.0000 
     10 CA         40.8605   18.0300   12.6070 C.3       2 GLC5        0.0000 
     11 CA         39.1520   18.3470   13.6090 C.3       6 GLL5        0.0000 
     12 CA         42.5690   17.7130   11.6050 C.3       4 GLP5        0.0000 
     13 CA         38.8830   20.1965   16.9645 C.3       2 GLC5        0.0000 
     14 CA         36.8150   19.4030   16.6580 C.3       6 GLL5        0.0000 
     15 CA         34.8665   19.4065   17.5270 C.3       2 GLC5        0.0000 
     16 CA         32.9180   19.4100   18.3960 C.3       4 GLP5        0.0000 
     17 CA         36.1205   19.1815   18.6420 C.3       2 GLC5        0.0000 
     18 CA         35.4260   18.9600   20.6260 C.3       4 GLP5        0.0000 
     19 O          34.1190   15.2880   13.5300 O.2       1 ALC1        0.0000 
     20 O          35.2910   15.2060   14.2320 O.2       5 ALL1        0.0000 
     21 O          32.9470   15.3700   12.8280 O.2       3 ALP1        0.0000 
     22 CA         34.6375   17.0530   17.6070 C.3       2 GLC5        0.0000 
     23 CA         36.0630   16.1450   16.4400 C.3       6 GLL5        0.0000 
     24 CA         33.2120   17.9610   18.7740 C.3       4 GLP5        0.0000 
     25 CA         33.2970   14.2445   18.0710 C.3       2 GLC5        0.0000 
     26 CA         34.9450   13.8730   17.5250 C.3       6 GLL5        0.0000 
     27 CA         31.6490   14.6160   18.6170 C.3       4 GLP5        0.0000 
     28 CA         33.5780   12.6095   19.2260 C.3       2 GLC5        0.0000 
     29 CA         35.6150   12.7510   18.5020 C.3       6 GLL5        0.0000 
     30 CA         31.5410   12.4680   19.9500 C.3       4 GLP5        0.0000 
     31 CA         35.3440   12.7230   20.5045 C.3       2 GLC5        0.0000 
     32 CA         35.0730   12.6950   22.5070 C.3       4 GLP5        0.0000 
     33 CA         34.6050   11.0965   19.0010 C.3       2 GLC5        0.0000 
     34 CA         33.5950    9.4420   19.5000 C.3       4 GLP5        0.0000 
     35 CA         41.3935   13.2725   18.6695 C.3       2 GLC5        0.0000 
     36 CA         39.7760   12.5300   19.6080 C.3       6 GLL5        0.0000 
     37 CA         43.0110   14.0150   17.7310 C.3       4 GLP5        0.0000 
     38 CA         41.3225   12.1440   20.5180 C.3       2 GLC5        0.0000 
     39 CA         42.8690   11.7580   21.4280 C.3       4 GLP5        0.0000 
     40 CA         40.3175   13.7795   21.0885 C.3       2 GLC5        0.0000 
     41 CA         40.8590   15.0290   22.5690 C.3       4 GLP5        0.0000 
     42 CA         36.3530    9.3975   17.2910 C.3       2 GLC5        0.0000 
     43 CA         37.8980    9.6740   18.6850 C.3       6 GLL5        0.0000 
     44 CA         34.8080    9.1210   15.8970 C.3       4 GLP5        0.0000 
     45 CA         36.4595    7.3505   21.6890 C.3       2 GLC5        0.0000 
     46 CA         37.7330    6.3600   20.5910 C.3       6 GLL5        0.0000 
     47 CA         35.1860    8.3410   22.7870 C.3       4 GLP5        0.0000 
     48 CA         35.4175   16.5805   19.9610 C.3       2 GLC5        0.0000 
     49 CA         37.0300   15.4230   19.4360 C.3       6 GLL5        0.0000 
     50 CA         33.8050   17.7380   20.4860 C.3       4 GLP5        0.0000 
     51 CA         36.8610   14.9750   21.2565 C.3       2 GLC5        0.0000 
     52 CA         36.6920   14.5270   23.0770 C.3       4 GLP5        0.0000 
     53 CA         36.2280   17.1915   20.0310 C.3       2 GLC5        0.0000 
     54 CA         38.0680   16.9725   20.0950 C.3       2 GLC5        0.0000 
     55 CA         39.1060   18.5220   20.7540 C.3       4 GLP5        0.0000 
     56 CA         39.5470   20.1245   12.4230 C.3       2 GLC5        0.0000 
     57 CA         40.4830   21.8760   11.8070 C.3       4 GLP5        0.0000 
     58 CA         33.9818   19.4258   14.6847 C.3       2 GLC5        0.0000 
     59 CA         36.0790   18.4150   14.2250 C.3       6 GLL5        0.0000 
     60 CA         32.5710   20.7890   14.8880 C.3       4 GLP5        0.0000 
     61 CA         32.7893   16.5365   14.7153 C.3       2 GLC5        0.0000 
     62 CA         34.7060   17.7100   14.7380 C.3       6 GLL5        0.0000 
     63 CA         30.7600   16.1100   14.4290 C.3       4 GLP5        0.0000 
     64 CA         34.0153   17.4620   16.8878 C.3       2 GLC5        0.0000 
     65 CA         34.9310   16.2160   15.2650 C.3       6 GLL5        0.0000 
     66 CA         40.4017   16.3867   17.1340 C.3       2 GLC5        0.0000 
     67 CA         38.6380   16.6730   17.1240 C.3       6 GLL5        0.0000 
     68 CA         42.1070   16.8820   16.9960 C.3       4 GLP5        0.0000 
     69 CA         39.4297   16.8758   18.7025 C.3       2 GLC5        0.0000 
     70 CA         40.1630   17.8600   20.1330 C.3       4 GLP5        0.0000 
     71 CA         36.5888   12.1520   21.1028 C.3       2 GLC5        0.0000 
     72 CA         38.2210   12.3950   19.5950 C.3       6 GLL5        0.0000 
     73 CA         36.1255    9.8543   19.9692 C.3       2 GLC5        0.0000 
     74 CA         37.9880   10.8230   19.8020 C.3       6 GLL5        0.0000 
     75 CA         34.3080    9.4600   20.6950 C.3       4 GLP5        0.0000 
     76 CA         35.9928   12.4107   16.2074 C.3       2 GLC5        0.0000 
     77 CA         35.9680   11.2900   14.5930 C.3       4 GLP5        0.0000 
@<TRIPOS>BOND
@<TRIPOS>SUBSTRUCTURE
     1 ALC1        1 GROUP        1 X    ALC  0     ROOT ALC X 1
     2 GLC5        4 GROUP        1 X    GLC  0     **** GLC X 6
     3 ALP1        3 GROUP        1 Y    ALP  0     ROOT ALP Y 8
     4 GLP5        6 GROUP        1 Y    GLP  0     **** GLP Y 13
     5 ALL1        2 GROUP        1 Z    ALL  0     ROOT ALL Z 15
     6 GLL5        5 GROUP        1 Z    GLL  0     **** GLL Z 20
@<TRIPOS>SET

