#    Name: 2b00_GCH_1_ligand
#    Modification time : Mon Mar 24 19:45:47 2014

@<TRIPOS>MOLECULE
2b00_GCH_1_ligand
   75    78     1     0     0
SMALL
NO_CHARGES


@<TRIPOS>ATOM
      1 C          38.0700   18.3990   12.4690 C.3       1 GCH254      0.0000 
      2 O          38.5790   17.7080   11.3100 O.3       1 GCH254      0.0000 
      3 C1         36.7070   17.7040   12.9090 C.3       1 GCH254      0.0000 
      4 C2         36.0790   18.4150   14.2250 C.3       1 GCH254      0.0000 
      5 C3         37.2240   18.4030   15.4420 C.3       1 GCH254      0.0000 
      6 C4         38.5640   19.1230   14.8890 C.3       1 GCH254      0.0000 
      7 C5         39.1520   18.3470   13.6090 C.3       1 GCH254      0.0000 
      8 C6         36.8150   19.4030   16.6580 C.3       1 GCH254      0.0000 
      9 C7         34.7060   17.7100   14.7380 C.3       1 GCH254      0.0000 
     10 C8         34.9310   16.2160   15.2650 C.3       1 GCH254      0.0000 
     11 O1         35.2910   15.2060   14.2320 O.3       1 GCH254      0.0000 
     12 C9         36.0630   16.1450   16.4400 C.3       1 GCH254      0.0000 
     13 C10        37.4920   16.7970   15.8880 C.3       1 GCH254      0.0000 
     14 C11        38.6380   16.6730   17.1240 C.3       1 GCH254      0.0000 
     15 C12        38.7550   15.1100   17.4200 C.3       1 GCH254      0.0000 
     16 C13        37.3150   14.4460   18.0640 C.3       1 GCH254      0.0000 
     17 C14        36.2600   14.5620   16.9240 C.3       1 GCH254      0.0000 
     18 C15        34.9450   13.8730   17.5250 C.3       1 GCH254      0.0000 
     19 C16        35.6150   12.7510   18.5020 C.3       1 GCH254      0.0000 
     20 C17        37.2500   12.9400   18.3360 C.3       1 GCH254      0.0000 
     21 C18        38.2210   12.3950   19.5950 C.3       1 GCH254      0.0000 
     22 C19        39.7760   12.5300   19.6080 C.3       1 GCH254      0.0000 
     23 C20        37.9880   10.8230   19.8020 C.3       1 GCH254      0.0000 
     24 C21        37.8980    9.6740   18.6850 C.3       1 GCH254      0.0000 
     25 C22        37.6600    8.2790   19.0590 C.2       1 GCH254      0.0000 
     26 N          37.9730    7.7790   20.1940 N.am      1 GCH254      0.0000 
     27 CA         37.7330    6.3600   20.5910 C.3       1 GCH254      0.0000 
     28 O2         37.0540    7.5580   18.0600 O.2       1 GCH254      0.0000 
     29 C23        37.0300   15.4230   19.4360 C.3       1 GCH254      0.0000 
     30 O3         39.1840   14.3740   16.2040 O.3       1 GCH254      0.0000 
     31 C24        38.3340    5.9550   21.8930 C.2       1 GCH254      0.0000 
     32 O4         37.9670    6.5580   22.9320 O.co2     1 GCH254      0.0000 
     33 O5         39.1870    5.0250   21.9190 O.co2     1 GCH254      0.0000 
     34 H          37.8565   19.4235   12.2528 H         1 GCH254      0.0000 
     35 H          36.8970   16.6742   13.1474 H         1 GCH254      0.0000 
     36 H          35.9926   17.7921   12.1119 H         1 GCH254      0.0000 
     37 H          35.8848   19.4363   14.0034 H         1 GCH254      0.0000 
     38 H          39.2998   19.1098   15.6678 H         1 GCH254      0.0000 
     39 H          38.3142   20.1240   14.6001 H         1 GCH254      0.0000 
     40 H          40.0326   18.8506   13.2900 H         1 GCH254      0.0000 
     41 H          39.3318   17.3362   13.8861 H         1 GCH254      0.0000 
     42 H          34.0147   17.6883   13.9089 H         1 GCH254      0.0000 
     43 H          34.3067   18.3086   15.5429 H         1 GCH254      0.0000 
     44 H          33.9996   15.9039   15.7702 H         1 GCH254      0.0000 
     45 H          35.7348   16.7054   17.2636 H         1 GCH254      0.0000 
     46 H          37.8139   16.2610   15.0712 H         1 GCH254      0.0000 
     47 H          38.2435   17.1710   17.9477 H         1 GCH254      0.0000 
     48 H          39.5326   17.0386   16.7391 H         1 GCH254      0.0000 
     49 H          39.4895   14.9816   18.2180 H         1 GCH254      0.0000 
     50 H          36.5899   13.9930   16.0929 H         1 GCH254      0.0000 
     51 H          34.4377   13.3864   16.7742 H         1 GCH254      0.0000 
     52 H          34.4385   14.5503   18.1103 H         1 GCH254      0.0000 
     53 H          35.3616   11.8025   18.1535 H         1 GCH254      0.0000 
     54 H          35.3627   12.9665   19.4895 H         1 GCH254      0.0000 
     55 H          37.5113   12.4196   17.4351 H         1 GCH254      0.0000 
     56 H          37.8209   12.8389   20.5224 H         1 GCH254      0.0000 
     57 H          37.0358   10.7179   20.4520 H         1 GCH254      0.0000 
     58 H          38.7872   10.4729   20.5629 H         1 GCH254      0.0000 
     59 H          38.8553    9.7679   18.0834 H         1 GCH254      0.0000 
     60 H          37.1078   10.0312   17.9533 H         1 GCH254      0.0000 
     61 H          38.4410    8.3444   20.9678 H         1 GCH254      0.0000 
     62 H          38.1183    5.6888   19.7874 H         1 GCH254      0.0000 
     63 H          36.6334    6.1739   20.6237 H         1 GCH254      0.0000 
     64 H          37.4966   19.3962   17.3897 H         1 GCH254      0.0000 
     65 H          36.7281   20.3495   16.3472 H         1 GCH254      0.0000 
     66 H          35.9402   19.1483   17.0700 H         1 GCH254      0.0000 
     67 H          40.1752   12.1462   20.4407 H         1 GCH254      0.0000 
     68 H          40.1965   12.0546   18.8353 H         1 GCH254      0.0000 
     69 H          40.0663   13.4856   19.5573 H         1 GCH254      0.0000 
     70 H          37.7754   15.3582   20.0994 H         1 GCH254      0.0000 
     71 H          36.9380   16.3884   19.1919 H         1 GCH254      0.0000 
     72 H          36.1907   15.1597   19.9116 H         1 GCH254      0.0000 
     73 H          38.6703   16.7544   11.5967 H         1 GCH254      0.0000 
     74 H          34.7792   15.4763   13.4166 H         1 GCH254      0.0000 
     75 H          38.4026   14.4243   15.5820 H         1 GCH254      0.0000 
@<TRIPOS>BOND
     1    2    1 1    
     2    3    1 1    
     3    7    1 1    
     4   34    1 1    
     5   73    2 1    
     6    4    3 1    
     7   35    3 1    
     8   36    3 1    
     9    5    4 1    
    10    9    4 1    
    11   37    4 1    
    12    6    5 1    
    13    8    5 1    
    14   13    5 1    
    15    7    6 1    
    16   38    6 1    
    17   39    6 1    
    18   40    7 1    
    19   41    7 1    
    20   64    8 1    
    21   65    8 1    
    22   66    8 1    
    23   10    9 1    
    24   42    9 1    
    25   43    9 1    
    26   11   10 1    
    27   12   10 1    
    28   44   10 1    
    29   74   11 1    
    30   13   12 1    
    31   17   12 1    
    32   45   12 1    
    33   14   13 1    
    34   46   13 1    
    35   15   14 1    
    36   47   14 1    
    37   48   14 1    
    38   16   15 1    
    39   30   15 1    
    40   49   15 1    
    41   17   16 1    
    42   20   16 1    
    43   29   16 1    
    44   18   17 1    
    45   50   17 1    
    46   19   18 1    
    47   51   18 1    
    48   52   18 1    
    49   20   19 1    
    50   53   19 1    
    51   54   19 1    
    52   21   20 1    
    53   55   20 1    
    54   22   21 1    
    55   23   21 1    
    56   56   21 1    
    57   67   22 1    
    58   68   22 1    
    59   69   22 1    
    60   24   23 1    
    61   57   23 1    
    62   58   23 1    
    63   25   24 1    
    64   59   24 1    
    65   60   24 1    
    66   26   25 am   
    67   28   25 2    
    68   27   26 1    
    69   61   26 1    
    70   31   27 1    
    71   62   27 1    
    72   63   27 1    
    73   70   29 1    
    74   71   29 1    
    75   72   29 1    
    76   75   30 1    
    77   32   31 ar   
    78   33   31 ar   
@<TRIPOS>SUBSTRUCTURE
     1 GCH254      1 GROUP   
@<TRIPOS>SET

