#    Name: 3R3O_1_CAVITY_N1_ALL.mol2
#    Modification time : Mon Mar 10 19:17:44 2014

@<TRIPOS>MOLECULE
3R3O_1_CAVITY_N1_ALL.mol2
   83     0     5     0     0
SMALL
NO_CHARGES


@<TRIPOS>ATOM
      1 OG         21.4175   -1.6400    0.7800 O.2       1 SER1        0.0000 
      2 CA         20.0204   -0.7964   -0.5751 C.3       4 GLY6        0.0000 
      3 CA         19.5498   -1.1320   -1.9593 C.3       4 GLY6        0.0000 
      4 CA         20.0059   -2.6469   -3.3725 C.3       4 GLY6        0.0000 
      5 CA         19.0793   -1.4676   -3.3434 C.3       4 GLY6        0.0000 
      6 CZ         20.3358   -2.5041    1.3573 C.ar      3 PHE5        0.0000 
      7 DU         19.4093   -1.3249    1.3863 H         5 CUB7        0.0000 
      8 CZ         19.8653   -2.8397   -0.0269 C.ar      3 PHE5        0.0000 
      9 DU         18.9387   -1.6605    0.0022 H         5 CUB7        0.0000 
     10 CZ         18.0121   -0.4813    0.0312 C.ar      3 PHE5        0.0000 
     11 CA         19.3948   -3.1754   -1.4111 C.3       4 GLY6        0.0000 
     12 OG         18.4682   -1.9962   -1.3820 O.2       1 SER1        0.0000 
     13 OG         17.5416   -0.8169   -1.3530 O.2       1 SER1        0.0000 
     14 CA         18.9242   -3.5110   -2.7952 C.3       4 GLY6        0.0000 
     15 OG         17.9976   -2.3318   -2.7662 O.2       1 SER1        0.0000 
     16 CA         18.4537   -3.8466   -4.1794 C.3       4 GLY6        0.0000 
     17 OG         17.5271   -2.6674   -4.1504 O.2       1 SER1        0.0000 
     18 O          17.0565   -3.0031   -5.5345 O.2       2 ALA2        0.0000 
     19 O          16.5860   -3.3387   -6.9187 O.2       2 ALA2        0.0000 
     20 CZ         15.6594   -2.1595   -6.8897 C.ar      3 PHE5        0.0000 
     21 O          20.6513   -4.2119    3.2896 O.2       2 ALA2        0.0000 
     22 O          19.7247   -3.0326    3.3187 O.2       2 ALA2        0.0000 
     23 OG         18.7981   -1.8534    3.3478 O.2       1 SER1        0.0000 
     24 O          19.2542   -3.3683    1.9345 O.2       2 ALA2        0.0000 
     25 O          18.3276   -2.1890    1.9636 O.2       2 ALA2        0.0000 
     26 CZ         17.4010   -1.0098    1.9926 C.ar      3 PHE5        0.0000 
     27 O          17.8570   -2.5247    0.5794 O.2       2 ALA2        0.0000 
     28 CZ         16.9304   -1.3455    0.6085 C.ar      3 PHE5        0.0000 
     29 O          18.3131   -4.0395   -0.8338 O.2       2 ALA2        0.0000 
     30 DU         17.3865   -2.8603   -0.8048 H         5 CUB7        0.0000 
     31 CZ         16.4599   -1.6811   -0.7757 C.ar      3 PHE5        0.0000 
     32 CA         17.8426   -4.3752   -2.2180 C.3       4 GLY6        0.0000 
     33 OG         16.9160   -3.1959   -2.1890 O.2       1 SER1        0.0000 
     34 CA         17.3720   -4.7108   -3.6022 C.3       4 GLY6        0.0000 
     35 CZ         16.4454   -3.5316   -3.5731 C.ar      3 PHE5        0.0000 
     36 O          15.9749   -3.8672   -4.9573 O.2       2 ALA2        0.0000 
     37 O          15.5043   -4.2029   -6.3415 O.2       2 ALA2        0.0000 
     38 CZ         14.5777   -3.0236   -6.3124 C.ar      3 PHE5        0.0000 
     39 O          15.0338   -4.5385   -7.7257 O.2       2 ALA2        0.0000 
     40 CA         14.1072   -3.3593   -7.6966 C.3       4 GLY6        0.0000 
     41 CA         14.5633   -4.8741   -9.1098 C.3       4 GLY6        0.0000 
     42 DU         13.6367   -3.6949   -9.0808 H         5 CUB7        0.0000 
     43 CA         12.7101   -2.5157   -9.0517 C.3       4 GLY6        0.0000 
     44 O          18.6430   -3.8968    3.8959 O.2       2 ALA2        0.0000 
     45 O          17.7165   -2.7176    3.9250 O.2       2 ALA2        0.0000 
     46 O          17.2459   -3.0532    2.5408 O.2       2 ALA2        0.0000 
     47 CZ         16.3193   -1.8740    2.5699 C.ar      3 PHE5        0.0000 
     48 O          16.7754   -3.3888    1.1566 O.2       2 ALA2        0.0000 
     49 CZ         15.8488   -2.2096    1.1857 C.ar      3 PHE5        0.0000 
     50 O          17.2314   -4.9037   -0.2566 O.2       2 ALA2        0.0000 
     51 O          16.3048   -3.7245   -0.2275 O.2       2 ALA2        0.0000 
     52 CZ         15.3782   -2.5452   -0.1985 C.ar      3 PHE5        0.0000 
     53 CA         16.7609   -5.2393   -1.6408 C.3       4 GLY6        0.0000 
     54 CZ         15.8343   -4.0601   -1.6117 C.ar      3 PHE5        0.0000 
     55 CZ         14.9077   -2.8809   -1.5827 C.ar      3 PHE5        0.0000 
     56 CA         16.2903   -5.5750   -3.0249 C.3       4 GLY6        0.0000 
     57 CZ         15.3637   -4.3957   -2.9959 C.ar      3 PHE5        0.0000 
     58 CA         14.8932   -4.7314   -4.3801 C.3       4 GLY6        0.0000 
     59 CA         14.4227   -5.0670   -5.7642 C.3       4 GLY6        0.0000 
     60 CZ         13.4961   -3.8878   -5.7352 C.ar      3 PHE5        0.0000 
     61 CA         13.9521   -5.4026   -7.1484 C.3       4 GLY6        0.0000 
     62 CA         13.0255   -4.2234   -7.1194 C.3       4 GLY6        0.0000 
     63 O          12.5550   -4.5591   -8.5035 O.2       2 ALA2        0.0000 
     64 O          15.6937   -4.2530    1.7339 O.2       2 ALA2        0.0000 
     65 O          14.7671   -3.0738    1.7629 O.2       2 ALA2        0.0000 
     66 CA         16.1498   -5.7679    0.3207 C.3       4 GLY6        0.0000 
     67 CA         15.2232   -4.5886    0.3497 C.3       4 GLY6        0.0000 
     68 CZ         14.2966   -3.4094    0.3788 C.ar      3 PHE5        0.0000 
     69 CA         14.7526   -4.9243   -1.0345 C.3       4 GLY6        0.0000 
     70 CA         13.8260   -3.7450   -1.0054 C.3       4 GLY6        0.0000 
     71 CA         14.2821   -5.2599   -2.4186 C.3       4 GLY6        0.0000 
     72 CZ         13.3555   -4.0807   -2.3896 C.ar      3 PHE5        0.0000 
     73 CA         13.8115   -5.5955   -3.8028 C.3       4 GLY6        0.0000 
     74 CZ         12.8849   -4.4163   -3.7738 C.ar      3 PHE5        0.0000 
     75 O          12.4144   -4.7519   -5.1579 O.2       2 ALA2        0.0000 
     76 CZ         11.4878   -3.5727   -5.1289 C.ar      3 PHE5        0.0000 
     77 CA         14.1415   -5.4528    0.9270 C.3       4 GLY6        0.0000 
     78 O          13.2149   -4.2736    0.9560 O.2       2 ALA2        0.0000 
     79 CA         13.6709   -5.7884   -0.4572 C.3       4 GLY6        0.0000 
     80 CA         12.7444   -4.6092   -0.4282 C.3       4 GLY6        0.0000 
     81 CA         13.2004   -6.1241   -1.8414 C.3       4 GLY6        0.0000 
     82 CA         12.2738   -4.9448   -1.8123 C.3       4 GLY6        0.0000 
     83 N          10.8767   -4.1012   -3.1675 N.2       2 ALA2        0.0000 
@<TRIPOS>BOND
@<TRIPOS>SUBSTRUCTURE
     1 SER1        1 GROUP   
     2 ALA2       18 GROUP   
     3 PHE5        6 GROUP   
     4 GLY6        2 GROUP   
     5 CUB7        7 GROUP   
@<TRIPOS>SET

