#    Name: 3r3o_THP_1_INTS_M
#    Modification time : Mon Apr  7 19:55:19 2014

@<TRIPOS>MOLECULE
3r3o_THP_1_INTS_M
   51     0     9     0     0
SMALL
NO_CHARGES


@<TRIPOS>ATOM
      1 NZ         15.5500   -3.0970    4.7535 N.4       2 LYC4        0.0000 
      2 NZ         16.8040   -2.4990    5.1690 N.4       8 LYL4        0.0000 
      3 NZ         14.3040   -4.9880    4.0400 N.4       5 LYP4        0.0000 
      4 N          15.5500   -3.0970    4.7535 N.am      1 SEC2        0.0000 
      5 N          16.8040   -2.4990    5.1690 N.am      7 SEL2        0.0000 
      6 N          14.2960   -3.6950    4.3380 N.am      4 SEP2        0.0000 
      7 NZ         16.7495   -5.1910    4.4945 N.4       2 LYC4        0.0000 
      8 NZ         18.0330   -4.7550    5.0350 N.4       8 LYL4        0.0000 
      9 NZ         18.6160   -5.8145    4.3765 N.4       2 LYC4        0.0000 
     10 NZ         19.1960   -6.8910    2.3830 N.4       5 LYP4        0.0000 
     11 N          16.7495   -5.1910    4.4945 N.am      1 SEC2        0.0000 
     12 N          18.0330   -4.7550    5.0350 N.am      7 SEL2        0.0000 
     13 N          15.4660   -5.6270    3.9540 N.am      4 SEP2        0.0000 
     14 N          17.6725   -5.0410    6.1750 N.am      1 SEC2        0.0000 
     15 N          17.3120   -5.3270    7.3150 N.am      4 SEP2        0.0000 
     16 N          18.6160   -5.8145    4.3765 N.am      1 SEC2        0.0000 
     17 N          19.1990   -6.8740    3.7180 N.am      4 SEP2        0.0000 
     18 N          22.9865   -1.4755    1.1090 N.am      1 SEC2        0.0000 
     19 N          21.9230   -0.8730    1.5590 N.am      7 SEL2        0.0000 
     20 N          24.0500   -2.0780    0.6590 N.am      4 SEP2        0.0000 
     21 NZ         22.6135    0.2515   -1.3865 N.4       2 LYC4        0.0000 
     22 NZ         22.3210    0.8980   -0.1670 N.4       8 LYL4        0.0000 
     23 NZ         22.9060   -0.3950   -2.6060 N.4       5 LYP4        0.0000 
     24 N          22.6135    0.2515   -1.3865 N.am      1 SEC2        0.0000 
     25 N          22.3210    0.8980   -0.1670 N.am      7 SEL2        0.0000 
     26 N          22.9060   -0.3950   -2.6060 N.am      4 SEP2        0.0000 
     27 N          18.3545   -4.5285    2.3560 N.am      1 SEC2        0.0000 
     28 N          17.9770   -3.2060    3.0400 N.am      7 SEL2        0.0000 
     29 N          18.7320   -5.8510    1.6720 N.am      4 SEP2        0.0000 
     30 CA         16.6915   -0.6500    2.4370 C.3       3 GLC5        0.0000 
     31 CA         17.9800   -1.9020    2.4720 C.3       9 GLL5        0.0000 
     32 CA         15.4030    0.6020    2.4020 C.3       6 GLP5        0.0000 
     33 CA         20.8070   -2.9795    0.9015 C.3       3 GLC5        0.0000 
     34 CA         18.9740   -1.9580    1.3020 C.3       9 GLL5        0.0000 
     35 CA         22.6400   -4.0010    0.5010 C.3       6 GLP5        0.0000 
     36 CA         14.3590   -2.7075   -2.0845 C.3       3 GLC5        0.0000 
     37 CA         14.7880   -4.2320   -0.6850 C.3       9 GLL5        0.0000 
     38 CA         13.9300   -1.1830   -3.4840 C.3       6 GLP5        0.0000 
     39 CA         15.1840   -1.7615   -0.0170 C.3       3 GLC5        0.0000 
     40 CA         15.9820   -3.6940   -0.2950 C.3       9 GLL5        0.0000 
     41 CA         14.3860    0.1710    0.2610 C.3       6 GLP5        0.0000 
     42 CA         16.9181   -0.2644    0.5435 C.3       3 GLC5        0.0000 
     43 CA         18.9010   -0.7290    0.3500 C.3       9 GLL5        0.0000 
     44 CA         15.4200    0.7580    1.0290 C.3       6 GLP5        0.0000 
     45 CA         14.8662   -5.9110    1.0035 C.3       3 GLC5        0.0000 
     46 CA         15.4780   -7.4350    2.1810 C.3       6 GLP5        0.0000 
     47 CA         14.6898   -6.2735   -1.0060 C.3       3 GLC5        0.0000 
     48 CA         13.7210   -4.5420    0.3370 C.3       9 GLL5        0.0000 
     49 CA         15.1250   -8.1600   -1.8380 C.3       6 GLP5        0.0000 
     50 CA         13.2363   -2.7575   -0.0645 C.3       3 GLC5        0.0000 
     51 CA         12.2180   -1.1280    0.0450 C.3       6 GLP5        0.0000 
@<TRIPOS>BOND
@<TRIPOS>SUBSTRUCTURE
     1 SEC2        4 GROUP        1 X    SEC  0     ROOT SEC X 2
     2 LYC4        1 GROUP        1 X    LYC  0     **** LYC X 4
     3 GLC5       30 GROUP        1 X    GLC  0     **** GLC X 6
     4 SEP2        6 GROUP        1 Y    SEP  0     ROOT SEP Y 9
     5 LYP4        3 GROUP        1 Y    LYP  0     **** LYP Y 11
     6 GLP5       32 GROUP        1 Y    GLP  0     **** GLP Y 13
     7 SEL2        5 GROUP        1 Z    SEL  0     ROOT SEL Z 16
     8 LYL4        2 GROUP        1 Z    LYL  0     **** LYL Z 18
     9 GLL5       31 GROUP        1 Z    GLL  0     **** GLL Z 20
@<TRIPOS>SET

