#    Name: 3r3o_THP_1_ligand
#    Modification time : Mon Apr  7 19:55:19 2014

@<TRIPOS>MOLECULE
3r3o_THP_1_ligand
   37    38     1     0     0
SMALL
NO_CHARGES


@<TRIPOS>ATOM
      1 P2         18.0210   -3.2010    4.6370 P.3       1 THP151      0.0000 
      2 O4P        16.8040   -2.4990    5.1690 O.co2     1 THP151      0.0000 
      3 O5P        18.0330   -4.7550    5.0350 O.co2     1 THP151      0.0000 
      4 O6P        19.3330   -2.4620    5.1620 O.co2     1 THP151      0.0000 
      5 P1         21.2380    0.1750    0.7520 P.3       1 THP151      0.0000 
      6 O1P        21.9230   -0.8730    1.5590 O.co2     1 THP151      0.0000 
      7 O2P        22.3210    0.8980   -0.1670 O.co2     1 THP151      0.0000 
      8 O3P        20.6190    1.2140    1.8000 O.co2     1 THP151      0.0000 
      9 O5'        17.9770   -3.2060    3.0400 O.3       1 THP151      0.0000 
     10 C5'        17.9800   -1.9020    2.4720 C.3       1 THP151      0.0000 
     11 C4'        18.9740   -1.9580    1.3020 C.3       1 THP151      0.0000 
     12 O4'        18.6620   -3.1070    0.4900 O.3       1 THP151      0.0000 
     13 C3'        18.9010   -0.7290    0.3500 C.3       1 THP151      0.0000 
     14 O3'        20.1740   -0.4560   -0.3020 O.3       1 THP151      0.0000 
     15 C2'        17.8950   -1.2300   -0.7100 C.3       1 THP151      0.0000 
     16 C1'        18.2140   -2.7480   -0.8140 C.3       1 THP151      0.0000 
     17 N1         16.9660   -3.4100   -1.2140 N.am      1 THP151      0.0000 
     18 C2         16.7120   -3.5920   -2.5400 C.2       1 THP151      0.0000 
     19 O2         17.5670   -3.3330   -3.3890 O.2       1 THP151      0.0000 
     20 N3         15.5560   -4.1550   -2.9490 N.am      1 THP151      0.0000 
     21 C4         14.5590   -4.4310   -2.0670 C.2       1 THP151      0.0000 
     22 O4         13.5060   -4.8890   -2.4880 O.2       1 THP151      0.0000 
     23 C5         14.7880   -4.2320   -0.6850 C.2       1 THP151      0.0000 
     24 C5M        13.7210   -4.5420    0.3370 C.3       1 THP151      0.0000 
     25 C6         15.9820   -3.6940   -0.2950 C.2       1 THP151      0.0000 
     26 H          18.3282   -1.1506    3.1655 H         1 THP151      0.0000 
     27 H          17.0156   -1.6234    2.0730 H         1 THP151      0.0000 
     28 H          19.9718   -2.0294    1.6813 H         1 THP151      0.0000 
     29 H          18.4811    0.0705    0.8548 H         1 THP151      0.0000 
     30 H          18.0911   -0.7669   -1.6354 H         1 THP151      0.0000 
     31 H          16.9110   -1.1024   -0.3568 H         1 THP151      0.0000 
     32 H          18.9673   -2.8490   -1.5490 H         1 THP151      0.0000 
     33 H          15.4201   -4.3850   -3.9622 H         1 THP151      0.0000 
     34 H          16.1541   -3.4942    0.7129 H         1 THP151      0.0000 
     35 H          14.0320   -4.3515    1.2681 H         1 THP151      0.0000 
     36 H          12.8945   -3.9994    0.1873 H         1 THP151      0.0000 
     37 H          13.4491   -5.5039    0.3099 H         1 THP151      0.0000 
@<TRIPOS>BOND
     1    2    1 ar   
     2    3    1 ar   
     3    4    1 ar   
     4    9    1 1    
     5    6    5 ar   
     6    7    5 ar   
     7    8    5 ar   
     8   14    5 1    
     9   10    9 1    
    10   11   10 1    
    11   26   10 1    
    12   27   10 1    
    13   12   11 1    
    14   13   11 1    
    15   28   11 1    
    16   16   12 1    
    17   14   13 1    
    18   15   13 1    
    19   29   13 1    
    20   16   15 1    
    21   30   15 1    
    22   31   15 1    
    23   17   16 1    
    24   32   16 1    
    25   18   17 1    
    26   25   17 1    
    27   19   18 2    
    28   20   18 1    
    29   21   20 1    
    30   33   20 1    
    31   22   21 2    
    32   23   21 1    
    33   24   23 1    
    34   25   23 2    
    35   35   24 1    
    36   36   24 1    
    37   37   24 1    
    38   34   25 1    
@<TRIPOS>SUBSTRUCTURE
     1 THP151      1 GROUP   
@<TRIPOS>SET

