#    Name: 3VI4_2_CAVITY_N1_ALL.mol2
#    Modification time : Tue Mar 11 11:18:40 2014

@<TRIPOS>MOLECULE
3VI4_2_CAVITY_N1_ALL.mol2
   89     0     6     0     0
SMALL
NO_CHARGES


@<TRIPOS>ATOM
      1 N         -13.7004  -24.9934  -14.4402 N.2       2 ALA2        0.0000 
      2 DU        -13.9197  -24.0809  -15.6103 H         6 CUB7        0.0000 
      3 CZ        -14.1390  -23.1683  -16.7804 C.ar      4 PHE5        0.0000 
      4 CZ        -14.3584  -22.2558  -17.9505 C.ar      4 PHE5        0.0000 
      5 N         -14.5497  -25.1825  -12.5055 N.2       2 ALA2        0.0000 
      6 DU        -14.7691  -24.2700  -13.6756 H         6 CUB7        0.0000 
      7 DU        -14.9884  -23.3574  -14.8457 H         6 CUB7        0.0000 
      8 O         -18.7852  -23.9574  -10.7562 O.2       2 ALA2        0.0000 
      9 N         -12.4516  -24.9606  -12.7257 N.2       2 ALA2        0.0000 
     10 N         -12.6709  -24.0480  -13.8958 N.2       2 ALA2        0.0000 
     11 N         -12.8902  -23.1355  -15.0659 N.2       2 ALA2        0.0000 
     12 N         -13.1095  -22.2229  -16.2360 N.2       2 ALA2        0.0000 
     13 DU        -13.3288  -21.3104  -17.4061 H         6 CUB7        0.0000 
     14 CA        -13.5482  -20.3978  -18.5762 C.3       5 GLY6        0.0000 
     15 N         -13.5202  -24.2371  -11.9612 N.2       2 ALA2        0.0000 
     16 N         -13.7396  -23.3245  -13.1313 N.2       2 ALA2        0.0000 
     17 N         -13.9589  -22.4120  -14.3014 N.2       2 ALA2        0.0000 
     18 DU        -14.1782  -21.4994  -15.4715 H         6 CUB7        0.0000 
     19 N         -10.7921  -22.9136  -15.2861 N.2       2 ALA2        0.0000 
     20 N         -11.0114  -22.0010  -16.4562 N.2       2 ALA2        0.0000 
     21 O         -11.2307  -21.0884  -17.6263 O.2       2 ALA2        0.0000 
     22 CA        -13.7787  -21.6556  -11.8224 C.3       5 GLY6        0.0000 
     23 N         -13.9980  -20.7431  -12.9925 N.2       2 ALA2        0.0000 
     24 N         -14.2173  -19.8305  -14.1626 N.2       2 ALA2        0.0000 
     25 N         -14.4366  -18.9180  -15.3327 N.2       2 ALA2        0.0000 
     26 N         -15.0667  -20.0196  -12.2279 N.2       2 ALA2        0.0000 
     27 CZ        -15.2860  -19.1070  -13.3980 C.ar      4 PHE5        0.0000 
     28 CA        -16.6479  -25.4044  -12.2853 C.3       5 GLY6        0.0000 
     29 DU        -16.8672  -24.4919  -13.4554 H         6 CUB7        0.0000 
     30 DU        -17.0865  -23.5793  -14.6255 H         6 CUB7        0.0000 
     31 CZ        -17.4972  -25.5935  -10.3507 C.ar      4 PHE5        0.0000 
     32 CZ        -17.7166  -24.6809  -11.5208 C.ar      4 PHE5        0.0000 
     33 OD1       -15.3991  -25.3716  -10.5709 O.3       3 ASP3        0.0000 
     34 CZ        -15.6184  -24.4590  -11.7410 C.ar      4 PHE5        0.0000 
     35 DU        -15.8377  -23.5465  -12.9111 H         6 CUB7        0.0000 
     36 CZ        -16.6870  -23.7355  -10.9764 C.ar      4 PHE5        0.0000 
     37 O         -16.9064  -22.8230  -12.1465 O.2       2 ALA2        0.0000 
     38 DU        -17.1257  -21.9104  -13.3166 H         6 CUB7        0.0000 
     39 CA        -10.8591  -17.4054  -20.5923 C.3       5 GLY6        0.0000 
     40 N         -11.0505  -20.3321  -15.1473 N.2       2 ALA2        0.0000 
     41 OD1       -11.2698  -19.4195  -16.3174 O.3       3 ASP3        0.0000 
     42 OD1       -11.4891  -18.5070  -17.4875 O.3       3 ASP3        0.0000 
     43 OG        -11.7085  -17.5944  -18.6576 O.2       1 SER1        0.0000 
     44 OG        -11.9278  -16.6819  -19.8277 O.2       1 SER1        0.0000 
     45 N         -12.1192  -19.6086  -14.3828 N.2       2 ALA2        0.0000 
     46 CA        -12.3385  -18.6961  -15.5529 C.3       5 GLY6        0.0000 
     47 CA        -12.5578  -17.7835  -16.7230 C.3       5 GLY6        0.0000 
     48 OG        -12.7771  -16.8709  -17.8931 O.2       1 SER1        0.0000 
     49 OG        -12.9964  -15.9584  -19.0632 O.2       1 SER1        0.0000 
     50 N         -13.4071  -17.9726  -14.7883 N.2       2 ALA2        0.0000 
     51 CA        -13.6265  -17.0600  -15.9584 C.3       5 GLY6        0.0000 
     52 O         -11.6022  -24.7715  -14.6604 O.2       2 ALA2        0.0000 
     53 CA        -11.8216  -23.8590  -15.8305 C.3       5 GLY6        0.0000 
     54 CA        -12.0409  -22.9464  -17.0006 C.3       5 GLY6        0.0000 
     55 O         -12.2602  -22.0339  -18.1707 O.2       2 ALA2        0.0000 
     56 CA        -12.4795  -21.1213  -19.3408 C.3       5 GLY6        0.0000 
     57 CA        -14.3696  -24.4262  -10.0265 C.3       5 GLY6        0.0000 
     58 CA        -14.5889  -23.5136  -11.1966 C.3       5 GLY6        0.0000 
     59 CA        -14.8082  -22.6011  -12.3667 C.3       5 GLY6        0.0000 
     60 N         -15.0275  -21.6885  -13.5368 N.2       2 ALA2        0.0000 
     61 DU        -15.2468  -20.7759  -14.7069 H         6 CUB7        0.0000 
     62 CA        -15.8769  -21.8776  -11.6022 C.3       5 GLY6        0.0000 
     63 CZ        -16.0962  -20.9650  -12.7723 C.ar      4 PHE5        0.0000 
     64 CZ        -17.1648  -20.2415  -12.0077 C.ar      4 PHE5        0.0000 
     65 CA        -14.7299  -25.9389  -14.9845 C.3       5 GLY6        0.0000 
     66 CZ        -14.9492  -25.0263  -16.1546 C.ar      4 PHE5        0.0000 
     67 N         -15.5792  -26.1279  -13.0499 N.2       2 ALA2        0.0000 
     68 CA        -15.7986  -25.2154  -14.2200 C.3       5 GLY6        0.0000 
     69 DU        -16.0179  -24.3028  -15.3901 H         6 CUB7        0.0000 
     70 DU        -16.2372  -23.3902  -16.5602 H         6 CUB7        0.0000 
     71 N         -10.2403  -18.4741  -15.7731 N.2       2 ALA2        0.0000 
     72 N         -10.4596  -17.5616  -16.9432 N.2       2 ALA2        0.0000 
     73 OG        -10.6790  -16.6490  -18.1133 O.2       1 SER1        0.0000 
     74 O          -9.9819  -21.0556  -15.9119 O.2       2 ALA2        0.0000 
     75 OD1       -10.2012  -20.1430  -17.0820 O.3       3 ASP3        0.0000 
     76 N         -15.9787  -25.9717  -16.6990 N.2       2 ALA2        0.0000 
     77 CA        -12.6318  -25.7169  -15.2047 C.3       5 GLY6        0.0000 
     78 CA        -12.8511  -24.8044  -16.3748 C.3       5 GLY6        0.0000 
     79 CZ        -13.0704  -23.8918  -17.5449 C.ar      4 PHE5        0.0000 
     80 CZ        -13.2897  -22.9793  -18.7150 C.ar      4 PHE5        0.0000 
     81 CA        -13.5090  -22.0667  -19.8851 C.3       5 GLY6        0.0000 
     82 N         -12.0800  -21.2775  -15.6917 N.2       2 ALA2        0.0000 
     83 DU        -12.2993  -20.3650  -16.8618 H         6 CUB7        0.0000 
     84 CA        -12.5187  -19.4524  -18.0319 C.3       5 GLY6        0.0000 
     85 CA        -12.7380  -18.5398  -19.2020 C.3       5 GLY6        0.0000 
     86 N         -13.1487  -20.5540  -14.9271 N.2       2 ALA2        0.0000 
     87 DU        -13.3680  -19.6415  -16.0972 H         6 CUB7        0.0000 
     88 DU        -13.5873  -18.7289  -17.2673 H         6 CUB7        0.0000 
     89 DU        -13.8066  -17.8163  -18.4374 H         6 CUB7        0.0000 
@<TRIPOS>BOND
@<TRIPOS>SUBSTRUCTURE
     1 SER1       43 GROUP   
     2 ALA2        1 GROUP   
     3 ASP3       33 GROUP   
     4 PHE5        3 GROUP   
     5 GLY6       14 GROUP   
     6 CUB7        2 GROUP   
@<TRIPOS>SET

